MODEL 1
REMARK VINA RESULT:    -8.104      0.000      0.000
REMARK INTER + INTRA:         -24.279
REMARK INTER:                 -18.289
REMARK INTRA:                  -5.989
REMARK UNBOUND:                -5.989
REMARK  23 active torsions:
REMARK  status: ('A' for Active; 'I' for Inactive)
REMARK    1  A    between atoms: C_3  and  O_7 
REMARK    2  A    between atoms: N_4  and  C_6 
REMARK    3  A    between atoms: C_6  and  C_9 
REMARK    4  A    between atoms: O_7  and  O_42 
REMARK    5  A    between atoms: C_12  and  O_42 
REMARK    6  A    between atoms: C_13  and  C_44 
REMARK    7  A    between atoms: C_19  and  C_21 
REMARK    8  A    between atoms: C_20  and  O_40 
REMARK    9  A    between atoms: C_26  and  O_37 
REMARK   10  A    between atoms: C_27  and  C_33 
REMARK   11  A    between atoms: C_28  and  O_32 
REMARK   12  A    between atoms: C_38  and  N_47 
REMARK   13  A    between atoms: C_43  and  N_48 
REMARK   14  A    between atoms: N_47  and  C_50 
REMARK   15  A    between atoms: N_48  and  C_65 
REMARK   16  A    between atoms: C_50  and  C_51 
REMARK   17  A    between atoms: C_51  and  S_52 
REMARK   18  A    between atoms: S_52  and  O_53 
REMARK   19  A    between atoms: O_53  and  O_56 
REMARK   20  A    between atoms: O_59  and  O_62 
REMARK   21  A    between atoms: O_62  and  S_63 
REMARK   22  A    between atoms: S_63  and  C_64 
REMARK   23  A    between atoms: C_64  and  C_65 
ROOT
HETATM    1  C   UNL     1     179.478 177.621 172.034  1.00  0.00     0.196 C 
HETATM    2  C   UNL     1     180.916 177.297 172.123  1.00  0.00     0.037 C 
HETATM    3  C   UNL     1     181.849 177.983 171.396  1.00  0.00    -0.028 C 
HETATM    4  C   UNL     1     181.375 179.093 170.457  1.00  0.00    -0.014 A 
HETATM    5  C   UNL     1     180.006 179.487 170.369  1.00  0.00     0.024 A 
HETATM    6  C   UNL     1     179.002 178.834 171.312  1.00  0.00     0.044 C 
HETATM    7  C   UNL     1     182.315 179.763 169.646  1.00  0.00     0.020 A 
HETATM    8  C   UNL     1     181.977 180.796 168.774  1.00  0.00    -0.047 A 
HETATM    9  C   UNL     1     180.626 181.173 168.632  1.00  0.00     0.017 A 
HETATM   10  C   UNL     1     179.643 180.491 169.407  1.00  0.00     0.089 A 
HETATM   11  C   UNL     1     183.112 181.496 168.057  1.00  0.00     0.049 C 
HETATM   12  O   UNL     1     178.704 176.877 172.612  1.00  0.00    -0.287 OA
HETATM   13  C   UNL     1     177.774 179.396 171.583  1.00  0.00     0.099 C 
ENDROOT
BRANCH   9  14
HETATM   14  C   UNL     1     180.222 182.321 167.731  1.00  0.00     0.017 C 
HETATM   15  C   UNL     1     179.785 182.071 166.408  1.00  0.00    -0.047 C 
HETATM   16  C   UNL     1     179.529 183.139 165.550  1.00  0.00     0.020 C 
HETATM   17  C   UNL     1     179.581 180.685 165.832  1.00  0.00     0.049 C 
HETATM   18  C   UNL     1     179.604 184.491 165.953  1.00  0.00    -0.012 C 
HETATM   19  C   UNL     1     179.922 184.751 167.316  1.00  0.00     0.025 C 
HETATM   20  C   UNL     1     179.413 185.624 164.929  1.00  0.00    -0.006 C 
HETATM   21  C   UNL     1     180.313 183.663 168.167  1.00  0.00     0.089 C 
HETATM   22  C   UNL     1     179.885 186.180 167.774  1.00  0.00     0.046 C 
HETATM   23  C   UNL     1     180.054 187.215 166.737  1.00  0.00     0.217 C 
HETATM   24  C   UNL     1     179.539 186.621 169.021  1.00  0.00     0.099 C 
HETATM   25  C   UNL     1     179.716 186.912 165.331  1.00  0.00     0.124 C 
HETATM   26  O   UNL     1     180.288 188.375 167.050  1.00  0.00    -0.284 OA
BRANCH  21  27
HETATM   27  O   UNL     1     180.885 183.879 169.373  1.00  0.00    -0.359 OA
HETATM   28  H   UNL     1     181.565 184.543 169.543  1.00  0.00     0.217 HD
ENDBRANCH  21  27
BRANCH  25  29
HETATM   29  O   UNL     1     179.690 188.024 164.553  1.00  0.00    -0.356 OA
HETATM   30  H   UNL     1     180.374 188.466 164.057  1.00  0.00     0.218 HD
ENDBRANCH  25  29
BRANCH  24  31
HETATM   31  N   UNL     1     179.020 185.789 170.054  1.00  0.00    -0.397 N 
HETATM   32  H   UNL     1     178.615 184.881 169.811  1.00  0.00     0.158 HD
BRANCH  31  33
HETATM   33  C   UNL     1     178.800 186.251 171.412  1.00  0.00     0.136 C 
BRANCH  33  34
HETATM   34  C   UNL     1     179.991 185.997 172.345  1.00  0.00     0.192 C 
BRANCH  34  35
HETATM   35  S   UNL     1     180.389 184.233 172.575  1.00  0.00     0.295 S 
HETATM   36  O   UNL     1     179.932 183.721 173.950  1.00  0.00    -0.196 OA
HETATM   37  O   UNL     1     179.555 183.331 171.653  1.00  0.00    -0.196 OA
BRANCH  35  38
HETATM   38  O   UNL     1     182.007 183.674 172.401  1.00  0.00    -0.074 OA
BRANCH  38  39
HETATM   39  O   UNL     1     181.903 182.500 171.813  1.00  0.00    -0.018 OA
HETATM   40 NA   UNL     1     180.478 181.502 172.872  1.00  0.00     0.000 Na
ENDBRANCH  38  39
ENDBRANCH  35  38
ENDBRANCH  34  35
ENDBRANCH  33  34
ENDBRANCH  31  33
ENDBRANCH  24  31
BRANCH  20  41
HETATM   41  C   UNL     1     178.967 185.200 163.492  1.00  0.00     0.014 C 
HETATM   42  C   UNL     1     177.463 184.846 163.509  1.00  0.00     0.015 C 
HETATM   43  C   UNL     1     179.189 186.128 162.291  1.00  0.00     0.015 C 
ENDBRANCH  20  41
ENDBRANCH   9  14
BRANCH  10  44
HETATM   44  O   UNL     1     178.339 180.771 169.193  1.00  0.00    -0.359 OA
HETATM   45  H   UNL     1     177.820 181.438 169.661  1.00  0.00     0.217 HD
ENDBRANCH  10  44
BRANCH   3  46
HETATM   46  C   UNL     1     183.384 177.707 171.503  1.00  0.00     0.012 C 
HETATM   47  C   UNL     1     183.867 176.954 170.245  1.00  0.00     0.015 C 
HETATM   48  C   UNL     1     184.355 178.879 171.729  1.00  0.00     0.015 C 
ENDBRANCH   3  46
BRANCH  13  49
HETATM   49  N   UNL     1     176.814 178.929 172.539  1.00  0.00    -0.397 N 
HETATM   50  H   UNL     1     176.774 179.262 173.505  1.00  0.00     0.158 HD
BRANCH  49  51
HETATM   51  C   UNL     1     175.777 178.008 172.113  1.00  0.00     0.136 C 
BRANCH  51  52
HETATM   52  C   UNL     1     175.050 178.530 170.870  1.00  0.00     0.192 C 
BRANCH  52  53
HETATM   53  S   UNL     1     175.391 177.490 169.412  1.00  0.00     0.295 S 
HETATM   54  O   UNL     1     174.723 176.107 169.489  1.00  0.00    -0.196 OA
HETATM   55  O   UNL     1     174.762 178.084 168.141  1.00  0.00    -0.196 OA
BRANCH  53  56
HETATM   56  O   UNL     1     177.042 177.193 169.021  1.00  0.00    -0.074 OA
BRANCH  56  57
HETATM   57  O   UNL     1     177.359 178.093 168.113  1.00  0.00    -0.018 OA
HETATM   58 NA   UNL     1     176.415 179.788 168.726  1.00  0.00     0.000 Na
ENDBRANCH  56  57
ENDBRANCH  53  56
ENDBRANCH  52  53
ENDBRANCH  51  52
ENDBRANCH  49  51
ENDBRANCH  13  49
BRANCH   2  59
HETATM   59  O   UNL     1     181.262 176.310 172.995  1.00  0.00     0.000 OA
HETATM   60  H   UNL     1     181.961 176.526 173.623  1.00  0.00     0.000 HD
BRANCH  59  61
HETATM   61  O   UNL     1     181.015 175.055 172.841  1.00  0.00    -0.177 OA
BRANCH  61  62
HETATM   62  C   UNL     1     181.211 174.356 171.835  1.00  0.00     0.153 C 
HETATM   63  C   UNL     1     182.536 173.950 171.245  1.00  0.00     0.088 C 
HETATM   64  C   UNL     1     182.106 173.544 169.845  1.00  0.00     0.028 C 
HETATM   65  C   UNL     1     180.694 173.010 170.037  1.00  0.00     0.125 C 
HETATM   66  N   UNL     1     180.188 173.820 171.118  1.00  0.00    -0.359 N 
BRANCH  66  67
HETATM   67  C   UNL     1     178.764 173.963 171.395  1.00  0.00     0.081 C 
HETATM   68  C   UNL     1     177.941 173.788 170.109  1.00  0.00     0.032 C 
BRANCH  67  69
HETATM   69  C   UNL     1     178.352 172.991 172.524  1.00  0.00     0.020 C 
HETATM   70  C   UNL     1     177.617 173.672 173.678  1.00  0.00     0.007 C 
ENDBRANCH  67  69
ENDBRANCH  66  67
ENDBRANCH  61  62
ENDBRANCH  59  61
ENDBRANCH   2  59
TORSDOF 23
ENDMDL
MODEL 2
REMARK VINA RESULT:    -8.001      1.218      2.040
REMARK INTER + INTRA:         -24.047
REMARK INTER:                 -18.904
REMARK INTRA:                  -5.143
REMARK UNBOUND:                -5.989
REMARK  23 active torsions:
REMARK  status: ('A' for Active; 'I' for Inactive)
REMARK    1  A    between atoms: C_3  and  O_7 
REMARK    2  A    between atoms: N_4  and  C_6 
REMARK    3  A    between atoms: C_6  and  C_9 
REMARK    4  A    between atoms: O_7  and  O_42 
REMARK    5  A    between atoms: C_12  and  O_42 
REMARK    6  A    between atoms: C_13  and  C_44 
REMARK    7  A    between atoms: C_19  and  C_21 
REMARK    8  A    between atoms: C_20  and  O_40 
REMARK    9  A    between atoms: C_26  and  O_37 
REMARK   10  A    between atoms: C_27  and  C_33 
REMARK   11  A    between atoms: C_28  and  O_32 
REMARK   12  A    between atoms: C_38  and  N_47 
REMARK   13  A    between atoms: C_43  and  N_48 
REMARK   14  A    between atoms: N_47  and  C_50 
REMARK   15  A    between atoms: N_48  and  C_65 
REMARK   16  A    between atoms: C_50  and  C_51 
REMARK   17  A    between atoms: C_51  and  S_52 
REMARK   18  A    between atoms: S_52  and  O_53 
REMARK   19  A    between atoms: O_53  and  O_56 
REMARK   20  A    between atoms: O_59  and  O_62 
REMARK   21  A    between atoms: O_62  and  S_63 
REMARK   22  A    between atoms: S_63  and  C_64 
REMARK   23  A    between atoms: C_64  and  C_65 
ROOT
HETATM    1  C   UNL     1     179.329 177.851 172.009  1.00  0.00     0.196 C 
HETATM    2  C   UNL     1     180.780 177.643 172.195  1.00  0.00     0.037 C 
HETATM    3  C   UNL     1     181.701 178.349 171.474  1.00  0.00    -0.028 C 
HETATM    4  C   UNL     1     181.204 179.357 170.437  1.00  0.00    -0.014 A 
HETATM    5  C   UNL     1     179.817 179.641 170.251  1.00  0.00     0.024 A 
HETATM    6  C   UNL     1     178.810 178.975 171.182  1.00  0.00     0.044 C 
HETATM    7  C   UNL     1     182.139 180.043 169.633  1.00  0.00     0.020 A 
HETATM    8  C   UNL     1     181.778 180.989 168.675  1.00  0.00    -0.047 A 
HETATM    9  C   UNL     1     180.414 181.253 168.437  1.00  0.00     0.017 A 
HETATM   10  C   UNL     1     179.440 180.550 169.204  1.00  0.00     0.089 A 
HETATM   11  C   UNL     1     182.898 181.726 167.973  1.00  0.00     0.049 C 
HETATM   12  O   UNL     1     178.580 177.089 172.596  1.00  0.00    -0.287 OA
HETATM   13  C   UNL     1     177.531 179.460 171.349  1.00  0.00     0.099 C 
ENDROOT
BRANCH   9  14
HETATM   14  C   UNL     1     179.980 182.307 167.440  1.00  0.00     0.017 C 
HETATM   15  C   UNL     1     179.636 181.940 166.117  1.00  0.00    -0.047 C 
HETATM   16  C   UNL     1     179.354 182.928 165.175  1.00  0.00     0.020 C 
HETATM   17  C   UNL     1     179.563 180.508 165.628  1.00  0.00     0.049 C 
HETATM   18  C   UNL     1     179.312 184.305 165.487  1.00  0.00    -0.012 C 
HETATM   19  C   UNL     1     179.534 184.677 166.843  1.00  0.00     0.025 C 
HETATM   20  C   UNL     1     179.099 185.353 164.380  1.00  0.00    -0.006 C 
HETATM   21  C   UNL     1     179.952 183.678 167.787  1.00  0.00     0.089 C 
HETATM   22  C   UNL     1     179.371 186.126 167.200  1.00  0.00     0.046 C 
HETATM   23  C   UNL     1     179.524 187.100 166.104  1.00  0.00     0.217 C 
HETATM   24  C   UNL     1     178.926 186.620 168.395  1.00  0.00     0.099 C 
HETATM   25  C   UNL     1     179.287 186.683 164.707  1.00  0.00     0.124 C 
HETATM   26  O   UNL     1     179.658 188.293 166.348  1.00  0.00    -0.284 OA
BRANCH  21  27
HETATM   27  O   UNL     1     180.440 184.014 169.002  1.00  0.00    -0.359 OA
HETATM   28  H   UNL     1     180.288 184.862 169.436  1.00  0.00     0.217 HD
ENDBRANCH  21  27
BRANCH  25  29
HETATM   29  O   UNL     1     179.227 187.737 163.854  1.00  0.00    -0.356 OA
HETATM   30  H   UNL     1     179.343 188.672 163.994  1.00  0.00     0.218 HD
ENDBRANCH  25  29
BRANCH  24  31
HETATM   31  N   UNL     1     178.410 185.820 169.455  1.00  0.00    -0.397 N 
HETATM   32  H   UNL     1     177.822 185.012 169.233  1.00  0.00     0.158 HD
BRANCH  31  33
HETATM   33  C   UNL     1     178.458 186.222 170.848  1.00  0.00     0.136 C 
BRANCH  33  34
HETATM   34  C   UNL     1     179.873 186.206 171.441  1.00  0.00     0.192 C 
BRANCH  34  35
HETATM   35  S   UNL     1     180.286 184.671 172.332  1.00  0.00     0.295 S 
HETATM   36  O   UNL     1     181.732 184.686 172.852  1.00  0.00    -0.196 OA
HETATM   37  O   UNL     1     179.517 184.552 173.657  1.00  0.00    -0.196 OA
BRANCH  35  38
HETATM   38  O   UNL     1     180.098 183.140 171.569  1.00  0.00    -0.074 OA
BRANCH  38  39
HETATM   39  O   UNL     1     181.039 182.380 172.089  1.00  0.00    -0.018 OA
HETATM   40 NA   UNL     1     180.929 182.702 174.097  1.00  0.00     0.000 Na
ENDBRANCH  38  39
ENDBRANCH  35  38
ENDBRANCH  34  35
ENDBRANCH  33  34
ENDBRANCH  31  33
ENDBRANCH  24  31
BRANCH  20  41
HETATM   41  C   UNL     1     178.764 184.804 162.955  1.00  0.00     0.014 C 
HETATM   42  C   UNL     1     180.035 184.177 162.338  1.00  0.00     0.015 C 
HETATM   43  C   UNL     1     177.628 183.793 162.746  1.00  0.00     0.015 C 
ENDBRANCH  20  41
ENDBRANCH   9  14
BRANCH  10  44
HETATM   44  O   UNL     1     178.133 180.717 168.904  1.00  0.00    -0.359 OA
HETATM   45  H   UNL     1     177.783 181.048 168.066  1.00  0.00     0.217 HD
ENDBRANCH  10  44
BRANCH   3  46
HETATM   46  C   UNL     1     183.244 178.197 171.679  1.00  0.00     0.012 C 
HETATM   47  C   UNL     1     183.832 177.301 170.568  1.00  0.00     0.015 C 
HETATM   48  C   UNL     1     184.129 179.453 171.764  1.00  0.00     0.015 C 
ENDBRANCH   3  46
BRANCH  13  49
HETATM   49  N   UNL     1     176.555 178.984 172.283  1.00  0.00    -0.397 N 
HETATM   50  H   UNL     1     176.538 179.256 173.268  1.00  0.00     0.158 HD
BRANCH  49  51
HETATM   51  C   UNL     1     175.467 178.148 171.810  1.00  0.00     0.136 C 
BRANCH  51  52
HETATM   52  C   UNL     1     175.075 178.511 170.375  1.00  0.00     0.192 C 
BRANCH  52  53
HETATM   53  S   UNL     1     174.301 177.101 169.517  1.00  0.00     0.295 S 
HETATM   54  O   UNL     1     173.847 177.440 168.087  1.00  0.00    -0.196 OA
HETATM   55  O   UNL     1     175.310 175.967 169.278  1.00  0.00    -0.196 OA
BRANCH  53  56
HETATM   56  O   UNL     1     172.941 176.364 170.277  1.00  0.00    -0.074 OA
BRANCH  56  57
HETATM   57  O   UNL     1     172.169 175.946 169.295  1.00  0.00    -0.018 OA
HETATM   58 NA   UNL     1     173.446 175.035 167.998  1.00  0.00     0.000 Na
ENDBRANCH  56  57
ENDBRANCH  53  56
ENDBRANCH  52  53
ENDBRANCH  51  52
ENDBRANCH  49  51
ENDBRANCH  13  49
BRANCH   2  59
HETATM   59  O   UNL     1     181.145 176.742 173.150  1.00  0.00     0.000 OA
HETATM   60  H   UNL     1     181.470 177.113 173.979  1.00  0.00     0.000 HD
BRANCH  59  61
HETATM   61  O   UNL     1     181.428 175.504 172.940  1.00  0.00    -0.177 OA
BRANCH  61  62
HETATM   62  C   UNL     1     180.658 174.590 172.609  1.00  0.00     0.153 C 
HETATM   63  C   UNL     1     179.630 173.901 173.466  1.00  0.00     0.088 C 
HETATM   64  C   UNL     1     179.390 172.638 172.655  1.00  0.00     0.028 C 
HETATM   65  C   UNL     1     179.611 173.081 171.216  1.00  0.00     0.125 C 
HETATM   66  N   UNL     1     180.632 174.092 171.344  1.00  0.00    -0.359 N 
BRANCH  66  67
HETATM   67  C   UNL     1     181.457 174.524 170.222  1.00  0.00     0.081 C 
HETATM   68  C   UNL     1     182.654 173.579 170.032  1.00  0.00     0.032 C 
BRANCH  67  69
HETATM   69  C   UNL     1     180.581 174.667 168.956  1.00  0.00     0.020 C 
HETATM   70  C   UNL     1     180.060 176.086 168.732  1.00  0.00     0.007 C 
ENDBRANCH  67  69
ENDBRANCH  66  67
ENDBRANCH  61  62
ENDBRANCH  59  61
ENDBRANCH   2  59
TORSDOF 23
ENDMDL
MODEL 3
REMARK VINA RESULT:    -7.872      4.874     10.811
REMARK INTER + INTRA:         -23.755
REMARK INTER:                 -16.454
REMARK INTRA:                  -7.301
REMARK UNBOUND:                -5.989
REMARK  23 active torsions:
REMARK  status: ('A' for Active; 'I' for Inactive)
REMARK    1  A    between atoms: C_3  and  O_7 
REMARK    2  A    between atoms: N_4  and  C_6 
REMARK    3  A    between atoms: C_6  and  C_9 
REMARK    4  A    between atoms: O_7  and  O_42 
REMARK    5  A    between atoms: C_12  and  O_42 
REMARK    6  A    between atoms: C_13  and  C_44 
REMARK    7  A    between atoms: C_19  and  C_21 
REMARK    8  A    between atoms: C_20  and  O_40 
REMARK    9  A    between atoms: C_26  and  O_37 
REMARK   10  A    between atoms: C_27  and  C_33 
REMARK   11  A    between atoms: C_28  and  O_32 
REMARK   12  A    between atoms: C_38  and  N_47 
REMARK   13  A    between atoms: C_43  and  N_48 
REMARK   14  A    between atoms: N_47  and  C_50 
REMARK   15  A    between atoms: N_48  and  C_65 
REMARK   16  A    between atoms: C_50  and  C_51 
REMARK   17  A    between atoms: C_51  and  S_52 
REMARK   18  A    between atoms: S_52  and  O_53 
REMARK   19  A    between atoms: O_53  and  O_56 
REMARK   20  A    between atoms: O_59  and  O_62 
REMARK   21  A    between atoms: O_62  and  S_63 
REMARK   22  A    between atoms: S_63  and  C_64 
REMARK   23  A    between atoms: C_64  and  C_65 
ROOT
HETATM    1  C   UNL     1     183.822 189.116 169.568  1.00  0.00     0.196 C 
HETATM    2  C   UNL     1     185.113 188.679 170.134  1.00  0.00     0.037 C 
HETATM    3  C   UNL     1     185.339 187.374 170.474  1.00  0.00    -0.028 C 
HETATM    4  C   UNL     1     184.211 186.360 170.279  1.00  0.00    -0.014 A 
HETATM    5  C   UNL     1     182.961 186.712 169.686  1.00  0.00     0.024 A 
HETATM    6  C   UNL     1     182.786 188.129 169.152  1.00  0.00     0.044 C 
HETATM    7  C   UNL     1     184.402 185.024 170.689  1.00  0.00     0.020 A 
HETATM    8  C   UNL     1     183.437 184.030 170.537  1.00  0.00    -0.047 A 
HETATM    9  C   UNL     1     182.176 184.360 169.999  1.00  0.00     0.017 A 
HETATM   10  C   UNL     1     181.935 185.710 169.608  1.00  0.00     0.089 A 
HETATM   11  C   UNL     1     183.829 182.619 170.918  1.00  0.00     0.049 C 
HETATM   12  O   UNL     1     183.659 190.315 169.417  1.00  0.00    -0.287 OA
HETATM   13  C   UNL     1     181.807 188.456 168.240  1.00  0.00     0.099 C 
ENDROOT
BRANCH   9  14
HETATM   14  C   UNL     1     181.117 183.302 169.772  1.00  0.00     0.017 C 
HETATM   15  C   UNL     1     180.248 182.924 170.823  1.00  0.00    -0.047 C 
HETATM   16  C   UNL     1     179.358 181.868 170.640  1.00  0.00     0.020 C 
HETATM   17  C   UNL     1     180.223 183.594 172.182  1.00  0.00     0.049 C 
HETATM   18  C   UNL     1     179.209 181.185 169.413  1.00  0.00    -0.012 C 
HETATM   19  C   UNL     1     179.989 181.639 168.312  1.00  0.00     0.025 C 
HETATM   20  C   UNL     1     178.285 179.959 169.306  1.00  0.00    -0.006 C 
HETATM   21  C   UNL     1     180.998 182.638 168.530  1.00  0.00     0.089 C 
HETATM   22  C   UNL     1     179.745 180.995 166.978  1.00  0.00     0.046 C 
HETATM   23  C   UNL     1     179.152 179.645 166.992  1.00  0.00     0.217 C 
HETATM   24  C   UNL     1     179.855 181.598 165.756  1.00  0.00     0.099 C 
HETATM   25  C   UNL     1     178.348 179.203 168.150  1.00  0.00     0.124 C 
HETATM   26  O   UNL     1     179.156 178.956 165.980  1.00  0.00    -0.284 OA
BRANCH  21  27
HETATM   27  O   UNL     1     181.943 182.902 167.599  1.00  0.00    -0.359 OA
HETATM   28  H   UNL     1     182.872 182.652 167.676  1.00  0.00     0.217 HD
ENDBRANCH  21  27
BRANCH  25  29
HETATM   29  O   UNL     1     177.677 178.049 167.905  1.00  0.00    -0.356 OA
HETATM   30  H   UNL     1     177.534 177.558 167.101  1.00  0.00     0.218 HD
ENDBRANCH  25  29
BRANCH  24  31
HETATM   31  N   UNL     1     180.088 182.990 165.563  1.00  0.00    -0.397 N 
HETATM   32  H   UNL     1     179.832 183.649 166.304  1.00  0.00     0.158 HD
BRANCH  31  33
HETATM   33  C   UNL     1     180.438 183.567 164.278  1.00  0.00     0.136 C 
BRANCH  33  34
HETATM   34  C   UNL     1     179.943 185.007 164.100  1.00  0.00     0.192 C 
BRANCH  34  35
HETATM   35  S   UNL     1     180.294 186.094 165.520  1.00  0.00     0.295 S 
HETATM   36  O   UNL     1     179.273 185.899 166.653  1.00  0.00    -0.196 OA
HETATM   37  O   UNL     1     181.589 185.693 166.244  1.00  0.00    -0.196 OA
BRANCH  35  38
HETATM   38  O   UNL     1     180.412 187.797 165.308  1.00  0.00    -0.074 OA
BRANCH  38  39
HETATM   39  O   UNL     1     179.236 188.168 164.846  1.00  0.00    -0.018 OA
HETATM   40 NA   UNL     1     179.583 188.759 162.928  1.00  0.00     0.000 Na
ENDBRANCH  38  39
ENDBRANCH  35  38
ENDBRANCH  34  35
ENDBRANCH  33  34
ENDBRANCH  31  33
ENDBRANCH  24  31
BRANCH  20  41
HETATM   41  C   UNL     1     177.410 179.633 170.560  1.00  0.00     0.014 C 
HETATM   42  C   UNL     1     175.926 179.544 170.137  1.00  0.00     0.015 C 
HETATM   43  C   UNL     1     177.697 178.397 171.422  1.00  0.00     0.015 C 
ENDBRANCH  20  41
ENDBRANCH   9  14
BRANCH  10  44
HETATM   44  O   UNL     1     180.694 186.055 169.197  1.00  0.00    -0.359 OA
HETATM   45  H   UNL     1     179.944 186.255 169.772  1.00  0.00     0.217 HD
ENDBRANCH  10  44
BRANCH   3  46
HETATM   46  C   UNL     1     186.710 186.861 171.025  1.00  0.00     0.012 C 
HETATM   47  C   UNL     1     186.565 186.485 172.514  1.00  0.00     0.015 C 
HETATM   48  C   UNL     1     187.420 185.687 170.328  1.00  0.00     0.015 C 
ENDBRANCH   3  46
BRANCH  13  49
HETATM   49  N   UNL     1     181.635 189.721 167.589  1.00  0.00    -0.397 N 
HETATM   50  H   UNL     1     182.332 190.131 166.963  1.00  0.00     0.158 HD
BRANCH  49  51
HETATM   51  C   UNL     1     180.379 190.430 167.736  1.00  0.00     0.136 C 
BRANCH  51  52
HETATM   52  C   UNL     1     179.835 190.302 169.162  1.00  0.00     0.192 C 
BRANCH  52  53
HETATM   53  S   UNL     1     178.380 189.206 169.225  1.00  0.00     0.295 S 
HETATM   54  O   UNL     1     177.107 189.921 169.709  1.00  0.00    -0.196 OA
HETATM   55  O   UNL     1     177.972 188.733 167.821  1.00  0.00    -0.196 OA
BRANCH  53  56
HETATM   56  O   UNL     1     178.507 187.778 170.181  1.00  0.00    -0.074 OA
BRANCH  56  57
HETATM   57  O   UNL     1     177.849 186.848 169.519  1.00  0.00    -0.018 OA
HETATM   58 NA   UNL     1     176.165 187.785 168.865  1.00  0.00     0.000 Na
ENDBRANCH  56  57
ENDBRANCH  53  56
ENDBRANCH  52  53
ENDBRANCH  51  52
ENDBRANCH  49  51
ENDBRANCH  13  49
BRANCH   2  59
HETATM   59  O   UNL     1     186.075 189.635 170.260  1.00  0.00     0.000 OA
HETATM   60  H   UNL     1     185.842 190.402 170.797  1.00  0.00     0.000 HD
BRANCH  59  61
HETATM   61  O   UNL     1     187.088 189.785 169.479  1.00  0.00    -0.177 OA
BRANCH  61  62
HETATM   62  C   UNL     1     187.094 190.192 168.308  1.00  0.00     0.153 C 
HETATM   63  C   UNL     1     187.003 191.617 167.831  1.00  0.00     0.088 C 
HETATM   64  C   UNL     1     186.596 191.403 166.382  1.00  0.00     0.028 C 
HETATM   65  C   UNL     1     187.252 190.082 166.010  1.00  0.00     0.125 C 
HETATM   66  N   UNL     1     187.218 189.346 167.251  1.00  0.00    -0.359 N 
BRANCH  66  67
HETATM   67  C   UNL     1     187.361 187.896 167.310  1.00  0.00     0.081 C 
HETATM   68  C   UNL     1     186.073 187.204 166.838  1.00  0.00     0.032 C 
BRANCH  67  69
HETATM   69  C   UNL     1     188.616 187.463 166.516  1.00  0.00     0.020 C 
HETATM   70  C   UNL     1     189.470 186.426 167.244  1.00  0.00     0.007 C 
ENDBRANCH  67  69
ENDBRANCH  66  67
ENDBRANCH  61  62
ENDBRANCH  59  61
ENDBRANCH   2  59
TORSDOF 23
ENDMDL
MODEL 4
REMARK VINA RESULT:    -7.821      5.335     11.616
REMARK INTER + INTRA:         -23.640
REMARK INTER:                 -17.674
REMARK INTRA:                  -5.967
REMARK UNBOUND:                -5.989
REMARK  23 active torsions:
REMARK  status: ('A' for Active; 'I' for Inactive)
REMARK    1  A    between atoms: C_3  and  O_7 
REMARK    2  A    between atoms: N_4  and  C_6 
REMARK    3  A    between atoms: C_6  and  C_9 
REMARK    4  A    between atoms: O_7  and  O_42 
REMARK    5  A    between atoms: C_12  and  O_42 
REMARK    6  A    between atoms: C_13  and  C_44 
REMARK    7  A    between atoms: C_19  and  C_21 
REMARK    8  A    between atoms: C_20  and  O_40 
REMARK    9  A    between atoms: C_26  and  O_37 
REMARK   10  A    between atoms: C_27  and  C_33 
REMARK   11  A    between atoms: C_28  and  O_32 
REMARK   12  A    between atoms: C_38  and  N_47 
REMARK   13  A    between atoms: C_43  and  N_48 
REMARK   14  A    between atoms: N_47  and  C_50 
REMARK   15  A    between atoms: N_48  and  C_65 
REMARK   16  A    between atoms: C_50  and  C_51 
REMARK   17  A    between atoms: C_51  and  S_52 
REMARK   18  A    between atoms: S_52  and  O_53 
REMARK   19  A    between atoms: O_53  and  O_56 
REMARK   20  A    between atoms: O_59  and  O_62 
REMARK   21  A    between atoms: O_62  and  S_63 
REMARK   22  A    between atoms: S_63  and  C_64 
REMARK   23  A    between atoms: C_64  and  C_65 
ROOT
HETATM    1  C   UNL     1     185.391 188.766 169.916  1.00  0.00     0.196 C 
HETATM    2  C   UNL     1     184.470 189.734 169.286  1.00  0.00     0.037 C 
HETATM    3  C   UNL     1     183.240 189.354 168.827  1.00  0.00    -0.028 C 
HETATM    4  C   UNL     1     182.831 187.885 168.955  1.00  0.00    -0.014 A 
HETATM    5  C   UNL     1     183.657 186.916 169.602  1.00  0.00     0.024 A 
HETATM    6  C   UNL     1     184.946 187.388 170.262  1.00  0.00     0.044 C 
HETATM    7  C   UNL     1     181.595 187.461 168.423  1.00  0.00     0.020 A 
HETATM    8  C   UNL     1     181.136 186.148 168.506  1.00  0.00    -0.047 A 
HETATM    9  C   UNL     1     181.951 185.161 169.097  1.00  0.00     0.017 A 
HETATM   10  C   UNL     1     183.223 185.546 169.611  1.00  0.00     0.089 A 
HETATM   11  C   UNL     1     179.739 185.869 167.992  1.00  0.00     0.049 C 
HETATM   12  O   UNL     1     186.516 189.160 170.176  1.00  0.00    -0.287 OA
HETATM   13  C   UNL     1     185.597 186.642 171.220  1.00  0.00     0.099 C 
ENDROOT
BRANCH   9  14
HETATM   14  C   UNL     1     181.470 183.733 169.250  1.00  0.00     0.017 C 
HETATM   15  C   UNL     1     181.572 182.825 168.169  1.00  0.00    -0.047 C 
HETATM   16  C   UNL     1     181.019 181.551 168.281  1.00  0.00     0.020 C 
HETATM   17  C   UNL     1     182.246 183.150 166.852  1.00  0.00     0.049 C 
HETATM   18  C   UNL     1     180.417 181.069 169.464  1.00  0.00    -0.012 C 
HETATM   19  C   UNL     1     180.420 181.930 170.598  1.00  0.00     0.025 C 
HETATM   20  C   UNL     1     179.731 179.691 169.489  1.00  0.00    -0.006 C 
HETATM   21  C   UNL     1     180.869 183.286 170.450  1.00  0.00     0.089 C 
HETATM   22  C   UNL     1     179.890 181.377 171.889  1.00  0.00     0.046 C 
HETATM   23  C   UNL     1     178.950 180.245 171.790  1.00  0.00     0.217 C 
HETATM   24  C   UNL     1     180.320 181.702 173.145  1.00  0.00     0.099 C 
HETATM   25  C   UNL     1     178.973 179.370 170.599  1.00  0.00     0.124 C 
HETATM   26  O   UNL     1     178.285 179.904 172.759  1.00  0.00    -0.284 OA
BRANCH  21  27
HETATM   27  O   UNL     1     180.638 184.216 171.404  1.00  0.00    -0.359 OA
HETATM   28  H   UNL     1     180.740 185.167 171.277  1.00  0.00     0.217 HD
ENDBRANCH  21  27
BRANCH  25  29
HETATM   29  O   UNL     1     178.231 178.246 170.769  1.00  0.00    -0.356 OA
HETATM   30  H   UNL     1     177.315 178.120 170.999  1.00  0.00     0.218 HD
ENDBRANCH  25  29
BRANCH  24  31
HETATM   31  N   UNL     1     181.449 182.525 173.422  1.00  0.00    -0.397 N 
HETATM   32  H   UNL     1     181.599 183.374 172.869  1.00  0.00     0.158 HD
BRANCH  31  33
HETATM   33  C   UNL     1     182.546 182.109 174.276  1.00  0.00     0.136 C 
BRANCH  33  34
HETATM   34  C   UNL     1     183.175 183.261 175.069  1.00  0.00     0.192 C 
BRANCH  34  35
HETATM   35  S   UNL     1     183.920 184.558 174.028  1.00  0.00     0.295 S 
HETATM   36  O   UNL     1     185.053 184.003 173.151  1.00  0.00    -0.196 OA
HETATM   37  O   UNL     1     182.949 185.052 172.944  1.00  0.00    -0.196 OA
BRANCH  35  38
HETATM   38  O   UNL     1     184.559 185.989 174.739  1.00  0.00    -0.074 OA
BRANCH  38  39
HETATM   39  O   UNL     1     184.706 185.701 176.016  1.00  0.00    -0.018 OA
HETATM   40 NA   UNL     1     186.174 184.289 176.075  1.00  0.00     0.000 Na
ENDBRANCH  38  39
ENDBRANCH  35  38
ENDBRANCH  34  35
ENDBRANCH  33  34
ENDBRANCH  31  33
ENDBRANCH  24  31
BRANCH  20  41
HETATM   41  C   UNL     1     179.893 178.808 168.210  1.00  0.00     0.014 C 
HETATM   42  C   UNL     1     180.037 177.327 168.627  1.00  0.00     0.015 C 
HETATM   43  C   UNL     1     178.849 178.850 167.086  1.00  0.00     0.015 C 
ENDBRANCH  20  41
ENDBRANCH   9  14
BRANCH  10  44
HETATM   44  O   UNL     1     184.053 184.587 170.076  1.00  0.00    -0.359 OA
HETATM   45  H   UNL     1     184.076 184.250 170.981  1.00  0.00     0.217 HD
ENDBRANCH  10  44
BRANCH   3  46
HETATM   46  C   UNL     1     182.214 190.357 168.205  1.00  0.00     0.012 C 
HETATM   47  C   UNL     1     181.703 189.809 166.856  1.00  0.00     0.015 C 
HETATM   48  C   UNL     1     180.978 190.786 169.017  1.00  0.00     0.015 C 
ENDBRANCH   3  46
BRANCH  13  49
HETATM   49  N   UNL     1     186.740 187.046 171.984  1.00  0.00    -0.397 N 
HETATM   50  H   UNL     1     186.809 187.948 172.461  1.00  0.00     0.158 HD
BRANCH  49  51
HETATM   51  C   UNL     1     187.828 186.107 172.184  1.00  0.00     0.136 C 
BRANCH  51  52
HETATM   52  C   UNL     1     187.710 184.912 171.234  1.00  0.00     0.192 C 
BRANCH  52  53
HETATM   53  S   UNL     1     188.637 185.192 169.690  1.00  0.00     0.295 S 
HETATM   54  O   UNL     1     189.947 185.968 169.906  1.00  0.00    -0.196 OA
HETATM   55  O   UNL     1     189.138 183.869 169.089  1.00  0.00    -0.196 OA
BRANCH  53  56
HETATM   56  O   UNL     1     187.816 186.005 168.411  1.00  0.00    -0.074 OA
BRANCH  56  57
HETATM   57  O   UNL     1     188.694 186.847 167.906  1.00  0.00    -0.018 OA
HETATM   58 NA   UNL     1     187.819 188.674 168.107  1.00  0.00     0.000 Na
ENDBRANCH  56  57
ENDBRANCH  53  56
ENDBRANCH  52  53
ENDBRANCH  51  52
ENDBRANCH  49  51
ENDBRANCH  13  49
BRANCH   2  59
HETATM   59  O   UNL     1     184.896 191.026 169.226  1.00  0.00     0.000 OA
HETATM   60  H   UNL     1     184.646 191.590 169.969  1.00  0.00     0.000 HD
BRANCH  59  61
HETATM   61  O   UNL     1     185.273 191.641 168.159  1.00  0.00    -0.177 OA
BRANCH  61  62
HETATM   62  C   UNL     1     186.332 191.496 167.530  1.00  0.00     0.153 C 
HETATM   63  C   UNL     1     187.688 192.051 167.876  1.00  0.00     0.088 C 
HETATM   64  C   UNL     1     188.392 191.929 166.534  1.00  0.00     0.028 C 
HETATM   65  C   UNL     1     187.754 190.702 165.898  1.00  0.00     0.125 C 
HETATM   66  N   UNL     1     186.401 190.750 166.396  1.00  0.00    -0.359 N 
BRANCH  66  67
HETATM   67  C   UNL     1     185.303 190.028 165.762  1.00  0.00     0.081 C 
HETATM   68  C   UNL     1     185.280 190.296 164.249  1.00  0.00     0.032 C 
BRANCH  67  69
HETATM   69  C   UNL     1     185.393 188.526 166.118  1.00  0.00     0.020 C 
HETATM   70  C   UNL     1     184.474 187.643 165.275  1.00  0.00     0.007 C 
ENDBRANCH  67  69
ENDBRANCH  66  67
ENDBRANCH  61  62
ENDBRANCH  59  61
ENDBRANCH   2  59
TORSDOF 23
ENDMDL
MODEL 5
REMARK VINA RESULT:    -7.813      3.200      9.759
REMARK INTER + INTRA:         -23.623
REMARK INTER:                 -16.892
REMARK INTRA:                  -6.731
REMARK UNBOUND:                -5.989
REMARK  23 active torsions:
REMARK  status: ('A' for Active; 'I' for Inactive)
REMARK    1  A    between atoms: C_3  and  O_7 
REMARK    2  A    between atoms: N_4  and  C_6 
REMARK    3  A    between atoms: C_6  and  C_9 
REMARK    4  A    between atoms: O_7  and  O_42 
REMARK    5  A    between atoms: C_12  and  O_42 
REMARK    6  A    between atoms: C_13  and  C_44 
REMARK    7  A    between atoms: C_19  and  C_21 
REMARK    8  A    between atoms: C_20  and  O_40 
REMARK    9  A    between atoms: C_26  and  O_37 
REMARK   10  A    between atoms: C_27  and  C_33 
REMARK   11  A    between atoms: C_28  and  O_32 
REMARK   12  A    between atoms: C_38  and  N_47 
REMARK   13  A    between atoms: C_43  and  N_48 
REMARK   14  A    between atoms: N_47  and  C_50 
REMARK   15  A    between atoms: N_48  and  C_65 
REMARK   16  A    between atoms: C_50  and  C_51 
REMARK   17  A    between atoms: C_51  and  S_52 
REMARK   18  A    between atoms: S_52  and  O_53 
REMARK   19  A    between atoms: O_53  and  O_56 
REMARK   20  A    between atoms: O_59  and  O_62 
REMARK   21  A    between atoms: O_62  and  S_63 
REMARK   22  A    between atoms: S_63  and  C_64 
REMARK   23  A    between atoms: C_64  and  C_65 
ROOT
HETATM    1  C   UNL     1     183.231 181.705 170.357  1.00  0.00     0.196 C 
HETATM    2  C   UNL     1     183.198 182.348 169.028  1.00  0.00     0.037 C 
HETATM    3  C   UNL     1     182.318 181.947 168.063  1.00  0.00    -0.028 C 
HETATM    4  C   UNL     1     181.367 180.790 168.372  1.00  0.00    -0.014 A 
HETATM    5  C   UNL     1     181.315 180.166 169.655  1.00  0.00     0.024 A 
HETATM    6  C   UNL     1     182.179 180.737 170.774  1.00  0.00     0.044 C 
HETATM    7  C   UNL     1     180.500 180.316 167.365  1.00  0.00     0.020 A 
HETATM    8  C   UNL     1     179.592 179.278 167.561  1.00  0.00    -0.047 A 
HETATM    9  C   UNL     1     179.553 178.612 168.803  1.00  0.00     0.017 A 
HETATM   10  C   UNL     1     180.442 179.039 169.833  1.00  0.00     0.089 A 
HETATM   11  C   UNL     1     178.648 178.959 166.421  1.00  0.00     0.049 C 
HETATM   12  O   UNL     1     184.132 182.033 171.110  1.00  0.00    -0.287 OA
HETATM   13  C   UNL     1     181.926 180.478 172.103  1.00  0.00     0.099 C 
ENDROOT
BRANCH   9  14
HETATM   14  C   UNL     1     178.549 177.511 169.073  1.00  0.00     0.017 C 
HETATM   15  C   UNL     1     178.891 176.158 168.840  1.00  0.00    -0.047 C 
HETATM   16  C   UNL     1     177.924 175.165 168.978  1.00  0.00     0.020 C 
HETATM   17  C   UNL     1     180.273 175.695 168.425  1.00  0.00     0.049 C 
HETATM   18  C   UNL     1     176.609 175.422 169.424  1.00  0.00    -0.012 C 
HETATM   19  C   UNL     1     176.289 176.763 169.781  1.00  0.00     0.025 C 
HETATM   20  C   UNL     1     175.558 174.298 169.453  1.00  0.00    -0.006 C 
HETATM   21  C   UNL     1     177.239 177.807 169.517  1.00  0.00     0.089 C 
HETATM   22  C   UNL     1     174.931 177.017 170.368  1.00  0.00     0.046 C 
HETATM   23  C   UNL     1     173.876 176.036 170.052  1.00  0.00     0.217 C 
HETATM   24  C   UNL     1     174.618 177.967 171.302  1.00  0.00     0.099 C 
HETATM   25  C   UNL     1     174.242 174.653 169.685  1.00  0.00     0.124 C 
HETATM   26  O   UNL     1     172.701 176.296 170.274  1.00  0.00    -0.284 OA
BRANCH  21  27
HETATM   27  O   UNL     1     176.889 179.112 169.575  1.00  0.00    -0.359 OA
HETATM   28  H   UNL     1     177.279 179.756 170.179  1.00  0.00     0.217 HD
ENDBRANCH  21  27
BRANCH  25  29
HETATM   29  O   UNL     1     173.169 173.821 169.666  1.00  0.00    -0.356 OA
HETATM   30  H   UNL     1     172.989 173.009 170.131  1.00  0.00     0.218 HD
ENDBRANCH  25  29
BRANCH  24  31
HETATM   31  N   UNL     1     175.574 178.782 171.973  1.00  0.00    -0.397 N 
HETATM   32  H   UNL     1     175.886 179.653 171.535  1.00  0.00     0.158 HD
BRANCH  31  33
HETATM   33  C   UNL     1     176.329 178.333 173.128  1.00  0.00     0.136 C 
BRANCH  33  34
HETATM   34  C   UNL     1     177.815 178.095 172.832  1.00  0.00     0.192 C 
BRANCH  34  35
HETATM   35  S   UNL     1     178.344 176.363 173.033  1.00  0.00     0.295 S 
HETATM   36  O   UNL     1     178.788 176.066 174.474  1.00  0.00    -0.196 OA
HETATM   37  O   UNL     1     177.166 175.385 172.901  1.00  0.00    -0.196 OA
BRANCH  35  38
HETATM   38  O   UNL     1     179.583 175.707 172.035  1.00  0.00    -0.074 OA
BRANCH  38  39
HETATM   39  O   UNL     1     180.680 175.780 172.759  1.00  0.00    -0.018 OA
HETATM   40 NA   UNL     1     180.703 177.678 173.497  1.00  0.00     0.000 Na
ENDBRANCH  38  39
ENDBRANCH  35  38
ENDBRANCH  34  35
ENDBRANCH  33  34
ENDBRANCH  31  33
ENDBRANCH  24  31
BRANCH  20  41
HETATM   41  C   UNL     1     176.070 172.855 169.136  1.00  0.00     0.014 C 
HETATM   42  C   UNL     1     175.578 171.886 170.235  1.00  0.00     0.015 C 
HETATM   43  C   UNL     1     175.763 172.188 167.789  1.00  0.00     0.015 C 
ENDBRANCH  20  41
ENDBRANCH   9  14
BRANCH  10  44
HETATM   44  O   UNL     1     180.487 178.334 170.984  1.00  0.00    -0.359 OA
HETATM   45  H   UNL     1     181.139 177.656 171.207  1.00  0.00     0.217 HD
ENDBRANCH  10  44
BRANCH   3  46
HETATM   46  C   UNL     1     182.214 182.638 166.663  1.00  0.00     0.012 C 
HETATM   47  C   UNL     1     181.396 183.941 166.785  1.00  0.00     0.015 C 
HETATM   48  C   UNL     1     183.496 182.979 165.884  1.00  0.00     0.015 C 
ENDBRANCH   3  46
BRANCH  13  49
HETATM   49  N   UNL     1     182.597 181.058 173.228  1.00  0.00    -0.397 N 
HETATM   50  H   UNL     1     183.575 180.870 173.458  1.00  0.00     0.158 HD
BRANCH  49  51
HETATM   51  C   UNL     1     181.902 182.038 174.042  1.00  0.00     0.136 C 
BRANCH  51  52
HETATM   52  C   UNL     1     182.662 183.367 174.076  1.00  0.00     0.192 C 
BRANCH  52  53
HETATM   53  S   UNL     1     184.262 183.199 174.933  1.00  0.00     0.295 S 
HETATM   54  O   UNL     1     184.210 182.225 176.123  1.00  0.00    -0.196 OA
HETATM   55  O   UNL     1     185.318 182.546 174.027  1.00  0.00    -0.196 OA
BRANCH  53  56
HETATM   56  O   UNL     1     184.991 184.638 175.538  1.00  0.00    -0.074 OA
BRANCH  56  57
HETATM   57  O   UNL     1     186.285 184.490 175.343  1.00  0.00    -0.018 OA
HETATM   58 NA   UNL     1     186.677 182.592 175.965  1.00  0.00     0.000 Na
ENDBRANCH  56  57
ENDBRANCH  53  56
ENDBRANCH  52  53
ENDBRANCH  51  52
ENDBRANCH  49  51
ENDBRANCH  13  49
BRANCH   2  59
HETATM   59  O   UNL     1     184.061 183.384 168.835  1.00  0.00     0.000 OA
HETATM   60  H   UNL     1     184.998 183.156 168.813  1.00  0.00     0.000 HD
BRANCH  59  61
HETATM   61  O   UNL     1     183.791 184.628 169.027  1.00  0.00    -0.177 OA
BRANCH  61  62
HETATM   62  C   UNL     1     183.779 185.249 170.101  1.00  0.00     0.153 C 
HETATM   63  C   UNL     1     184.964 185.740 170.891  1.00  0.00     0.088 C 
HETATM   64  C   UNL     1     184.320 185.967 172.248  1.00  0.00     0.028 C 
HETATM   65  C   UNL     1     182.890 186.362 171.913  1.00  0.00     0.125 C 
HETATM   66  N   UNL     1     182.620 185.604 170.715  1.00  0.00    -0.359 N 
BRANCH  66  67
HETATM   67  C   UNL     1     181.267 185.336 170.242  1.00  0.00     0.081 C 
HETATM   68  C   UNL     1     180.645 184.162 171.015  1.00  0.00     0.032 C 
BRANCH  67  69
HETATM   69  C   UNL     1     180.424 186.631 170.309  1.00  0.00     0.020 C 
HETATM   70  C   UNL     1     180.087 187.210 168.936  1.00  0.00     0.007 C 
ENDBRANCH  67  69
ENDBRANCH  66  67
ENDBRANCH  61  62
ENDBRANCH  59  61
ENDBRANCH   2  59
TORSDOF 23
ENDMDL
MODEL 6
REMARK VINA RESULT:    -7.780      5.137     11.334
REMARK INTER + INTRA:         -23.548
REMARK INTER:                 -17.309
REMARK INTRA:                  -6.239
REMARK UNBOUND:                -5.989
REMARK  23 active torsions:
REMARK  status: ('A' for Active; 'I' for Inactive)
REMARK    1  A    between atoms: C_3  and  O_7 
REMARK    2  A    between atoms: N_4  and  C_6 
REMARK    3  A    between atoms: C_6  and  C_9 
REMARK    4  A    between atoms: O_7  and  O_42 
REMARK    5  A    between atoms: C_12  and  O_42 
REMARK    6  A    between atoms: C_13  and  C_44 
REMARK    7  A    between atoms: C_19  and  C_21 
REMARK    8  A    between atoms: C_20  and  O_40 
REMARK    9  A    between atoms: C_26  and  O_37 
REMARK   10  A    between atoms: C_27  and  C_33 
REMARK   11  A    between atoms: C_28  and  O_32 
REMARK   12  A    between atoms: C_38  and  N_47 
REMARK   13  A    between atoms: C_43  and  N_48 
REMARK   14  A    between atoms: N_47  and  C_50 
REMARK   15  A    between atoms: N_48  and  C_65 
REMARK   16  A    between atoms: C_50  and  C_51 
REMARK   17  A    between atoms: C_51  and  S_52 
REMARK   18  A    between atoms: S_52  and  O_53 
REMARK   19  A    between atoms: O_53  and  O_56 
REMARK   20  A    between atoms: O_59  and  O_62 
REMARK   21  A    between atoms: O_62  and  S_63 
REMARK   22  A    between atoms: S_63  and  C_64 
REMARK   23  A    between atoms: C_64  and  C_65 
ROOT
HETATM    1  C   UNL     1     186.058 187.331 170.382  1.00  0.00     0.196 C 
HETATM    2  C   UNL     1     185.565 188.586 169.779  1.00  0.00     0.037 C 
HETATM    3  C   UNL     1     184.325 188.665 169.210  1.00  0.00    -0.028 C 
HETATM    4  C   UNL     1     183.448 187.412 169.185  1.00  0.00    -0.014 A 
HETATM    5  C   UNL     1     183.848 186.187 169.799  1.00  0.00     0.024 A 
HETATM    6  C   UNL     1     185.157 186.162 170.580  1.00  0.00     0.044 C 
HETATM    7  C   UNL     1     182.194 187.456 168.539  1.00  0.00     0.020 A 
HETATM    8  C   UNL     1     181.324 186.370 168.480  1.00  0.00    -0.047 A 
HETATM    9  C   UNL     1     181.714 185.134 169.036  1.00  0.00     0.017 A 
HETATM   10  C   UNL     1     182.991 185.042 169.662  1.00  0.00     0.089 A 
HETATM   11  C   UNL     1     179.966 186.604 167.854  1.00  0.00     0.049 C 
HETATM   12  O   UNL     1     187.221 187.311 170.747  1.00  0.00    -0.287 OA
HETATM   13  C   UNL     1     185.439 185.186 171.511  1.00  0.00     0.099 C 
ENDROOT
BRANCH   9  14
HETATM   14  C   UNL     1     180.780 183.942 169.034  1.00  0.00     0.017 C 
HETATM   15  C   UNL     1     179.981 183.660 170.167  1.00  0.00    -0.047 C 
HETATM   16  C   UNL     1     179.215 182.496 170.202  1.00  0.00     0.020 C 
HETATM   17  C   UNL     1     179.904 184.550 171.391  1.00  0.00     0.049 C 
HETATM   18  C   UNL     1     179.123 181.598 169.117  1.00  0.00    -0.012 C 
HETATM   19  C   UNL     1     179.825 181.935 167.926  1.00  0.00     0.025 C 
HETATM   20  C   UNL     1     178.344 180.277 169.258  1.00  0.00    -0.006 C 
HETATM   21  C   UNL     1     180.716 183.062 167.930  1.00  0.00     0.089 C 
HETATM   22  C   UNL     1     179.632 181.045 166.733  1.00  0.00     0.046 C 
HETATM   23  C   UNL     1     179.199 179.661 167.000  1.00  0.00     0.217 C 
HETATM   24  C   UNL     1     179.649 181.434 165.422  1.00  0.00     0.099 C 
HETATM   25  C   UNL     1     178.473 179.343 168.247  1.00  0.00     0.124 C 
HETATM   26  O   UNL     1     179.264 178.810 166.122  1.00  0.00    -0.284 OA
BRANCH  21  27
HETATM   27  O   UNL     1     181.606 183.262 166.932  1.00  0.00    -0.359 OA
HETATM   28  H   UNL     1     182.483 182.860 166.893  1.00  0.00     0.217 HD
ENDBRANCH  21  27
BRANCH  25  29
HETATM   29  O   UNL     1     177.935 178.097 168.229  1.00  0.00    -0.356 OA
HETATM   30  H   UNL     1     177.350 177.668 167.612  1.00  0.00     0.218 HD
ENDBRANCH  25  29
BRANCH  24  31
HETATM   31  N   UNL     1     179.717 182.788 164.984  1.00  0.00    -0.397 N 
HETATM   32  H   UNL     1     180.450 183.399 165.356  1.00  0.00     0.158 HD
BRANCH  31  33
HETATM   33  C   UNL     1     178.658 183.433 164.230  1.00  0.00     0.136 C 
BRANCH  33  34
HETATM   34  C   UNL     1     179.024 184.841 163.746  1.00  0.00     0.192 C 
BRANCH  34  35
HETATM   35  S   UNL     1     180.817 185.140 163.619  1.00  0.00     0.295 S 
HETATM   36  O   UNL     1     181.513 184.072 162.760  1.00  0.00    -0.196 OA
HETATM   37  O   UNL     1     181.133 186.401 162.799  1.00  0.00    -0.196 OA
BRANCH  35  38
HETATM   38  O   UNL     1     181.782 185.276 165.037  1.00  0.00    -0.074 OA
BRANCH  38  39
HETATM   39  O   UNL     1     182.923 184.692 164.733  1.00  0.00    -0.018 OA
HETATM   40 NA   UNL     1     183.460 185.482 162.934  1.00  0.00     0.000 Na
ENDBRANCH  38  39
ENDBRANCH  35  38
ENDBRANCH  34  35
ENDBRANCH  33  34
ENDBRANCH  31  33
ENDBRANCH  24  31
BRANCH  20  41
HETATM   41  C   UNL     1     177.536 180.081 170.581  1.00  0.00     0.014 C 
HETATM   42  C   UNL     1     176.085 179.675 170.238  1.00  0.00     0.015 C 
HETATM   43  C   UNL     1     178.021 179.109 171.665  1.00  0.00     0.015 C 
ENDBRANCH  20  41
ENDBRANCH   9  14
BRANCH  10  44
HETATM   44  O   UNL     1     183.416 183.835 170.097  1.00  0.00    -0.359 OA
HETATM   45  H   UNL     1     184.149 183.327 169.727  1.00  0.00     0.217 HD
ENDBRANCH  10  44
BRANCH   3  46
HETATM   46  C   UNL     1     183.744 189.988 168.611  1.00  0.00     0.012 C 
HETATM   47  C   UNL     1     183.602 189.848 167.080  1.00  0.00     0.015 C 
HETATM   48  C   UNL     1     182.411 190.545 169.141  1.00  0.00     0.015 C 
ENDBRANCH   3  46
BRANCH  13  49
HETATM   49  N   UNL     1     186.577 185.140 172.379  1.00  0.00    -0.397 N 
HETATM   50  H   UNL     1     187.174 185.948 172.569  1.00  0.00     0.158 HD
BRANCH  49  51
HETATM   51  C   UNL     1     186.863 183.920 173.111  1.00  0.00     0.136 C 
BRANCH  51  52
HETATM   52  C   UNL     1     186.917 184.179 174.619  1.00  0.00     0.192 C 
BRANCH  52  53
HETATM   53  S   UNL     1     185.869 185.594 175.091  1.00  0.00     0.295 S 
HETATM   54  O   UNL     1     185.871 185.867 176.605  1.00  0.00    -0.196 OA
HETATM   55  O   UNL     1     186.418 186.913 174.523  1.00  0.00    -0.196 OA
BRANCH  53  56
HETATM   56  O   UNL     1     184.211 185.539 174.627  1.00  0.00    -0.074 OA
BRANCH  56  57
HETATM   57  O   UNL     1     183.802 184.321 174.918  1.00  0.00    -0.018 OA
HETATM   58 NA   UNL     1     184.650 183.918 176.724  1.00  0.00     0.000 Na
ENDBRANCH  56  57
ENDBRANCH  53  56
ENDBRANCH  52  53
ENDBRANCH  51  52
ENDBRANCH  49  51
ENDBRANCH  13  49
BRANCH   2  59
HETATM   59  O   UNL     1     186.394 189.663 169.858  1.00  0.00     0.000 OA
HETATM   60  H   UNL     1     186.074 190.407 170.381  1.00  0.00     0.000 HD
BRANCH  59  61
HETATM   61  O   UNL     1     187.361 189.923 169.047  1.00  0.00    -0.177 OA
BRANCH  61  62
HETATM   62  C   UNL     1     187.293 190.189 167.838  1.00  0.00     0.153 C 
HETATM   63  C   UNL     1     187.091 191.540 167.205  1.00  0.00     0.088 C 
HETATM   64  C   UNL     1     186.638 191.132 165.813  1.00  0.00     0.028 C 
HETATM   65  C   UNL     1     187.362 189.817 165.564  1.00  0.00     0.125 C 
HETATM   66  N   UNL     1     187.427 189.232 166.881  1.00  0.00    -0.359 N 
BRANCH  66  67
HETATM   67  C   UNL     1     187.666 187.810 167.100  1.00  0.00     0.081 C 
HETATM   68  C   UNL     1     186.496 186.974 166.557  1.00  0.00     0.032 C 
BRANCH  67  69
HETATM   69  C   UNL     1     189.034 187.413 166.501  1.00  0.00     0.020 C 
HETATM   70  C   UNL     1     189.607 186.126 167.091  1.00  0.00     0.007 C 
ENDBRANCH  67  69
ENDBRANCH  66  67
ENDBRANCH  61  62
ENDBRANCH  59  61
ENDBRANCH   2  59
TORSDOF 23
ENDMDL
MODEL 7
REMARK VINA RESULT:    -7.762      4.653     11.412
REMARK INTER + INTRA:         -23.508
REMARK INTER:                 -16.762
REMARK INTRA:                  -6.746
REMARK UNBOUND:                -5.989
REMARK  23 active torsions:
REMARK  status: ('A' for Active; 'I' for Inactive)
REMARK    1  A    between atoms: C_3  and  O_7 
REMARK    2  A    between atoms: N_4  and  C_6 
REMARK    3  A    between atoms: C_6  and  C_9 
REMARK    4  A    between atoms: O_7  and  O_42 
REMARK    5  A    between atoms: C_12  and  O_42 
REMARK    6  A    between atoms: C_13  and  C_44 
REMARK    7  A    between atoms: C_19  and  C_21 
REMARK    8  A    between atoms: C_20  and  O_40 
REMARK    9  A    between atoms: C_26  and  O_37 
REMARK   10  A    between atoms: C_27  and  C_33 
REMARK   11  A    between atoms: C_28  and  O_32 
REMARK   12  A    between atoms: C_38  and  N_47 
REMARK   13  A    between atoms: C_43  and  N_48 
REMARK   14  A    between atoms: N_47  and  C_50 
REMARK   15  A    between atoms: N_48  and  C_65 
REMARK   16  A    between atoms: C_50  and  C_51 
REMARK   17  A    between atoms: C_51  and  S_52 
REMARK   18  A    between atoms: S_52  and  O_53 
REMARK   19  A    between atoms: O_53  and  O_56 
REMARK   20  A    between atoms: O_59  and  O_62 
REMARK   21  A    between atoms: O_62  and  S_63 
REMARK   22  A    between atoms: S_63  and  C_64 
REMARK   23  A    between atoms: C_64  and  C_65 
ROOT
HETATM    1  C   UNL     1     185.177 187.436 167.554  1.00  0.00     0.196 C 
HETATM    2  C   UNL     1     184.279 188.607 167.505  1.00  0.00     0.037 C 
HETATM    3  C   UNL     1     182.929 188.480 167.679  1.00  0.00    -0.028 C 
HETATM    4  C   UNL     1     182.348 187.084 167.907  1.00  0.00    -0.014 A 
HETATM    5  C   UNL     1     183.171 185.922 168.019  1.00  0.00     0.024 A 
HETATM    6  C   UNL     1     184.684 186.102 167.997  1.00  0.00     0.044 C 
HETATM    7  C   UNL     1     180.950 186.924 168.018  1.00  0.00     0.020 A 
HETATM    8  C   UNL     1     180.334 185.694 168.241  1.00  0.00    -0.047 A 
HETATM    9  C   UNL     1     181.119 184.525 168.308  1.00  0.00     0.017 A 
HETATM   10  C   UNL     1     182.532 184.643 168.161  1.00  0.00     0.089 A 
HETATM   11  C   UNL     1     178.836 185.699 168.454  1.00  0.00     0.049 C 
HETATM   12  O   UNL     1     186.346 187.620 167.258  1.00  0.00    -0.287 OA
HETATM   13  C   UNL     1     185.546 185.140 168.477  1.00  0.00     0.099 C 
ENDROOT
BRANCH   9  14
HETATM   14  C   UNL     1     180.495 183.175 168.596  1.00  0.00     0.017 C 
HETATM   15  C   UNL     1     180.096 182.331 167.533  1.00  0.00    -0.047 C 
HETATM   16  C   UNL     1     179.415 181.146 167.807  1.00  0.00     0.020 C 
HETATM   17  C   UNL     1     180.348 182.636 166.070  1.00  0.00     0.049 C 
HETATM   18  C   UNL     1     179.163 180.685 169.118  1.00  0.00    -0.012 C 
HETATM   19  C   UNL     1     179.669 181.464 170.196  1.00  0.00     0.025 C 
HETATM   20  C   UNL     1     178.314 179.423 169.353  1.00  0.00    -0.006 C 
HETATM   21  C   UNL     1     180.255 182.747 169.922  1.00  0.00     0.089 C 
HETATM   22  C   UNL     1     179.507 180.915 171.583  1.00  0.00     0.046 C 
HETATM   23  C   UNL     1     178.421 179.939 171.788  1.00  0.00     0.217 C 
HETATM   24  C   UNL     1     180.368 181.095 172.630  1.00  0.00     0.099 C 
HETATM   25  C   UNL     1     177.916 179.146 170.648  1.00  0.00     0.124 C 
HETATM   26  O   UNL     1     178.061 179.639 172.919  1.00  0.00    -0.284 OA
BRANCH  21  27
HETATM   27  O   UNL     1     180.495 183.639 170.909  1.00  0.00    -0.359 OA
HETATM   28  H   UNL     1     181.350 184.057 171.071  1.00  0.00     0.217 HD
ENDBRANCH  21  27
BRANCH  25  29
HETATM   29  O   UNL     1     177.102 178.133 171.041  1.00  0.00    -0.356 OA
HETATM   30  H   UNL     1     177.147 177.193 170.899  1.00  0.00     0.218 HD
ENDBRANCH  25  29
BRANCH  24  31
HETATM   31  N   UNL     1     181.640 181.726 172.527  1.00  0.00    -0.397 N 
HETATM   32  H   UNL     1     181.757 182.520 171.890  1.00  0.00     0.158 HD
BRANCH  31  33
HETATM   33  C   UNL     1     182.856 181.159 173.081  1.00  0.00     0.136 C 
BRANCH  33  34
HETATM   34  C   UNL     1     183.851 182.216 173.578  1.00  0.00     0.192 C 
BRANCH  34  35
HETATM   35  S   UNL     1     183.639 183.854 172.810  1.00  0.00     0.295 S 
HETATM   36  O   UNL     1     183.549 183.758 171.279  1.00  0.00    -0.196 OA
HETATM   37  O   UNL     1     182.266 184.465 173.129  1.00  0.00    -0.196 OA
BRANCH  35  38
HETATM   38  O   UNL     1     184.770 185.115 173.115  1.00  0.00    -0.074 OA
BRANCH  38  39
HETATM   39  O   UNL     1     184.076 186.060 173.714  1.00  0.00    -0.018 OA
HETATM   40 NA   UNL     1     183.197 185.144 175.307  1.00  0.00     0.000 Na
ENDBRANCH  38  39
ENDBRANCH  35  38
ENDBRANCH  34  35
ENDBRANCH  33  34
ENDBRANCH  31  33
ENDBRANCH  24  31
BRANCH  20  41
HETATM   41  C   UNL     1     177.909 178.606 168.083  1.00  0.00     0.014 C 
HETATM   42  C   UNL     1     178.853 177.392 167.934  1.00  0.00     0.015 C 
HETATM   43  C   UNL     1     176.479 178.077 167.908  1.00  0.00     0.015 C 
ENDBRANCH  20  41
ENDBRANCH   9  14
BRANCH  10  44
HETATM   44  O   UNL     1     183.276 183.516 168.113  1.00  0.00    -0.359 OA
HETATM   45  H   UNL     1     183.095 182.743 167.562  1.00  0.00     0.217 HD
ENDBRANCH  10  44
BRANCH   3  46
HETATM   46  C   UNL     1     181.951 189.700 167.688  1.00  0.00     0.012 C 
HETATM   47  C   UNL     1     180.854 189.496 166.622  1.00  0.00     0.015 C 
HETATM   48  C   UNL     1     181.245 190.102 168.995  1.00  0.00     0.015 C 
ENDBRANCH   3  46
BRANCH  13  49
HETATM   49  N   UNL     1     186.967 185.259 168.612  1.00  0.00    -0.397 N 
HETATM   50  H   UNL     1     187.491 186.094 168.340  1.00  0.00     0.158 HD
BRANCH  49  51
HETATM   51  C   UNL     1     187.711 184.192 169.254  1.00  0.00     0.136 C 
BRANCH  51  52
HETATM   52  C   UNL     1     187.486 184.193 170.768  1.00  0.00     0.192 C 
BRANCH  52  53
HETATM   53  S   UNL     1     187.950 185.791 171.511  1.00  0.00     0.295 S 
HETATM   54  O   UNL     1     189.224 186.395 170.896  1.00  0.00    -0.196 OA
HETATM   55  O   UNL     1     186.901 186.874 171.213  1.00  0.00    -0.196 OA
BRANCH  53  56
HETATM   56  O   UNL     1     188.189 185.830 173.217  1.00  0.00    -0.074 OA
BRANCH  56  57
HETATM   57  O   UNL     1     187.825 187.037 173.599  1.00  0.00    -0.018 OA
HETATM   58 NA   UNL     1     188.570 188.271 172.162  1.00  0.00     0.000 Na
ENDBRANCH  56  57
ENDBRANCH  53  56
ENDBRANCH  52  53
ENDBRANCH  51  52
ENDBRANCH  49  51
ENDBRANCH  13  49
BRANCH   2  59
HETATM   59  O   UNL     1     184.872 189.819 167.317  1.00  0.00     0.000 OA
HETATM   60  H   UNL     1     185.040 190.336 168.114  1.00  0.00     0.000 HD
BRANCH  59  61
HETATM   61  O   UNL     1     184.905 190.472 166.208  1.00  0.00    -0.177 OA
BRANCH  61  62
HETATM   62  C   UNL     1     185.781 190.444 165.331  1.00  0.00     0.153 C 
HETATM   63  C   UNL     1     187.232 190.820 165.472  1.00  0.00     0.088 C 
HETATM   64  C   UNL     1     187.613 191.018 164.014  1.00  0.00     0.028 C 
HETATM   65  C   UNL     1     186.724 190.035 163.267  1.00  0.00     0.125 C 
HETATM   66  N   UNL     1     185.522 190.018 164.066  1.00  0.00    -0.359 N 
BRANCH  66  67
HETATM   67  C   UNL     1     184.243 189.544 163.552  1.00  0.00     0.081 C 
HETATM   68  C   UNL     1     184.066 189.947 162.080  1.00  0.00     0.032 C 
BRANCH  67  69
HETATM   69  C   UNL     1     184.117 188.022 163.791  1.00  0.00     0.020 C 
HETATM   70  C   UNL     1     182.681 187.560 164.036  1.00  0.00     0.007 C 
ENDBRANCH  67  69
ENDBRANCH  66  67
ENDBRANCH  61  62
ENDBRANCH  59  61
ENDBRANCH   2  59
TORSDOF 23
ENDMDL
MODEL 8
REMARK VINA RESULT:    -7.647      4.479      6.899
REMARK INTER + INTRA:         -23.249
REMARK INTER:                 -16.998
REMARK INTRA:                  -6.251
REMARK UNBOUND:                -5.989
REMARK  23 active torsions:
REMARK  status: ('A' for Active; 'I' for Inactive)
REMARK    1  A    between atoms: C_3  and  O_7 
REMARK    2  A    between atoms: N_4  and  C_6 
REMARK    3  A    between atoms: C_6  and  C_9 
REMARK    4  A    between atoms: O_7  and  O_42 
REMARK    5  A    between atoms: C_12  and  O_42 
REMARK    6  A    between atoms: C_13  and  C_44 
REMARK    7  A    between atoms: C_19  and  C_21 
REMARK    8  A    between atoms: C_20  and  O_40 
REMARK    9  A    between atoms: C_26  and  O_37 
REMARK   10  A    between atoms: C_27  and  C_33 
REMARK   11  A    between atoms: C_28  and  O_32 
REMARK   12  A    between atoms: C_38  and  N_47 
REMARK   13  A    between atoms: C_43  and  N_48 
REMARK   14  A    between atoms: N_47  and  C_50 
REMARK   15  A    between atoms: N_48  and  C_65 
REMARK   16  A    between atoms: C_50  and  C_51 
REMARK   17  A    between atoms: C_51  and  S_52 
REMARK   18  A    between atoms: S_52  and  O_53 
REMARK   19  A    between atoms: O_53  and  O_56 
REMARK   20  A    between atoms: O_59  and  O_62 
REMARK   21  A    between atoms: O_62  and  S_63 
REMARK   22  A    between atoms: S_63  and  C_64 
REMARK   23  A    between atoms: C_64  and  C_65 
ROOT
HETATM    1  C   UNL     1     180.197 180.127 171.389  1.00  0.00     0.196 C 
HETATM    2  C   UNL     1     179.426 179.352 170.396  1.00  0.00     0.037 C 
HETATM    3  C   UNL     1     179.455 179.664 169.066  1.00  0.00    -0.028 C 
HETATM    4  C   UNL     1     180.293 180.861 168.613  1.00  0.00    -0.014 A 
HETATM    5  C   UNL     1     181.102 181.614 169.517  1.00  0.00     0.024 A 
HETATM    6  C   UNL     1     181.196 181.148 170.965  1.00  0.00     0.044 C 
HETATM    7  C   UNL     1     180.279 181.242 167.254  1.00  0.00     0.020 A 
HETATM    8  C   UNL     1     181.022 182.307 166.749  1.00  0.00    -0.047 A 
HETATM    9  C   UNL     1     181.791 183.098 167.627  1.00  0.00     0.017 A 
HETATM   10  C   UNL     1     181.798 182.765 169.014  1.00  0.00     0.089 A 
HETATM   11  C   UNL     1     180.995 182.522 165.251  1.00  0.00     0.049 C 
HETATM   12  O   UNL     1     180.011 179.864 172.564  1.00  0.00    -0.287 OA
HETATM   13  C   UNL     1     182.217 181.545 171.800  1.00  0.00     0.099 C 
ENDROOT
BRANCH   9  14
HETATM   14  C   UNL     1     182.649 184.234 167.114  1.00  0.00     0.017 C 
HETATM   15  C   UNL     1     182.101 185.530 166.960  1.00  0.00    -0.047 C 
HETATM   16  C   UNL     1     182.864 186.540 166.375  1.00  0.00     0.020 C 
HETATM   17  C   UNL     1     180.697 185.910 167.384  1.00  0.00     0.049 C 
HETATM   18  C   UNL     1     184.211 186.367 165.989  1.00  0.00    -0.012 C 
HETATM   19  C   UNL     1     184.811 185.103 166.253  1.00  0.00     0.025 C 
HETATM   20  C   UNL     1     184.965 187.489 165.252  1.00  0.00    -0.006 C 
HETATM   21  C   UNL     1     183.995 184.024 166.734  1.00  0.00     0.089 C 
HETATM   22  C   UNL     1     186.275 184.956 165.955  1.00  0.00     0.046 C 
HETATM   23  C   UNL     1     186.846 185.882 164.958  1.00  0.00     0.217 C 
HETATM   24  C   UNL     1     187.165 184.171 166.635  1.00  0.00     0.099 C 
HETATM   25  C   UNL     1     186.198 187.186 164.707  1.00  0.00     0.124 C 
HETATM   26  O   UNL     1     187.950 185.669 164.475  1.00  0.00    -0.284 OA
BRANCH  21  27
HETATM   27  O   UNL     1     184.442 182.748 166.737  1.00  0.00    -0.359 OA
HETATM   28  H   UNL     1     184.077 182.039 166.193  1.00  0.00     0.217 HD
ENDBRANCH  21  27
BRANCH  25  29
HETATM   29  O   UNL     1     186.971 188.011 163.955  1.00  0.00    -0.356 OA
HETATM   30  H   UNL     1     187.497 188.771 164.187  1.00  0.00     0.218 HD
ENDBRANCH  25  29
BRANCH  24  31
HETATM   31  N   UNL     1     186.863 183.468 167.836  1.00  0.00    -0.397 N 
HETATM   32  H   UNL     1     185.893 183.207 168.035  1.00  0.00     0.158 HD
BRANCH  31  33
HETATM   33  C   UNL     1     187.810 183.312 168.924  1.00  0.00     0.136 C 
BRANCH  33  34
HETATM   34  C   UNL     1     187.490 184.187 170.143  1.00  0.00     0.192 C 
BRANCH  34  35
HETATM   35  S   UNL     1     188.210 185.859 170.066  1.00  0.00     0.295 S 
HETATM   36  O   UNL     1     189.725 185.838 170.321  1.00  0.00    -0.196 OA
HETATM   37  O   UNL     1     188.178 186.433 168.641  1.00  0.00    -0.196 OA
BRANCH  35  38
HETATM   38  O   UNL     1     187.602 187.119 171.068  1.00  0.00    -0.074 OA
BRANCH  38  39
HETATM   39  O   UNL     1     186.709 187.744 170.329  1.00  0.00    -0.018 OA
HETATM   40 NA   UNL     1     187.462 189.618 170.062  1.00  0.00     0.000 Na
ENDBRANCH  38  39
ENDBRANCH  35  38
ENDBRANCH  34  35
ENDBRANCH  33  34
ENDBRANCH  31  33
ENDBRANCH  24  31
BRANCH  20  41
HETATM   41  C   UNL     1     184.222 188.858 165.120  1.00  0.00     0.014 C 
HETATM   42  C   UNL     1     184.877 189.888 166.068  1.00  0.00     0.015 C 
HETATM   43  C   UNL     1     184.074 189.546 163.756  1.00  0.00     0.015 C 
ENDBRANCH  20  41
ENDBRANCH   9  14
BRANCH  10  44
HETATM   44  O   UNL     1     182.443 183.584 169.874  1.00  0.00    -0.359 OA
HETATM   45  H   UNL     1     182.293 183.633 170.827  1.00  0.00     0.217 HD
ENDBRANCH  10  44
BRANCH   3  46
HETATM   46  C   UNL     1     178.697 178.835 167.978  1.00  0.00     0.012 C 
HETATM   47  C   UNL     1     179.500 177.562 167.640  1.00  0.00     0.015 C 
HETATM   48  C   UNL     1     177.242 178.401 168.228  1.00  0.00     0.015 C 
ENDBRANCH   3  46
BRANCH  13  49
HETATM   49  N   UNL     1     182.463 181.073 173.130  1.00  0.00    -0.397 N 
HETATM   50  H   UNL     1     182.299 180.108 173.425  1.00  0.00     0.158 HD
BRANCH  49  51
HETATM   51  C   UNL     1     183.064 181.968 174.101  1.00  0.00     0.136 C 
BRANCH  51  52
HETATM   52  C   UNL     1     182.603 183.412 173.882  1.00  0.00     0.192 C 
BRANCH  52  53
HETATM   53  S   UNL     1     183.984 184.481 173.362  1.00  0.00     0.295 S 
HETATM   54  O   UNL     1     183.745 185.969 173.674  1.00  0.00    -0.196 OA
HETATM   55  O   UNL     1     185.259 184.182 174.166  1.00  0.00    -0.196 OA
BRANCH  53  56
HETATM   56  O   UNL     1     184.451 184.419 171.705  1.00  0.00    -0.074 OA
BRANCH  56  57
HETATM   57  O   UNL     1     184.206 185.620 171.222  1.00  0.00    -0.018 OA
HETATM   58 NA   UNL     1     185.495 186.841 172.217  1.00  0.00     0.000 Na
ENDBRANCH  56  57
ENDBRANCH  53  56
ENDBRANCH  52  53
ENDBRANCH  51  52
ENDBRANCH  49  51
ENDBRANCH  13  49
BRANCH   2  59
HETATM   59  O   UNL     1     178.720 178.289 170.874  1.00  0.00     0.000 OA
HETATM   60  H   UNL     1     177.955 178.501 171.422  1.00  0.00     0.000 HD
BRANCH  59  61
HETATM   61  O   UNL     1     179.156 177.080 170.962  1.00  0.00    -0.177 OA
BRANCH  61  62
HETATM   62  C   UNL     1     179.765 176.556 171.907  1.00  0.00     0.153 C 
HETATM   63  C   UNL     1     179.183 176.011 173.184  1.00  0.00     0.088 C 
HETATM   64  C   UNL     1     180.424 175.968 174.061  1.00  0.00     0.028 C 
HETATM   65  C   UNL     1     181.556 175.699 173.079  1.00  0.00     0.125 C 
HETATM   66  N   UNL     1     181.113 176.378 171.886  1.00  0.00    -0.359 N 
BRANCH  66  67
HETATM   67  C   UNL     1     182.022 176.748 170.807  1.00  0.00     0.081 C 
HETATM   68  C   UNL     1     183.020 177.815 171.281  1.00  0.00     0.032 C 
BRANCH  67  69
HETATM   69  C   UNL     1     182.702 175.480 170.241  1.00  0.00     0.020 C 
HETATM   70  C   UNL     1     181.757 174.590 169.434  1.00  0.00     0.007 C 
ENDBRANCH  67  69
ENDBRANCH  66  67
ENDBRANCH  61  62
ENDBRANCH  59  61
ENDBRANCH   2  59
TORSDOF 23
ENDMDL
MODEL 9
REMARK VINA RESULT:    -7.645      5.422      9.522
REMARK INTER + INTRA:         -23.242
REMARK INTER:                 -17.071
REMARK INTRA:                  -6.172
REMARK UNBOUND:                -5.989
REMARK  23 active torsions:
REMARK  status: ('A' for Active; 'I' for Inactive)
REMARK    1  A    between atoms: C_3  and  O_7 
REMARK    2  A    between atoms: N_4  and  C_6 
REMARK    3  A    between atoms: C_6  and  C_9 
REMARK    4  A    between atoms: O_7  and  O_42 
REMARK    5  A    between atoms: C_12  and  O_42 
REMARK    6  A    between atoms: C_13  and  C_44 
REMARK    7  A    between atoms: C_19  and  C_21 
REMARK    8  A    between atoms: C_20  and  O_40 
REMARK    9  A    between atoms: C_26  and  O_37 
REMARK   10  A    between atoms: C_27  and  C_33 
REMARK   11  A    between atoms: C_28  and  O_32 
REMARK   12  A    between atoms: C_38  and  N_47 
REMARK   13  A    between atoms: C_43  and  N_48 
REMARK   14  A    between atoms: N_47  and  C_50 
REMARK   15  A    between atoms: N_48  and  C_65 
REMARK   16  A    between atoms: C_50  and  C_51 
REMARK   17  A    between atoms: C_51  and  S_52 
REMARK   18  A    between atoms: S_52  and  O_53 
REMARK   19  A    between atoms: O_53  and  O_56 
REMARK   20  A    between atoms: O_59  and  O_62 
REMARK   21  A    between atoms: O_62  and  S_63 
REMARK   22  A    between atoms: S_63  and  C_64 
REMARK   23  A    between atoms: C_64  and  C_65 
ROOT
HETATM    1  C   UNL     1     174.235 172.807 171.482  1.00  0.00     0.196 C 
HETATM    2  C   UNL     1     173.516 173.142 170.236  1.00  0.00     0.037 C 
HETATM    3  C   UNL     1     173.855 174.233 169.486  1.00  0.00    -0.028 C 
HETATM    4  C   UNL     1     174.992 175.132 169.973  1.00  0.00    -0.014 A 
HETATM    5  C   UNL     1     175.759 174.830 171.140  1.00  0.00     0.024 A 
HETATM    6  C   UNL     1     175.484 173.520 171.868  1.00  0.00     0.044 C 
HETATM    7  C   UNL     1     175.309 176.302 169.251  1.00  0.00     0.020 A 
HETATM    8  C   UNL     1     176.338 177.170 169.611  1.00  0.00    -0.047 A 
HETATM    9  C   UNL     1     177.079 176.923 170.785  1.00  0.00     0.017 A 
HETATM   10  C   UNL     1     176.760 175.770 171.561  1.00  0.00     0.089 A 
HETATM   11  C   UNL     1     176.634 178.320 168.673  1.00  0.00     0.049 C 
HETATM   12  O   UNL     1     173.783 171.897 172.155  1.00  0.00    -0.287 OA
HETATM   13  C   UNL     1     176.393 172.957 172.737  1.00  0.00     0.099 C 
ENDROOT
BRANCH   9  14
HETATM   14  C   UNL     1     178.235 177.814 171.187  1.00  0.00     0.017 C 
HETATM   15  C   UNL     1     178.039 178.862 172.117  1.00  0.00    -0.047 C 
HETATM   16  C   UNL     1     179.078 179.750 172.390  1.00  0.00     0.020 C 
HETATM   17  C   UNL     1     176.737 179.108 172.853  1.00  0.00     0.049 C 
HETATM   18  C   UNL     1     180.372 179.618 171.841  1.00  0.00    -0.012 C 
HETATM   19  C   UNL     1     180.616 178.496 171.000  1.00  0.00     0.025 C 
HETATM   20  C   UNL     1     181.445 180.692 172.098  1.00  0.00    -0.006 C 
HETATM   21  C   UNL     1     179.518 177.655 170.614  1.00  0.00     0.089 C 
HETATM   22  C   UNL     1     182.021 178.288 170.514  1.00  0.00     0.046 C 
HETATM   23  C   UNL     1     182.893 179.476 170.477  1.00  0.00     0.217 C 
HETATM   24  C   UNL     1     182.621 177.084 170.266  1.00  0.00     0.099 C 
HETATM   25  C   UNL     1     182.612 180.625 171.362  1.00  0.00     0.124 C 
HETATM   26  O   UNL     1     183.953 179.448 169.865  1.00  0.00    -0.284 OA
BRANCH  21  27
HETATM   27  O   UNL     1     179.635 176.755 169.612  1.00  0.00    -0.359 OA
HETATM   28  H   UNL     1     180.475 176.456 169.242  1.00  0.00     0.217 HD
ENDBRANCH  21  27
BRANCH  25  29
HETATM   29  O   UNL     1     183.632 181.521 171.387  1.00  0.00    -0.356 OA
HETATM   30  H   UNL     1     183.905 182.188 170.763  1.00  0.00     0.218 HD
ENDBRANCH  25  29
BRANCH  24  31
HETATM   31  N   UNL     1     182.043 175.819 170.568  1.00  0.00    -0.397 N 
HETATM   32  H   UNL     1     181.052 175.767 170.820  1.00  0.00     0.158 HD
BRANCH  31  33
HETATM   33  C   UNL     1     182.829 174.619 170.788  1.00  0.00     0.136 C 
BRANCH  33  34
HETATM   34  C   UNL     1     181.981 173.344 170.891  1.00  0.00     0.192 C 
BRANCH  34  35
HETATM   35  S   UNL     1     180.301 173.620 171.540  1.00  0.00     0.295 S 
HETATM   36  O   UNL     1     179.874 172.507 172.510  1.00  0.00    -0.196 OA
HETATM   37  O   UNL     1     180.240 174.838 172.475  1.00  0.00    -0.196 OA
BRANCH  35  38
HETATM   38  O   UNL     1     178.971 173.816 170.466  1.00  0.00    -0.074 OA
BRANCH  38  39
HETATM   39  O   UNL     1     179.513 174.078 169.294  1.00  0.00    -0.018 OA
HETATM   40 NA   UNL     1     179.221 172.393 168.188  1.00  0.00     0.000 Na
ENDBRANCH  38  39
ENDBRANCH  35  38
ENDBRANCH  34  35
ENDBRANCH  33  34
ENDBRANCH  31  33
ENDBRANCH  24  31
BRANCH  20  41
HETATM   41  C   UNL     1     181.077 181.815 173.122  1.00  0.00     0.014 C 
HETATM   42  C   UNL     1     182.265 182.037 174.085  1.00  0.00     0.015 C 
HETATM   43  C   UNL     1     180.632 183.203 172.643  1.00  0.00     0.015 C 
ENDBRANCH  20  41
ENDBRANCH   9  14
BRANCH  10  44
HETATM   44  O   UNL     1     177.391 175.589 172.743  1.00  0.00    -0.359 OA
HETATM   45  H   UNL     1     177.678 174.741 173.105  1.00  0.00     0.217 HD
ENDBRANCH  10  44
BRANCH   3  46
HETATM   46  C   UNL     1     173.155 174.590 168.134  1.00  0.00     0.012 C 
HETATM   47  C   UNL     1     173.123 173.348 167.219  1.00  0.00     0.015 C 
HETATM   48  C   UNL     1     171.734 175.182 168.144  1.00  0.00     0.015 C 
ENDBRANCH   3  46
BRANCH  13  49
HETATM   49  N   UNL     1     176.285 171.679 173.374  1.00  0.00    -0.397 N 
HETATM   50  H   UNL     1     175.644 170.946 173.062  1.00  0.00     0.158 HD
BRANCH  49  51
HETATM   51  C   UNL     1     177.187 171.349 174.461  1.00  0.00     0.136 C 
BRANCH  51  52
HETATM   52  C   UNL     1     176.478 170.522 175.537  1.00  0.00     0.192 C 
BRANCH  52  53
HETATM   53  S   UNL     1     175.480 169.186 174.802  1.00  0.00     0.295 S 
HETATM   54  O   UNL     1     175.179 168.045 175.790  1.00  0.00    -0.196 OA
HETATM   55  O   UNL     1     174.070 169.676 174.434  1.00  0.00    -0.196 OA
BRANCH  53  56
HETATM   56  O   UNL     1     176.097 168.427 173.384  1.00  0.00    -0.074 OA
BRANCH  56  57
HETATM   57  O   UNL     1     175.417 168.944 172.381  1.00  0.00    -0.018 OA
HETATM   58 NA   UNL     1     174.772 167.332 171.319  1.00  0.00     0.000 Na
ENDBRANCH  56  57
ENDBRANCH  53  56
ENDBRANCH  52  53
ENDBRANCH  51  52
ENDBRANCH  49  51
ENDBRANCH  13  49
BRANCH   2  59
HETATM   59  O   UNL     1     172.528 172.283 169.857  1.00  0.00     0.000 OA
HETATM   60  H   UNL     1     172.747 171.675 169.141  1.00  0.00     0.000 HD
BRANCH  59  61
HETATM   61  O   UNL     1     171.272 172.435 170.099  1.00  0.00    -0.177 OA
BRANCH  61  62
HETATM   62  C   UNL     1     170.317 171.841 169.576  1.00  0.00     0.153 C 
HETATM   63  C   UNL     1     169.796 171.999 168.172  1.00  0.00     0.088 C 
HETATM   64  C   UNL     1     168.410 171.395 168.318  1.00  0.00     0.028 C 
HETATM   65  C   UNL     1     168.587 170.329 169.389  1.00  0.00     0.125 C 
HETATM   66  N   UNL     1     169.601 170.898 170.244  1.00  0.00    -0.359 N 
BRANCH  66  67
HETATM   67  C   UNL     1     169.821 170.446 171.612  1.00  0.00     0.081 C 
HETATM   68  C   UNL     1     168.545 170.614 172.452  1.00  0.00     0.032 C 
BRANCH  67  69
HETATM   69  C   UNL     1     170.363 168.998 171.601  1.00  0.00     0.020 C 
HETATM   70  C   UNL     1     171.880 168.913 171.764  1.00  0.00     0.007 C 
ENDBRANCH  67  69
ENDBRANCH  66  67
ENDBRANCH  61  62
ENDBRANCH  59  61
ENDBRANCH   2  59
TORSDOF 23
ENDMDL
MODEL 10
REMARK VINA RESULT:    -7.604      4.725     10.699
REMARK INTER + INTRA:         -23.151
REMARK INTER:                 -15.855
REMARK INTRA:                  -7.296
REMARK UNBOUND:                -5.989
REMARK  23 active torsions:
REMARK  status: ('A' for Active; 'I' for Inactive)
REMARK    1  A    between atoms: C_3  and  O_7 
REMARK    2  A    between atoms: N_4  and  C_6 
REMARK    3  A    between atoms: C_6  and  C_9 
REMARK    4  A    between atoms: O_7  and  O_42 
REMARK    5  A    between atoms: C_12  and  O_42 
REMARK    6  A    between atoms: C_13  and  C_44 
REMARK    7  A    between atoms: C_19  and  C_21 
REMARK    8  A    between atoms: C_20  and  O_40 
REMARK    9  A    between atoms: C_26  and  O_37 
REMARK   10  A    between atoms: C_27  and  C_33 
REMARK   11  A    between atoms: C_28  and  O_32 
REMARK   12  A    between atoms: C_38  and  N_47 
REMARK   13  A    between atoms: C_43  and  N_48 
REMARK   14  A    between atoms: N_47  and  C_50 
REMARK   15  A    between atoms: N_48  and  C_65 
REMARK   16  A    between atoms: C_50  and  C_51 
REMARK   17  A    between atoms: C_51  and  S_52 
REMARK   18  A    between atoms: S_52  and  O_53 
REMARK   19  A    between atoms: O_53  and  O_56 
REMARK   20  A    between atoms: O_59  and  O_62 
REMARK   21  A    between atoms: O_62  and  S_63 
REMARK   22  A    between atoms: S_63  and  C_64 
REMARK   23  A    between atoms: C_64  and  C_65 
ROOT
HETATM    1  C   UNL     1     183.600 188.481 169.823  1.00  0.00     0.196 C 
HETATM    2  C   UNL     1     184.868 188.234 170.539  1.00  0.00     0.037 C 
HETATM    3  C   UNL     1     185.142 187.023 171.110  1.00  0.00    -0.028 C 
HETATM    4  C   UNL     1     184.092 185.915 171.018  1.00  0.00    -0.014 A 
HETATM    5  C   UNL     1     182.873 186.076 170.293  1.00  0.00     0.024 A 
HETATM    6  C   UNL     1     182.657 187.369 169.516  1.00  0.00     0.044 C 
HETATM    7  C   UNL     1     184.327 184.682 171.662  1.00  0.00     0.020 A 
HETATM    8  C   UNL     1     183.435 183.612 171.618  1.00  0.00    -0.047 A 
HETATM    9  C   UNL     1     182.202 183.760 170.951  1.00  0.00     0.017 A 
HETATM   10  C   UNL     1     181.914 185.006 170.321  1.00  0.00     0.089 A 
HETATM   11  C   UNL     1     183.879 182.315 172.260  1.00  0.00     0.049 C 
HETATM   12  O   UNL     1     183.381 189.624 169.460  1.00  0.00    -0.287 OA
HETATM   13  C   UNL     1     181.734 187.471 168.499  1.00  0.00     0.099 C 
ENDROOT
BRANCH   9  14
HETATM   14  C   UNL     1     181.226 182.608 170.840  1.00  0.00     0.017 C 
HETATM   15  C   UNL     1     180.438 182.229 171.952  1.00  0.00    -0.047 C 
HETATM   16  C   UNL     1     179.632 181.095 171.876  1.00  0.00     0.020 C 
HETATM   17  C   UNL     1     180.416 182.980 173.268  1.00  0.00     0.049 C 
HETATM   18  C   UNL     1     179.487 180.326 170.701  1.00  0.00    -0.012 C 
HETATM   19  C   UNL     1     180.179 180.770 169.538  1.00  0.00     0.025 C 
HETATM   20  C   UNL     1     178.664 179.025 170.712  1.00  0.00    -0.006 C 
HETATM   21  C   UNL     1     181.110 181.858 169.647  1.00  0.00     0.089 C 
HETATM   22  C   UNL     1     179.932 180.024 168.259  1.00  0.00     0.046 C 
HETATM   23  C   UNL     1     179.455 178.634 168.382  1.00  0.00     0.217 C 
HETATM   24  C   UNL     1     179.939 180.555 166.999  1.00  0.00     0.099 C 
HETATM   25  C   UNL     1     178.741 178.205 169.602  1.00  0.00     0.124 C 
HETATM   26  O   UNL     1     179.472 177.885 167.414  1.00  0.00    -0.284 OA
BRANCH  21  27
HETATM   27  O   UNL     1     181.988 182.137 168.657  1.00  0.00    -0.359 OA
HETATM   28  H   UNL     1     182.519 182.942 168.608  1.00  0.00     0.217 HD
ENDBRANCH  21  27
BRANCH  25  29
HETATM   29  O   UNL     1     178.158 176.987 169.460  1.00  0.00    -0.356 OA
HETATM   30  H   UNL     1     177.701 176.427 170.080  1.00  0.00     0.218 HD
ENDBRANCH  25  29
BRANCH  24  31
HETATM   31  N   UNL     1     180.047 181.946 166.712  1.00  0.00    -0.397 N 
HETATM   32  H   UNL     1     180.338 182.590 167.453  1.00  0.00     0.158 HD
BRANCH  31  33
HETATM   33  C   UNL     1     179.528 182.549 165.498  1.00  0.00     0.136 C 
BRANCH  33  34
HETATM   34  C   UNL     1     180.587 183.316 164.696  1.00  0.00     0.192 C 
BRANCH  34  35
HETATM   35  S   UNL     1     182.119 183.654 165.622  1.00  0.00     0.295 S 
HETATM   36  O   UNL     1     183.042 184.620 164.862  1.00  0.00    -0.196 OA
HETATM   37  O   UNL     1     181.852 184.472 166.895  1.00  0.00    -0.196 OA
BRANCH  35  38
HETATM   38  O   UNL     1     183.137 182.362 166.128  1.00  0.00    -0.074 OA
BRANCH  38  39
HETATM   39  O   UNL     1     184.240 182.941 166.555  1.00  0.00    -0.018 OA
HETATM   40 NA   UNL     1     183.734 183.794 168.334  1.00  0.00     0.000 Na
ENDBRANCH  38  39
ENDBRANCH  35  38
ENDBRANCH  34  35
ENDBRANCH  33  34
ENDBRANCH  31  33
ENDBRANCH  24  31
BRANCH  20  41
HETATM   41  C   UNL     1     177.874 178.711 172.024  1.00  0.00     0.014 C 
HETATM   42  C   UNL     1     176.360 178.689 171.715  1.00  0.00     0.015 C 
HETATM   43  C   UNL     1     178.175 177.448 172.843  1.00  0.00     0.015 C 
ENDBRANCH  20  41
ENDBRANCH   9  14
BRANCH  10  44
HETATM   44  O   UNL     1     180.691 185.191 169.777  1.00  0.00    -0.359 OA
HETATM   45  H   UNL     1     179.886 184.717 170.023  1.00  0.00     0.217 HD
ENDBRANCH  10  44
BRANCH   3  46
HETATM   46  C   UNL     1     186.494 186.705 171.829  1.00  0.00     0.012 C 
HETATM   47  C   UNL     1     186.257 186.568 173.347  1.00  0.00     0.015 C 
HETATM   48  C   UNL     1     187.323 185.486 171.388  1.00  0.00     0.015 C 
ENDBRANCH   3  46
BRANCH  13  49
HETATM   49  N   UNL     1     181.539 188.595 167.632  1.00  0.00    -0.397 N 
HETATM   50  H   UNL     1     182.203 188.865 166.903  1.00  0.00     0.158 HD
BRANCH  49  51
HETATM   51  C   UNL     1     180.301 189.348 167.712  1.00  0.00     0.136 C 
BRANCH  51  52
HETATM   52  C   UNL     1     179.676 189.531 166.327  1.00  0.00     0.192 C 
BRANCH  52  53
HETATM   53  S   UNL     1     179.915 188.055 165.285  1.00  0.00     0.295 S 
HETATM   54  O   UNL     1     179.474 186.752 165.974  1.00  0.00    -0.196 OA
HETATM   55  O   UNL     1     179.007 188.090 164.045  1.00  0.00    -0.196 OA
BRANCH  53  56
HETATM   56  O   UNL     1     181.505 187.756 164.692  1.00  0.00    -0.074 OA
BRANCH  56  57
HETATM   57  O   UNL     1     181.343 187.128 163.545  1.00  0.00    -0.018 OA
HETATM   58 NA   UNL     1     180.560 188.537 162.302  1.00  0.00     0.000 Na
ENDBRANCH  56  57
ENDBRANCH  53  56
ENDBRANCH  52  53
ENDBRANCH  51  52
ENDBRANCH  49  51
ENDBRANCH  13  49
BRANCH   2  59
HETATM   59  O   UNL     1     185.761 189.263 170.562  1.00  0.00     0.000 OA
HETATM   60  H   UNL     1     185.474 190.062 171.020  1.00  0.00     0.000 HD
BRANCH  59  61
HETATM   61  O   UNL     1     186.761 189.403 169.764  1.00  0.00    -0.177 OA
BRANCH  61  62
HETATM   62  C   UNL     1     186.746 189.769 168.579  1.00  0.00     0.153 C 
HETATM   63  C   UNL     1     186.544 191.164 168.051  1.00  0.00     0.088 C 
HETATM   64  C   UNL     1     186.171 190.867 166.608  1.00  0.00     0.028 C 
HETATM   65  C   UNL     1     186.937 189.592 166.288  1.00  0.00     0.125 C 
HETATM   66  N   UNL     1     186.951 188.899 167.554  1.00  0.00    -0.359 N 
BRANCH  66  67
HETATM   67  C   UNL     1     187.212 187.469 167.665  1.00  0.00     0.081 C 
HETATM   68  C   UNL     1     185.942 186.660 167.358  1.00  0.00     0.032 C 
BRANCH  67  69
HETATM   69  C   UNL     1     188.414 187.087 166.771  1.00  0.00     0.020 C 
HETATM   70  C   UNL     1     188.367 185.646 166.267  1.00  0.00     0.007 C 
ENDBRANCH  67  69
ENDBRANCH  66  67
ENDBRANCH  61  62
ENDBRANCH  59  61
ENDBRANCH   2  59
TORSDOF 23
ENDMDL
