REMARK  Name = 2520
REMARK                            x       y       z     vdW  Elec       q    Type
REMARK                         _______ _______ _______ _____ _____    ______ ____
ROOT
ATOM     11  C   LIG    1       -2.350  -2.198   0.039  0.00  0.00    +0.028 C 
ENDROOT
BRANCH  11   8
ATOM      8  C   LIG    1       -3.433  -1.142   0.465  0.00  0.00    +0.085 C 
BRANCH   8   7
ATOM      3  C   LIG    1       -2.970   2.462  -0.759  0.00  0.00    +0.162 A 
ATOM      4  C   LIG    1       -1.838   2.859  -0.046  0.00  0.00    +0.162 A 
ATOM      5  C   LIG    1       -1.220   1.968   0.832  0.00  0.00    +0.050 A 
ATOM      6  C   LIG    1       -1.732   0.681   0.996  0.00  0.00    +0.009 A 
ATOM      7  C   LIG    1       -2.864   0.285   0.283  0.00  0.00    -0.024 A 
ATOM     33  C   LIG    1       -3.483   1.176  -0.595  0.00  0.00    +0.054 A 
BRANCH   3   1
ATOM      1  O   LIG    1       -3.583   3.323  -1.619  0.00  0.00    -0.491 OA
ATOM      2  C   LIG    1       -4.734   2.840  -2.309  0.00  0.00    +0.277 C 
ENDBRANCH   3   1
BRANCH   4  31
ATOM     31  O   LIG    1       -1.328   4.113  -0.197  0.00  0.00    -0.491 OA
ATOM     32  C   LIG    1       -0.170   4.438   0.568  0.00  0.00    +0.277 C 
ENDBRANCH   4  31
ENDBRANCH   8   7
BRANCH   8  28
ATOM     28  C   LIG    1       -3.823  -1.352   1.990  0.00  0.00    +0.007 C 
ATOM     29  C   LIG    1       -4.906  -0.371   2.480  0.00  0.00    +0.009 C 
ATOM     30  C   LIG    1       -4.271  -2.782   2.337  0.00  0.00    +0.009 C 
ENDBRANCH   8  28
BRANCH   8   9
ATOM      9  C   LIG    1       -4.642  -1.400  -0.370  0.00  0.00    +0.074 C 
ATOM     10  N   LIG    1       -5.581  -1.617  -1.016  0.00  0.00    -0.196 NA
ENDBRANCH   8   9
ENDBRANCH  11   8
BRANCH  11  12
ATOM     12  C   LIG    1       -1.637  -1.903  -1.298  0.00  0.00    +0.017 C 
BRANCH  12  13
ATOM     13  C   LIG    1       -0.659  -3.010  -1.704  0.00  0.00    +0.084 C 
BRANCH  13  14
ATOM     14  N   LIG    1        0.380  -3.214  -0.703  0.00  0.00    -0.305 NA
ATOM     15  C   LIG    1        0.982  -4.541  -0.847  0.00  0.00    +0.104 C 
BRANCH  14  16
ATOM     16  C   LIG    1        1.409  -2.177  -0.808  0.00  0.00    +0.088 C 
BRANCH  16  17
ATOM     17  C   LIG    1        2.136  -1.990   0.523  0.00  0.00    +0.050 C 
BRANCH  17  18
ATOM     18  C   LIG    1        3.184  -0.908   0.435  0.00  0.00    -0.042 A 
ATOM     19  C   LIG    1        2.847   0.414   0.726  0.00  0.00    +0.007 A 
ATOM     20  C   LIG    1        3.816   1.414   0.644  0.00  0.00    +0.049 A 
ATOM     21  C   LIG    1        5.120   1.093   0.270  0.00  0.00    +0.161 A 
ATOM     22  C   LIG    1        5.457  -0.229  -0.022  0.00  0.00    +0.162 A 
ATOM     27  C   LIG    1        4.488  -1.230   0.061  0.00  0.00    +0.053 A 
BRANCH  22  23
ATOM     23  O   LIG    1        6.728  -0.555  -0.388  0.00  0.00    -0.491 OA
ATOM     24  C   LIG    1        6.989  -1.929  -0.670  0.00  0.00    +0.277 C 
ENDBRANCH  22  23
BRANCH  21  25
ATOM     25  O   LIG    1        6.057   2.079   0.193  0.00  0.00    -0.491 OA
ATOM     26  C   LIG    1        5.631   3.403   0.507  0.00  0.00    +0.277 C 
ENDBRANCH  21  25
ENDBRANCH  17  18
ENDBRANCH  16  17
ENDBRANCH  14  16
ENDBRANCH  13  14
ENDBRANCH  12  13
ENDBRANCH  11  12
TORSDOF 14
