MODEL 1
REMARK VINA RESULT:      -6.9      0.000      0.000
REMARK  6 active torsions:
REMARK  status: ('A' for Active; 'I' for Inactive)
REMARK    1  A    between atoms: O_2  and  C_9 
REMARK    2  A    between atoms: O_4  and  C_14 
REMARK    3  A    between atoms: O_5  and  C_19 
REMARK    4  A    between atoms: O_6  and  C_20 
REMARK    5  A    between atoms: O_7  and  C_22 
REMARK    6  A    between atoms: C_8  and  C_10 
ROOT
HETATM    1  O   UNK     0      28.369  28.525  14.618  0.00  0.00    -0.337 OA
HETATM    2  O   UNK     0      31.161  26.242  16.577  0.00  0.00    -0.289 OA
HETATM    3  C   UNK     0      28.612  28.689  16.024  0.00  0.00     0.198 C 
HETATM    4  C   UNK     0      30.070  28.386  16.374  0.00  0.00     0.227 C 
HETATM    5  C   UNK     0      30.382  26.962  15.964  0.00  0.00     0.196 C 
HETATM    6  C   UNK     0      29.710  26.491  14.738  0.00  0.00     0.079 A 
HETATM    7  C   UNK     0      28.754  27.306  14.127  0.00  0.00     0.089 A 
HETATM    8  C   UNK     0      30.047  25.255  14.177  0.00  0.00     0.085 A 
HETATM    9  C   UNK     0      28.159  26.898  12.932  0.00  0.00     0.074 A 
HETATM   10  C   UNK     0      29.434  24.845  12.994  0.00  0.00     0.074 A 
HETATM   11  C   UNK     0      28.496  25.667  12.368  0.00  0.00     0.071 A 
ENDROOT
BRANCH   3  12
HETATM   12  C   UNK     0      28.232  30.113  16.382  0.00  0.00    -0.023 A 
HETATM   13  C   UNK     0      27.407  30.356  17.479  0.00  0.00     0.049 A 
HETATM   14  C   UNK     0      27.057  31.665  17.809  0.00  0.00     0.099 A 
HETATM   15  C   UNK     0      27.532  32.728  17.041  0.00  0.00     0.098 A 
HETATM   16  C   UNK     0      28.358  32.483  15.944  0.00  0.00     0.040 A 
HETATM   17  C   UNK     0      28.708  31.174  15.614  0.00  0.00     0.013 A 
BRANCH  14  18
HETATM   18  O   UNK     0      26.251  31.893  18.883  0.00  0.00    -0.358 OA
HETATM   19  H   UNK     0      26.104  31.047  19.340  0.00  0.00     0.217 HD
ENDBRANCH  14  18
BRANCH  15  20
HETATM   20  O   UNK     0      27.198  34.012  17.354  0.00  0.00    -0.358 OA
HETATM   21  H   UNK     0      27.848  34.615  16.953  0.00  0.00     0.217 HD
ENDBRANCH  15  20
ENDBRANCH   3  12
BRANCH   4  22
HETATM   22  O   UNK     0      30.270  28.496  17.773  0.00  0.00    -0.385 OA
HETATM   23  H   UNK     0      30.565  27.628  18.096  0.00  0.00     0.210 HD
ENDBRANCH   4  22
BRANCH   8  24
HETATM   24  O   UNK     0      30.968  24.421  14.734  0.00  0.00    -0.360 OA
HETATM   25  H   UNK     0      31.491  24.886  15.404  0.00  0.00     0.217 HD
ENDBRANCH   8  24
BRANCH  11  26
HETATM   26  O   UNK     0      27.907  25.267  11.209  0.00  0.00    -0.361 OA
HETATM   27  H   UNK     0      28.598  24.990  10.582  0.00  0.00     0.217 HD
ENDBRANCH  11  26
TORSDOF 6
ENDMDL
MODEL 2
REMARK VINA RESULT:      -6.6     15.649     17.550
REMARK  6 active torsions:
REMARK  status: ('A' for Active; 'I' for Inactive)
REMARK    1  A    between atoms: O_2  and  C_9 
REMARK    2  A    between atoms: O_4  and  C_14 
REMARK    3  A    between atoms: O_5  and  C_19 
REMARK    4  A    between atoms: O_6  and  C_20 
REMARK    5  A    between atoms: O_7  and  C_22 
REMARK    6  A    between atoms: C_8  and  C_10 
ROOT
HETATM    1  O   UNK     0      36.105  27.451  29.815  0.00  0.00    -0.337 OA
HETATM    2  O   UNK     0      33.980  26.064  33.041  0.00  0.00    -0.289 OA
HETATM    3  C   UNK     0      36.409  27.885  31.150  0.00  0.00     0.198 C 
HETATM    4  C   UNK     0      36.113  26.785  32.171  0.00  0.00     0.227 C 
HETATM    5  C   UNK     0      34.649  26.415  32.076  0.00  0.00     0.196 C 
HETATM    6  C   UNK     0      34.067  26.463  30.720  0.00  0.00     0.079 A 
HETATM    7  C   UNK     0      34.834  26.964  29.666  0.00  0.00     0.089 A 
HETATM    8  C   UNK     0      32.774  25.987  30.489  0.00  0.00     0.085 A 
HETATM    9  C   UNK     0      34.317  26.955  28.369  0.00  0.00     0.074 A 
HETATM   10  C   UNK     0      32.256  25.999  29.194  0.00  0.00     0.074 A 
HETATM   11  C   UNK     0      33.027  26.477  28.135  0.00  0.00     0.071 A 
ENDROOT
BRANCH   3  12
HETATM   12  C   UNK     0      37.870  28.292  31.168  0.00  0.00    -0.023 A 
HETATM   13  C   UNK     0      38.214  29.640  31.237  0.00  0.00     0.049 A 
HETATM   14  C   UNK     0      39.558  30.015  31.254  0.00  0.00     0.099 A 
HETATM   15  C   UNK     0      40.554  29.041  31.201  0.00  0.00     0.098 A 
HETATM   16  C   UNK     0      40.207  27.691  31.133  0.00  0.00     0.040 A 
HETATM   17  C   UNK     0      38.864  27.317  31.116  0.00  0.00     0.013 A 
BRANCH  14  18
HETATM   18  O   UNK     0      39.884  31.336  31.322  0.00  0.00    -0.358 OA
HETATM   19  H   UNK     0      40.698  31.423  31.849  0.00  0.00     0.217 HD
ENDBRANCH  14  18
BRANCH  15  20
HETATM   20  O   UNK     0      41.870  29.394  31.218  0.00  0.00    -0.358 OA
HETATM   21  H   UNK     0      42.073  29.817  32.070  0.00  0.00     0.217 HD
ENDBRANCH  15  20
ENDBRANCH   3  12
BRANCH   4  22
HETATM   22  O   UNK     0      36.364  27.257  33.484  0.00  0.00    -0.385 OA
HETATM   23  H   UNK     0      36.029  28.168  33.537  0.00  0.00     0.210 HD
ENDBRANCH   4  22
BRANCH   8  24
HETATM   24  O   UNK     0      31.982  25.492  31.481  0.00  0.00    -0.360 OA
HETATM   25  H   UNK     0      32.521  25.139  32.205  0.00  0.00     0.217 HD
ENDBRANCH   8  24
BRANCH  11  26
HETATM   26  O   UNK     0      32.521  26.479  26.871  0.00  0.00    -0.361 OA
HETATM   27  H   UNK     0      33.048  27.085  26.321  0.00  0.00     0.217 HD
ENDBRANCH  11  26
TORSDOF 6
ENDMDL
MODEL 3
REMARK VINA RESULT:      -6.6      1.553      6.956
REMARK  6 active torsions:
REMARK  status: ('A' for Active; 'I' for Inactive)
REMARK    1  A    between atoms: O_2  and  C_9 
REMARK    2  A    between atoms: O_4  and  C_14 
REMARK    3  A    between atoms: O_5  and  C_19 
REMARK    4  A    between atoms: O_6  and  C_20 
REMARK    5  A    between atoms: O_7  and  C_22 
REMARK    6  A    between atoms: C_8  and  C_10 
ROOT
HETATM    1  O   UNK     0      28.110  29.025  15.870  0.00  0.00    -0.337 OA
HETATM    2  O   UNK     0      30.376  32.012  14.202  0.00  0.00    -0.289 OA
HETATM    3  C   UNK     0      28.583  28.934  14.517  0.00  0.00     0.198 C 
HETATM    4  C   UNK     0      29.926  29.645  14.350  0.00  0.00     0.227 C 
HETATM    5  C   UNK     0      29.759  31.099  14.736  0.00  0.00     0.196 C 
HETATM    6  C   UNK     0      28.816  31.359  15.842  0.00  0.00     0.079 A 
HETATM    7  C   UNK     0      28.059  30.304  16.355  0.00  0.00     0.089 A 
HETATM    8  C   UNK     0      28.704  32.640  16.389  0.00  0.00     0.085 A 
HETATM    9  C   UNK     0      27.212  30.525  17.443  0.00  0.00     0.074 A 
HETATM   10  C   UNK     0      27.842  32.859  17.463  0.00  0.00     0.074 A 
HETATM   11  C   UNK     0      27.101  31.803  17.993  0.00  0.00     0.071 A 
ENDROOT
BRANCH   3  12
HETATM   12  C   UNK     0      28.679  27.460  14.172  0.00  0.00    -0.023 A 
HETATM   13  C   UNK     0      29.686  26.681  14.737  0.00  0.00     0.049 A 
HETATM   14  C   UNK     0      29.776  25.324  14.420  0.00  0.00     0.099 A 
HETATM   15  C   UNK     0      28.859  24.753  13.538  0.00  0.00     0.098 A 
HETATM   16  C   UNK     0      27.851  25.535  12.974  0.00  0.00     0.040 A 
HETATM   17  C   UNK     0      27.762  26.891  13.291  0.00  0.00     0.013 A 
BRANCH  14  18
HETATM   18  O   UNK     0      30.763  24.570  14.977  0.00  0.00    -0.358 OA
HETATM   19  H   UNK     0      31.512  25.154  15.190  0.00  0.00     0.217 HD
ENDBRANCH  14  18
BRANCH  15  20
HETATM   20  O   UNK     0      28.935  23.429  13.222  0.00  0.00    -0.358 OA
HETATM   21  H   UNK     0      28.221  23.211  12.598  0.00  0.00     0.217 HD
ENDBRANCH  15  20
ENDBRANCH   3  12
BRANCH   4  22
HETATM   22  O   UNK     0      30.342  29.594  12.996  0.00  0.00    -0.385 OA
HETATM   23  H   UNK     0      29.543  29.603  12.443  0.00  0.00     0.210 HD
ENDBRANCH   4  22
BRANCH   8  24
HETATM   24  O   UNK     0      29.417  33.705  15.924  0.00  0.00    -0.360 OA
HETATM   25  H   UNK     0      29.285  33.815  14.970  0.00  0.00     0.217 HD
ENDBRANCH   8  24
BRANCH  11  26
HETATM   26  O   UNK     0      26.267  32.018  19.047  0.00  0.00    -0.361 OA
HETATM   27  H   UNK     0      26.800  32.161  19.848  0.00  0.00     0.217 HD
ENDBRANCH  11  26
TORSDOF 6
ENDMDL
MODEL 4
REMARK VINA RESULT:      -6.4      2.813      3.395
REMARK  6 active torsions:
REMARK  status: ('A' for Active; 'I' for Inactive)
REMARK    1  A    between atoms: O_2  and  C_9 
REMARK    2  A    between atoms: O_4  and  C_14 
REMARK    3  A    between atoms: O_5  and  C_19 
REMARK    4  A    between atoms: O_6  and  C_20 
REMARK    5  A    between atoms: O_7  and  C_22 
REMARK    6  A    between atoms: C_8  and  C_10 
ROOT
HETATM    1  O   UNK     0      29.926  29.508  17.295  0.00  0.00    -0.337 OA
HETATM    2  O   UNK     0      31.263  25.718  18.126  0.00  0.00    -0.289 OA
HETATM    3  C   UNK     0      29.818  28.952  18.615  0.00  0.00     0.198 C 
HETATM    4  C   UNK     0      30.966  27.983  18.904  0.00  0.00     0.227 C 
HETATM    5  C   UNK     0      30.933  26.872  17.878  0.00  0.00     0.196 C 
HETATM    6  C   UNK     0      30.507  27.269  16.522  0.00  0.00     0.079 A 
HETATM    7  C   UNK     0      30.044  28.569  16.306  0.00  0.00     0.089 A 
HETATM    8  C   UNK     0      30.594  26.365  15.459  0.00  0.00     0.085 A 
HETATM    9  C   UNK     0      29.699  28.975  15.016  0.00  0.00     0.074 A 
HETATM   10  C   UNK     0      30.230  26.771  14.176  0.00  0.00     0.074 A 
HETATM   11  C   UNK     0      29.788  28.075  13.953  0.00  0.00     0.071 A 
ENDROOT
BRANCH   3  12
HETATM   12  C   UNK     0      29.803  30.113  19.592  0.00  0.00    -0.023 A 
HETATM   13  C   UNK     0      28.710  30.294  20.436  0.00  0.00     0.049 A 
HETATM   14  C   UNK     0      28.695  31.362  21.335  0.00  0.00     0.099 A 
HETATM   15  C   UNK     0      29.773  32.246  21.385  0.00  0.00     0.098 A 
HETATM   16  C   UNK     0      30.866  32.062  20.538  0.00  0.00     0.040 A 
HETATM   17  C   UNK     0      30.881  30.995  19.641  0.00  0.00     0.013 A 
BRANCH  14  18
HETATM   18  O   UNK     0      27.623  31.531  22.157  0.00  0.00    -0.358 OA
HETATM   19  H   UNK     0      27.777  31.019  22.970  0.00  0.00     0.217 HD
ENDBRANCH  14  18
BRANCH  15  20
HETATM   20  O   UNK     0      29.771  33.292  22.259  0.00  0.00    -0.358 OA
HETATM   21  H   UNK     0      30.684  33.602  22.382  0.00  0.00     0.217 HD
ENDBRANCH  15  20
ENDBRANCH   3  12
BRANCH   4  22
HETATM   22  O   UNK     0      30.805  27.404  20.188  0.00  0.00    -0.385 OA
HETATM   23  H   UNK     0      30.169  27.950  20.679  0.00  0.00     0.210 HD
ENDBRANCH   4  22
BRANCH   8  24
HETATM   24  O   UNK     0      31.036  25.085  15.616  0.00  0.00    -0.360 OA
HETATM   25  H   UNK     0      30.884  24.570  14.809  0.00  0.00     0.217 HD
ENDBRANCH   8  24
BRANCH  11  26
HETATM   26  O   UNK     0      29.442  28.471  12.697  0.00  0.00    -0.361 OA
HETATM   27  H   UNK     0      29.259  27.682  12.157  0.00  0.00     0.217 HD
ENDBRANCH  11  26
TORSDOF 6
ENDMDL
MODEL 5
REMARK VINA RESULT:      -6.4     21.285     22.187
REMARK  6 active torsions:
REMARK  status: ('A' for Active; 'I' for Inactive)
REMARK    1  A    between atoms: O_2  and  C_9 
REMARK    2  A    between atoms: O_4  and  C_14 
REMARK    3  A    between atoms: O_5  and  C_19 
REMARK    4  A    between atoms: O_6  and  C_20 
REMARK    5  A    between atoms: O_7  and  C_22 
REMARK    6  A    between atoms: C_8  and  C_10 
ROOT
HETATM    1  O   UNK     0      14.043  15.127  25.022  0.00  0.00    -0.337 OA
HETATM    2  O   UNK     0      17.486  12.906  24.775  0.00  0.00    -0.289 OA
HETATM    3  C   UNK     0      14.974  15.312  23.943  0.00  0.00     0.198 C 
HETATM    4  C   UNK     0      15.688  14.005  23.597  0.00  0.00     0.227 C 
HETATM    5  C   UNK     0      16.421  13.511  24.825  0.00  0.00     0.196 C 
HETATM    6  C   UNK     0      15.751  13.771  26.114  0.00  0.00     0.079 A 
HETATM    7  C   UNK     0      14.592  14.551  26.135  0.00  0.00     0.089 A 
HETATM    8  C   UNK     0      16.254  13.221  27.296  0.00  0.00     0.085 A 
HETATM    9  C   UNK     0      13.915  14.750  27.339  0.00  0.00     0.074 A 
HETATM   10  C   UNK     0      15.583  13.439  28.499  0.00  0.00     0.074 A 
HETATM   11  C   UNK     0      14.412  14.198  28.521  0.00  0.00     0.071 A 
ENDROOT
BRANCH   3  12
HETATM   12  C   UNK     0      14.191  15.856  22.763  0.00  0.00    -0.023 A 
HETATM   13  C   UNK     0      12.867  15.469  22.571  0.00  0.00     0.049 A 
HETATM   14  C   UNK     0      12.146  15.969  21.486  0.00  0.00     0.099 A 
HETATM   15  C   UNK     0      12.754  16.853  20.594  0.00  0.00     0.098 A 
HETATM   16  C   UNK     0      14.080  17.239  20.788  0.00  0.00     0.040 A 
HETATM   17  C   UNK     0      14.800  16.739  21.873  0.00  0.00     0.013 A 
BRANCH  14  18
HETATM   18  O   UNK     0      10.852  15.586  21.307  0.00  0.00    -0.358 OA
HETATM   19  H   UNK     0      10.603  14.997  22.041  0.00  0.00     0.217 HD
ENDBRANCH  14  18
BRANCH  15  20
HETATM   20  O   UNK     0      12.060  17.349  19.531  0.00  0.00    -0.358 OA
HETATM   21  H   UNK     0      12.192  18.311  19.488  0.00  0.00     0.217 HD
ENDBRANCH  15  20
ENDBRANCH   3  12
BRANCH   4  22
HETATM   22  O   UNK     0      16.642  14.226  22.572  0.00  0.00    -0.385 OA
HETATM   23  H   UNK     0      17.233  13.454  22.551  0.00  0.00     0.210 HD
ENDBRANCH   4  22
BRANCH   8  24
HETATM   24  O   UNK     0      17.381  12.457  27.332  0.00  0.00    -0.360 OA
HETATM   25  H   UNK     0      18.063  12.825  26.750  0.00  0.00     0.217 HD
ENDBRANCH   8  24
BRANCH  11  26
HETATM   26  O   UNK     0      13.756  14.402  29.695  0.00  0.00    -0.361 OA
HETATM   27  H   UNK     0      13.008  13.782  29.752  0.00  0.00     0.217 HD
ENDBRANCH  11  26
TORSDOF 6
ENDMDL
MODEL 6
REMARK VINA RESULT:      -6.4     15.667     17.531
REMARK  6 active torsions:
REMARK  status: ('A' for Active; 'I' for Inactive)
REMARK    1  A    between atoms: O_2  and  C_9 
REMARK    2  A    between atoms: O_4  and  C_14 
REMARK    3  A    between atoms: O_5  and  C_19 
REMARK    4  A    between atoms: O_6  and  C_20 
REMARK    5  A    between atoms: O_7  and  C_22 
REMARK    6  A    between atoms: C_8  and  C_10 
ROOT
HETATM    1  O   UNK     0      36.694  27.719  29.836  0.00  0.00    -0.337 OA
HETATM    2  O   UNK     0      33.883  28.078  32.805  0.00  0.00    -0.289 OA
HETATM    3  C   UNK     0      36.560  28.932  30.593  0.00  0.00     0.198 C 
HETATM    4  C   UNK     0      36.094  28.646  32.021  0.00  0.00     0.227 C 
HETATM    5  C   UNK     0      34.762  27.930  31.964  0.00  0.00     0.196 C 
HETATM    6  C   UNK     0      34.590  26.996  30.835  0.00  0.00     0.079 A 
HETATM    7  C   UNK     0      35.573  26.933  29.845  0.00  0.00     0.089 A 
HETATM    8  C   UNK     0      33.470  26.162  30.772  0.00  0.00     0.085 A 
HETATM    9  C   UNK     0      35.452  26.007  28.807  0.00  0.00     0.074 A 
HETATM   10  C   UNK     0      33.345  25.253  29.721  0.00  0.00     0.074 A 
HETATM   11  C   UNK     0      34.336  25.172  28.744  0.00  0.00     0.071 A 
ENDROOT
BRANCH   3  12
HETATM   12  C   UNK     0      37.907  29.628  30.569  0.00  0.00    -0.023 A 
HETATM   13  C   UNK     0      39.008  29.029  31.177  0.00  0.00     0.049 A 
HETATM   14  C   UNK     0      40.249  29.668  31.156  0.00  0.00     0.099 A 
HETATM   15  C   UNK     0      40.383  30.906  30.527  0.00  0.00     0.098 A 
HETATM   16  C   UNK     0      39.280  31.504  29.918  0.00  0.00     0.040 A 
HETATM   17  C   UNK     0      38.041  30.864  29.940  0.00  0.00     0.013 A 
BRANCH  14  18
HETATM   18  O   UNK     0      41.319  29.075  31.753  0.00  0.00    -0.358 OA
HETATM   19  H   UNK     0      42.079  29.137  31.149  0.00  0.00     0.217 HD
ENDBRANCH  14  18
BRANCH  15  20
HETATM   20  O   UNK     0      41.590  31.540  30.498  0.00  0.00    -0.358 OA
HETATM   21  H   UNK     0      41.466  32.468  30.763  0.00  0.00     0.217 HD
ENDBRANCH  15  20
ENDBRANCH   3  12
BRANCH   4  22
HETATM   22  O   UNK     0      35.912  29.861  32.729  0.00  0.00    -0.385 OA
HETATM   23  H   UNK     0      36.473  30.534  32.306  0.00  0.00     0.210 HD
ENDBRANCH   4  22
BRANCH   8  24
HETATM   24  O   UNK     0      32.480  26.186  31.708  0.00  0.00    -0.360 OA
HETATM   25  H   UNK     0      31.659  25.818  31.348  0.00  0.00     0.217 HD
ENDBRANCH   8  24
BRANCH  11  26
HETATM   26  O   UNK     0      34.214  24.277  27.725  0.00  0.00    -0.361 OA
HETATM   27  H   UNK     0      34.204  23.377  28.094  0.00  0.00     0.217 HD
ENDBRANCH  11  26
TORSDOF 6
ENDMDL
MODEL 7
REMARK VINA RESULT:      -6.3     20.801     21.583
REMARK  6 active torsions:
REMARK  status: ('A' for Active; 'I' for Inactive)
REMARK    1  A    between atoms: O_2  and  C_9 
REMARK    2  A    between atoms: O_4  and  C_14 
REMARK    3  A    between atoms: O_5  and  C_19 
REMARK    4  A    between atoms: O_6  and  C_20 
REMARK    5  A    between atoms: O_7  and  C_22 
REMARK    6  A    between atoms: C_8  and  C_10 
ROOT
HETATM    1  O   UNK     0      14.648  15.963  22.741  0.00  0.00    -0.337 OA
HETATM    2  O   UNK     0      14.172  12.572  25.002  0.00  0.00    -0.289 OA
HETATM    3  C   UNK     0      13.460  15.162  22.641  0.00  0.00     0.198 C 
HETATM    4  C   UNK     0      13.130  14.492  23.976  0.00  0.00     0.227 C 
HETATM    5  C   UNK     0      14.299  13.623  24.386  0.00  0.00     0.196 C 
HETATM    6  C   UNK     0      15.634  14.141  24.029  0.00  0.00     0.079 A 
HETATM    7  C   UNK     0      15.731  15.290  23.240  0.00  0.00     0.089 A 
HETATM    8  C   UNK     0      16.788  13.507  24.498  0.00  0.00     0.085 A 
HETATM    9  C   UNK     0      16.987  15.826  22.950  0.00  0.00     0.074 A 
HETATM   10  C   UNK     0      18.040  14.037  24.187  0.00  0.00     0.074 A 
HETATM   11  C   UNK     0      18.140  15.197  23.420  0.00  0.00     0.071 A 
ENDROOT
BRANCH   3  12
HETATM   12  C   UNK     0      12.341  16.074  22.177  0.00  0.00    -0.023 A 
HETATM   13  C   UNK     0      12.032  16.158  20.821  0.00  0.00     0.049 A 
HETATM   14  C   UNK     0      11.002  16.996  20.393  0.00  0.00     0.099 A 
HETATM   15  C   UNK     0      10.285  17.750  21.323  0.00  0.00     0.098 A 
HETATM   16  C   UNK     0      10.596  17.664  22.680  0.00  0.00     0.040 A 
HETATM   17  C   UNK     0      11.625  16.826  23.107  0.00  0.00     0.013 A 
BRANCH  14  18
HETATM   18  O   UNK     0      10.706  17.071  19.066  0.00  0.00    -0.358 OA
HETATM   19  H   UNK     0      11.096  17.889  18.712  0.00  0.00     0.217 HD
ENDBRANCH  14  18
BRANCH  15  20
HETATM   20  O   UNK     0       9.276  18.572  20.918  0.00  0.00    -0.358 OA
HETATM   21  H   UNK     0       8.567  18.033  20.526  0.00  0.00     0.217 HD
ENDBRANCH  15  20
ENDBRANCH   3  12
BRANCH   4  22
HETATM   22  O   UNK     0      11.990  13.661  23.837  0.00  0.00    -0.385 OA
HETATM   23  H   UNK     0      11.329  14.154  23.322  0.00  0.00     0.210 HD
ENDBRANCH   4  22
BRANCH   8  24
HETATM   24  O   UNK     0      16.750  12.383  25.266  0.00  0.00    -0.360 OA
HETATM   25  H   UNK     0      16.149  12.502  26.017  0.00  0.00     0.217 HD
ENDBRANCH   8  24
BRANCH  11  26
HETATM   26  O   UNK     0      19.364  15.715  23.126  0.00  0.00    -0.361 OA
HETATM   27  H   UNK     0      19.924  15.673  23.921  0.00  0.00     0.217 HD
ENDBRANCH  11  26
TORSDOF 6
ENDMDL
MODEL 8
REMARK VINA RESULT:      -6.2      1.764      6.698
REMARK  6 active torsions:
REMARK  status: ('A' for Active; 'I' for Inactive)
REMARK    1  A    between atoms: O_2  and  C_9 
REMARK    2  A    between atoms: O_4  and  C_14 
REMARK    3  A    between atoms: O_5  and  C_19 
REMARK    4  A    between atoms: O_6  and  C_20 
REMARK    5  A    between atoms: O_7  and  C_22 
REMARK    6  A    between atoms: C_8  and  C_10 
ROOT
HETATM    1  O   UNK     0      28.815  28.565  16.547  0.00  0.00    -0.337 OA
HETATM    2  O   UNK     0      31.704  27.955  19.398  0.00  0.00    -0.289 OA
HETATM    3  C   UNK     0      30.098  28.019  16.203  0.00  0.00     0.198 C 
HETATM    4  C   UNK     0      30.675  27.191  17.353  0.00  0.00     0.227 C 
HETATM    5  C   UNK     0      30.807  28.078  18.572  0.00  0.00     0.196 C 
HETATM    6  C   UNK     0      29.753  29.099  18.734  0.00  0.00     0.079 A 
HETATM    7  C   UNK     0      28.809  29.271  17.720  0.00  0.00     0.089 A 
HETATM    8  C   UNK     0      29.683  29.863  19.902  0.00  0.00     0.085 A 
HETATM    9  C   UNK     0      27.771  30.188  17.890  0.00  0.00     0.074 A 
HETATM   10  C   UNK     0      28.654  30.791  20.058  0.00  0.00     0.074 A 
HETATM   11  C   UNK     0      27.696  30.950  19.057  0.00  0.00     0.071 A 
ENDROOT
BRANCH   3  12
HETATM   12  C   UNK     0      29.911  27.186  14.949  0.00  0.00    -0.023 A 
HETATM   13  C   UNK     0      30.642  26.012  14.781  0.00  0.00     0.049 A 
HETATM   14  C   UNK     0      30.470  25.245  13.627  0.00  0.00     0.099 A 
HETATM   15  C   UNK     0      29.569  25.657  12.645  0.00  0.00     0.098 A 
HETATM   16  C   UNK     0      28.838  26.833  12.817  0.00  0.00     0.040 A 
HETATM   17  C   UNK     0      29.010  27.598  13.969  0.00  0.00     0.013 A 
BRANCH  14  18
HETATM   18  O   UNK     0      31.188  24.099  13.471  0.00  0.00    -0.358 OA
HETATM   19  H   UNK     0      30.611  23.429  13.067  0.00  0.00     0.217 HD
ENDBRANCH  14  18
BRANCH  15  20
HETATM   20  O   UNK     0      29.392  24.916  11.515  0.00  0.00    -0.358 OA
HETATM   21  H   UNK     0      28.603  24.358  11.623  0.00  0.00     0.217 HD
ENDBRANCH  15  20
ENDBRANCH   3  12
BRANCH   4  22
HETATM   22  O   UNK     0      31.965  26.713  17.012  0.00  0.00    -0.385 OA
HETATM   23  H   UNK     0      32.072  26.816  16.052  0.00  0.00     0.210 HD
ENDBRANCH   4  22
BRANCH   8  24
HETATM   24  O   UNK     0      30.580  29.737  20.920  0.00  0.00    -0.360 OA
HETATM   25  H   UNK     0      31.437  30.113  20.670  0.00  0.00     0.217 HD
ENDBRANCH   8  24
BRANCH  11  26
HETATM   26  O   UNK     0      26.689  31.851  19.217  0.00  0.00    -0.361 OA
HETATM   27  H   UNK     0      26.985  32.553  19.822  0.00  0.00     0.217 HD
ENDBRANCH  11  26
TORSDOF 6
ENDMDL
MODEL 9
REMARK VINA RESULT:      -6.2     20.450     23.873
REMARK  6 active torsions:
REMARK  status: ('A' for Active; 'I' for Inactive)
REMARK    1  A    between atoms: O_2  and  C_9 
REMARK    2  A    between atoms: O_4  and  C_14 
REMARK    3  A    between atoms: O_5  and  C_19 
REMARK    4  A    between atoms: O_6  and  C_20 
REMARK    5  A    between atoms: O_7  and  C_22 
REMARK    6  A    between atoms: C_8  and  C_10 
ROOT
HETATM    1  O   UNK     0      37.362   6.791   9.440  0.00  0.00    -0.337 OA
HETATM    2  O   UNK     0      38.605   7.911   5.692  0.00  0.00    -0.289 OA
HETATM    3  C   UNK     0      38.293   7.869   9.254  0.00  0.00     0.198 C 
HETATM    4  C   UNK     0      38.040   8.600   7.935  0.00  0.00     0.227 C 
HETATM    5  C   UNK     0      38.171   7.610   6.798  0.00  0.00     0.196 C 
HETATM    6  C   UNK     0      37.703   6.241   7.088  0.00  0.00     0.079 A 
HETATM    7  C   UNK     0      37.311   5.916   8.388  0.00  0.00     0.089 A 
HETATM    8  C   UNK     0      37.626   5.289   6.068  0.00  0.00     0.085 A 
HETATM    9  C   UNK     0      36.806   4.643   8.661  0.00  0.00     0.074 A 
HETATM   10  C   UNK     0      37.139   4.013   6.351  0.00  0.00     0.074 A 
HETATM   11  C   UNK     0      36.725   3.691   7.643  0.00  0.00     0.071 A 
ENDROOT
BRANCH   3  12
HETATM   12  C   UNK     0      38.152   8.795  10.447  0.00  0.00    -0.023 A 
HETATM   13  C   UNK     0      36.912   8.948  11.063  0.00  0.00     0.049 A 
HETATM   14  C   UNK     0      36.781   9.800  12.161  0.00  0.00     0.099 A 
HETATM   15  C   UNK     0      37.890  10.497  12.638  0.00  0.00     0.098 A 
HETATM   16  C   UNK     0      39.131  10.342  12.019  0.00  0.00     0.040 A 
HETATM   17  C   UNK     0      39.262   9.491  10.922  0.00  0.00     0.013 A 
BRANCH  14  18
HETATM   18  O   UNK     0      35.565   9.942  12.757  0.00  0.00    -0.358 OA
HETATM   19  H   UNK     0      35.667   9.758  13.707  0.00  0.00     0.217 HD
ENDBRANCH  14  18
BRANCH  15  20
HETATM   20  O   UNK     0      37.776  11.332  13.709  0.00  0.00    -0.358 OA
HETATM   21  H   UNK     0      37.486  10.816  14.482  0.00  0.00     0.217 HD
ENDBRANCH  15  20
ENDBRANCH   3  12
BRANCH   4  22
HETATM   22  O   UNK     0      39.007   9.619   7.747  0.00  0.00    -0.385 OA
HETATM   23  H   UNK     0      38.750  10.373   8.304  0.00  0.00     0.210 HD
ENDBRANCH   4  22
BRANCH   8  24
HETATM   24  O   UNK     0      37.999   5.553   4.784  0.00  0.00    -0.360 OA
HETATM   25  H   UNK     0      38.637   4.894   4.471  0.00  0.00     0.217 HD
ENDBRANCH   8  24
BRANCH  11  26
HETATM   26  O   UNK     0      36.242   2.448   7.913  0.00  0.00    -0.361 OA
HETATM   27  H   UNK     0      35.511   2.524   8.550  0.00  0.00     0.217 HD
ENDBRANCH  11  26
TORSDOF 6
ENDMDL
