MODEL 1
REMARK VINA RESULT:      -5.2      0.000      0.000
REMARK  18 active torsions:
REMARK  status: ('A' for Active; 'I' for Inactive)
REMARK    1  A    between atoms: P_1  and  O1P_2 
REMARK    2  A    between atoms: P_1  and  O2P_4 
REMARK    3  A    between atoms: P_1  and  O3P_6 
REMARK    4  A    between atoms: O3P_6  and  C1_7 
REMARK    5  A    between atoms: C1_7  and  C2_8 
REMARK    6  A    between atoms: C2_8  and  C3_9 
REMARK    7  A    between atoms: C3_9  and  O3_10 
REMARK    8  A    between atoms: O3_10  and  C11_11 
REMARK    9  A    between atoms: C11_11  and  C12_13 
REMARK   10  A    between atoms: C12_13  and  C13_14 
REMARK   11  A    between atoms: C13_14  and  C14_15 
REMARK   12  A    between atoms: C14_15  and  C15_16 
REMARK   13  A    between atoms: C15_16  and  C16_17 
REMARK   14  A    between atoms: C16_17  and  C17_18 
REMARK   15  A    between atoms: C17_18  and  C18_19 
REMARK   16  A    between atoms: C18_19  and  C19_20 
REMARK   17  A    between atoms: C19_20  and  C20_21 
REMARK   18  A    between atoms: C20_21  and  C21_22 
ROOT
HETATM    1  C11 MC3 X 301      17.800  43.566  12.662  1.00 74.30     0.258 C 
HETATM    2  O11 MC3 X 301      16.866  43.101  13.246  1.00 71.30    -0.265 OA
ENDROOT
BRANCH   1   3
HETATM    3  O3  MC3 X 301      18.013  43.339  11.367  1.00 84.33    -0.321 OA
BRANCH   3   4
HETATM    4  C3  MC3 X 301      17.654  42.026  10.878  1.00 88.26     0.185 C 
BRANCH   4   5
HETATM    5  C2  MC3 X 301      16.531  42.144   9.871  1.00 84.83     0.042 C 
BRANCH   5   6
HETATM    6  C1  MC3 X 301      15.368  41.218  10.145  1.00 87.52     0.185 C 
BRANCH   6   7
HETATM    7  O3P MC3 X 301      14.539  41.816  11.182  1.00 93.34    -0.317 OA
BRANCH   7   8
HETATM    8  P   MC3 X 301      14.152  40.960  12.485  1.00 99.76     0.329 P 
BRANCH   8   9
HETATM    9  O1P MC3 X 301      12.891  40.163  12.246  1.00 79.99    -0.328 OA
HETATM   10  H1P MC3 X 301      12.231  40.289  12.917  1.00  0.00     0.219 HD
ENDBRANCH   8   9
BRANCH   8  11
HETATM   11  O2P MC3 X 301      13.982  42.112  13.593  1.00 83.77    -0.328 OA
HETATM   12  H2P MC3 X 301      13.137  42.545  13.562  1.00  0.00     0.219 HD
ENDBRANCH   8  11
ENDBRANCH   7   8
ENDBRANCH   6   7
ENDBRANCH   5   6
ENDBRANCH   4   5
ENDBRANCH   3   4
ENDBRANCH   1   3
BRANCH   1  13
HETATM   13  C12 MC3 X 301      18.845  44.489  13.257  1.00 70.26     0.111 C 
BRANCH  13  14
HETATM   14  C13 MC3 X 301      18.320  45.817  13.723  1.00 68.05     0.010 C 
BRANCH  14  15
HETATM   15  C14 MC3 X 301      19.196  46.494  14.782  1.00 65.69     0.000 C 
BRANCH  15  16
HETATM   16  C15 MC3 X 301      19.251  45.741  16.109  1.00 64.07     0.000 C 
BRANCH  16  17
HETATM   17  C16 MC3 X 301      18.736  46.502  17.327  1.00 63.64     0.000 C 
BRANCH  17  18
HETATM   18  C17 MC3 X 301      19.210  45.944  18.659  1.00 65.61     0.000 C 
BRANCH  18  19
HETATM   19  C18 MC3 X 301      19.547  44.462  18.649  1.00 65.35     0.000 C 
BRANCH  19  20
HETATM   20  C19 MC3 X 301      20.146  43.944  19.941  1.00 59.74     0.000 C 
BRANCH  20  21
HETATM   21  C20 MC3 X 301      21.223  42.877  19.762  1.00 58.18     0.000 C 
BRANCH  21  22
HETATM   22  C21 MC3 X 301      22.543  43.402  19.242  1.00 54.24     0.000 C 
HETATM   23  C22 MC3 X 301      23.055  44.645  19.919  1.00 55.64     0.000 C 
ENDBRANCH  21  22
ENDBRANCH  20  21
ENDBRANCH  19  20
ENDBRANCH  18  19
ENDBRANCH  17  18
ENDBRANCH  16  17
ENDBRANCH  15  16
ENDBRANCH  14  15
ENDBRANCH  13  14
ENDBRANCH   1  13
TORSDOF 18
ENDMDL
MODEL 2
REMARK VINA RESULT:      -5.1      1.171      2.031
REMARK  18 active torsions:
REMARK  status: ('A' for Active; 'I' for Inactive)
REMARK    1  A    between atoms: P_1  and  O1P_2 
REMARK    2  A    between atoms: P_1  and  O2P_4 
REMARK    3  A    between atoms: P_1  and  O3P_6 
REMARK    4  A    between atoms: O3P_6  and  C1_7 
REMARK    5  A    between atoms: C1_7  and  C2_8 
REMARK    6  A    between atoms: C2_8  and  C3_9 
REMARK    7  A    between atoms: C3_9  and  O3_10 
REMARK    8  A    between atoms: O3_10  and  C11_11 
REMARK    9  A    between atoms: C11_11  and  C12_13 
REMARK   10  A    between atoms: C12_13  and  C13_14 
REMARK   11  A    between atoms: C13_14  and  C14_15 
REMARK   12  A    between atoms: C14_15  and  C15_16 
REMARK   13  A    between atoms: C15_16  and  C16_17 
REMARK   14  A    between atoms: C16_17  and  C17_18 
REMARK   15  A    between atoms: C17_18  and  C18_19 
REMARK   16  A    between atoms: C18_19  and  C19_20 
REMARK   17  A    between atoms: C19_20  and  C20_21 
REMARK   18  A    between atoms: C20_21  and  C21_22 
ROOT
HETATM    1  C11 MC3 X 301      18.744  42.902  11.511  1.00 74.30     0.258 C 
HETATM    2  O11 MC3 X 301      19.610  42.231  11.991  1.00 71.30    -0.265 OA
ENDROOT
BRANCH   1   3
HETATM    3  O3  MC3 X 301      17.553  42.401  11.190  1.00 84.33    -0.321 OA
BRANCH   3   4
HETATM    4  C3  MC3 X 301      17.458  41.746   9.904  1.00 88.26     0.185 C 
BRANCH   4   5
HETATM    5  C2  MC3 X 301      16.103  42.021   9.288  1.00 84.83     0.042 C 
BRANCH   5   6
HETATM    6  C1  MC3 X 301      14.965  41.301   9.975  1.00 87.52     0.185 C 
BRANCH   6   7
HETATM    7  O3P MC3 X 301      14.196  42.277  10.733  1.00 93.34    -0.317 OA
BRANCH   7   8
HETATM    8  P   MC3 X 301      14.122  42.164  12.334  1.00 99.76     0.329 P 
BRANCH   8   9
HETATM    9  O1P MC3 X 301      15.509  42.174  12.935  1.00 79.99    -0.328 OA
HETATM   10  H1P MC3 X 301      15.735  42.998  13.349  1.00  0.00     0.219 HD
ENDBRANCH   8   9
BRANCH   8  11
HETATM   11  O2P MC3 X 301      13.351  40.768  12.527  1.00 83.77    -0.328 OA
HETATM   12  H2P MC3 X 301      13.929  40.038  12.715  1.00  0.00     0.219 HD
ENDBRANCH   8  11
ENDBRANCH   7   8
ENDBRANCH   6   7
ENDBRANCH   5   6
ENDBRANCH   4   5
ENDBRANCH   3   4
ENDBRANCH   1   3
BRANCH   1  13
HETATM   13  C12 MC3 X 301      18.830  44.389  11.231  1.00 70.26     0.111 C 
BRANCH  13  14
HETATM   14  C13 MC3 X 301      19.353  45.216  12.371  1.00 68.05     0.010 C 
BRANCH  14  15
HETATM   15  C14 MC3 X 301      18.386  45.323  13.555  1.00 65.69     0.000 C 
BRANCH  15  16
HETATM   16  C15 MC3 X 301      18.494  46.638  14.323  1.00 64.07     0.000 C 
BRANCH  16  17
HETATM   17  C16 MC3 X 301      19.319  46.593  15.606  1.00 63.64     0.000 C 
BRANCH  17  18
HETATM   18  C17 MC3 X 301      18.722  47.382  16.759  1.00 65.61     0.000 C 
BRANCH  18  19
HETATM   19  C18 MC3 X 301      18.685  46.645  18.088  1.00 65.35     0.000 C 
BRANCH  19  20
HETATM   20  C19 MC3 X 301      18.857  45.143  17.981  1.00 59.74     0.000 C 
BRANCH  20  21
HETATM   21  C20 MC3 X 301      20.169  44.608  18.548  1.00 58.18     0.000 C 
BRANCH  21  22
HETATM   22  C21 MC3 X 301      20.027  43.872  19.863  1.00 54.24     0.000 C 
HETATM   23  C22 MC3 X 301      21.286  43.767  20.681  1.00 55.64     0.000 C 
ENDBRANCH  21  22
ENDBRANCH  20  21
ENDBRANCH  19  20
ENDBRANCH  18  19
ENDBRANCH  17  18
ENDBRANCH  16  17
ENDBRANCH  15  16
ENDBRANCH  14  15
ENDBRANCH  13  14
ENDBRANCH   1  13
TORSDOF 18
ENDMDL
MODEL 3
REMARK VINA RESULT:      -5.1      5.081      8.682
REMARK  18 active torsions:
REMARK  status: ('A' for Active; 'I' for Inactive)
REMARK    1  A    between atoms: P_1  and  O1P_2 
REMARK    2  A    between atoms: P_1  and  O2P_4 
REMARK    3  A    between atoms: P_1  and  O3P_6 
REMARK    4  A    between atoms: O3P_6  and  C1_7 
REMARK    5  A    between atoms: C1_7  and  C2_8 
REMARK    6  A    between atoms: C2_8  and  C3_9 
REMARK    7  A    between atoms: C3_9  and  O3_10 
REMARK    8  A    between atoms: O3_10  and  C11_11 
REMARK    9  A    between atoms: C11_11  and  C12_13 
REMARK   10  A    between atoms: C12_13  and  C13_14 
REMARK   11  A    between atoms: C13_14  and  C14_15 
REMARK   12  A    between atoms: C14_15  and  C15_16 
REMARK   13  A    between atoms: C15_16  and  C16_17 
REMARK   14  A    between atoms: C16_17  and  C17_18 
REMARK   15  A    between atoms: C17_18  and  C18_19 
REMARK   16  A    between atoms: C18_19  and  C19_20 
REMARK   17  A    between atoms: C19_20  and  C20_21 
REMARK   18  A    between atoms: C20_21  and  C21_22 
ROOT
HETATM    1  C11 MC3 X 301      18.574  44.668  17.646  1.00 74.30     0.258 C 
HETATM    2  O11 MC3 X 301      18.049  44.113  16.725  1.00 71.30    -0.265 OA
ENDROOT
BRANCH   1   3
HETATM    3  O3  MC3 X 301      19.471  44.063  18.422  1.00 84.33    -0.321 OA
BRANCH   3   4
HETATM    4  C3  MC3 X 301      20.849  44.142  17.992  1.00 88.26     0.185 C 
BRANCH   4   5
HETATM    5  C2  MC3 X 301      21.748  44.366  19.189  1.00 84.83     0.042 C 
BRANCH   5   6
HETATM    6  C1  MC3 X 301      23.185  43.957  18.956  1.00 87.52     0.185 C 
BRANCH   6   7
HETATM    7  O3P MC3 X 301      23.666  43.276  20.149  1.00 93.34    -0.317 OA
BRANCH   7   8
HETATM    8  P   MC3 X 301      22.667  43.025  21.382  1.00 99.76     0.329 P 
BRANCH   8   9
HETATM    9  O1P MC3 X 301      23.395  43.174  22.698  1.00 79.99    -0.328 OA
HETATM   10  H1P MC3 X 301      22.825  43.403  23.421  1.00  0.00     0.219 HD
ENDBRANCH   8   9
BRANCH   8  11
HETATM   11  O2P MC3 X 301      22.164  41.526  21.094  1.00 83.77    -0.328 OA
HETATM   12  H2P MC3 X 301      21.749  41.116  21.843  1.00  0.00     0.219 HD
ENDBRANCH   8  11
ENDBRANCH   7   8
ENDBRANCH   6   7
ENDBRANCH   5   6
ENDBRANCH   4   5
ENDBRANCH   3   4
ENDBRANCH   1   3
BRANCH   1  13
HETATM   13  C12 MC3 X 301      18.350  46.111  18.052  1.00 70.26     0.111 C 
BRANCH  13  14
HETATM   14  C13 MC3 X 301      19.178  47.113  17.300  1.00 68.05     0.010 C 
BRANCH  14  15
HETATM   15  C14 MC3 X 301      18.351  48.149  16.531  1.00 65.69     0.000 C 
BRANCH  15  16
HETATM   16  C15 MC3 X 301      18.275  47.886  15.029  1.00 64.07     0.000 C 
BRANCH  16  17
HETATM   17  C16 MC3 X 301      19.221  46.817  14.492  1.00 63.64     0.000 C 
BRANCH  17  18
HETATM   18  C17 MC3 X 301      18.533  45.709  13.712  1.00 65.61     0.000 C 
BRANCH  18  19
HETATM   19  C18 MC3 X 301      19.363  45.103  12.592  1.00 65.35     0.000 C 
BRANCH  19  20
HETATM   20  C19 MC3 X 301      18.624  44.094  11.736  1.00 59.74     0.000 C 
BRANCH  20  21
HETATM   21  C20 MC3 X 301      17.551  43.297  12.472  1.00 58.18     0.000 C 
BRANCH  21  22
HETATM   22  C21 MC3 X 301      17.100  42.044  11.753  1.00 54.24     0.000 C 
HETATM   23  C22 MC3 X 301      17.025  42.152  10.254  1.00 55.64     0.000 C 
ENDBRANCH  21  22
ENDBRANCH  20  21
ENDBRANCH  19  20
ENDBRANCH  18  19
ENDBRANCH  17  18
ENDBRANCH  16  17
ENDBRANCH  15  16
ENDBRANCH  14  15
ENDBRANCH  13  14
ENDBRANCH   1  13
TORSDOF 18
ENDMDL
MODEL 4
REMARK VINA RESULT:      -5.1      2.344      2.934
REMARK  18 active torsions:
REMARK  status: ('A' for Active; 'I' for Inactive)
REMARK    1  A    between atoms: P_1  and  O1P_2 
REMARK    2  A    between atoms: P_1  and  O2P_4 
REMARK    3  A    between atoms: P_1  and  O3P_6 
REMARK    4  A    between atoms: O3P_6  and  C1_7 
REMARK    5  A    between atoms: C1_7  and  C2_8 
REMARK    6  A    between atoms: C2_8  and  C3_9 
REMARK    7  A    between atoms: C3_9  and  O3_10 
REMARK    8  A    between atoms: O3_10  and  C11_11 
REMARK    9  A    between atoms: C11_11  and  C12_13 
REMARK   10  A    between atoms: C12_13  and  C13_14 
REMARK   11  A    between atoms: C13_14  and  C14_15 
REMARK   12  A    between atoms: C14_15  and  C15_16 
REMARK   13  A    between atoms: C15_16  and  C16_17 
REMARK   14  A    between atoms: C16_17  and  C17_18 
REMARK   15  A    between atoms: C17_18  and  C18_19 
REMARK   16  A    between atoms: C18_19  and  C19_20 
REMARK   17  A    between atoms: C19_20  and  C20_21 
REMARK   18  A    between atoms: C20_21  and  C21_22 
ROOT
HETATM    1  C11 MC3 X 301      18.185  44.421  13.055  1.00 74.30     0.258 C 
HETATM    2  O11 MC3 X 301      18.466  44.665  11.919  1.00 71.30    -0.265 OA
ENDROOT
BRANCH   1   3
HETATM    3  O3  MC3 X 301      17.307  43.475  13.383  1.00 84.33    -0.321 OA
BRANCH   3   4
HETATM    4  C3  MC3 X 301      16.911  42.572  12.324  1.00 88.26     0.185 C 
BRANCH   4   5
HETATM    5  C2  MC3 X 301      16.857  41.155  12.853  1.00 84.83     0.042 C 
BRANCH   5   6
HETATM    6  C1  MC3 X 301      16.089  41.018  14.148  1.00 87.52     0.185 C 
BRANCH   6   7
HETATM    7  O3P MC3 X 301      16.965  40.410  15.139  1.00 93.34    -0.317 OA
BRANCH   7   8
HETATM    8  P   MC3 X 301      17.619  41.321  16.289  1.00 99.76     0.329 P 
BRANCH   8   9
HETATM    9  O1P MC3 X 301      16.658  42.401  16.727  1.00 79.99    -0.328 OA
HETATM   10  H1P MC3 X 301      15.782  42.292  16.376  1.00  0.00     0.219 HD
ENDBRANCH   8   9
BRANCH   8  11
HETATM   11  O2P MC3 X 301      18.928  41.889  15.550  1.00 83.77    -0.328 OA
HETATM   12  H2P MC3 X 301      18.760  42.201  14.669  1.00  0.00     0.219 HD
ENDBRANCH   8  11
ENDBRANCH   7   8
ENDBRANCH   6   7
ENDBRANCH   5   6
ENDBRANCH   4   5
ENDBRANCH   3   4
ENDBRANCH   1   3
BRANCH   1  13
HETATM   13  C12 MC3 X 301      18.782  45.090  14.277  1.00 70.26     0.111 C 
BRANCH  13  14
HETATM   14  C13 MC3 X 301      19.213  46.514  14.068  1.00 68.05     0.010 C 
BRANCH  14  15
HETATM   15  C14 MC3 X 301      18.497  47.519  14.977  1.00 65.69     0.000 C 
BRANCH  15  16
HETATM   16  C15 MC3 X 301      19.165  47.706  16.336  1.00 64.07     0.000 C 
BRANCH  16  17
HETATM   17  C16 MC3 X 301      18.330  47.304  17.549  1.00 63.64     0.000 C 
BRANCH  17  18
HETATM   18  C17 MC3 X 301      19.001  46.289  18.460  1.00 65.61     0.000 C 
BRANCH  18  19
HETATM   19  C18 MC3 X 301      19.156  44.899  17.866  1.00 65.35     0.000 C 
BRANCH  19  20
HETATM   20  C19 MC3 X 301      19.843  43.899  18.774  1.00 59.74     0.000 C 
BRANCH  20  21
HETATM   21  C20 MC3 X 301      20.480  44.503  20.022  1.00 58.18     0.000 C 
BRANCH  21  22
HETATM   22  C21 MC3 X 301      21.960  44.222  20.166  1.00 54.24     0.000 C 
HETATM   23  C22 MC3 X 301      22.337  43.326  21.315  1.00 55.64     0.000 C 
ENDBRANCH  21  22
ENDBRANCH  20  21
ENDBRANCH  19  20
ENDBRANCH  18  19
ENDBRANCH  17  18
ENDBRANCH  16  17
ENDBRANCH  15  16
ENDBRANCH  14  15
ENDBRANCH  13  14
ENDBRANCH   1  13
TORSDOF 18
ENDMDL
MODEL 5
REMARK VINA RESULT:      -5.1      6.621      8.840
REMARK  18 active torsions:
REMARK  status: ('A' for Active; 'I' for Inactive)
REMARK    1  A    between atoms: P_1  and  O1P_2 
REMARK    2  A    between atoms: P_1  and  O2P_4 
REMARK    3  A    between atoms: P_1  and  O3P_6 
REMARK    4  A    between atoms: O3P_6  and  C1_7 
REMARK    5  A    between atoms: C1_7  and  C2_8 
REMARK    6  A    between atoms: C2_8  and  C3_9 
REMARK    7  A    between atoms: C3_9  and  O3_10 
REMARK    8  A    between atoms: O3_10  and  C11_11 
REMARK    9  A    between atoms: C11_11  and  C12_13 
REMARK   10  A    between atoms: C12_13  and  C13_14 
REMARK   11  A    between atoms: C13_14  and  C14_15 
REMARK   12  A    between atoms: C14_15  and  C15_16 
REMARK   13  A    between atoms: C15_16  and  C16_17 
REMARK   14  A    between atoms: C16_17  and  C17_18 
REMARK   15  A    between atoms: C17_18  and  C18_19 
REMARK   16  A    between atoms: C18_19  and  C19_20 
REMARK   17  A    between atoms: C19_20  and  C20_21 
REMARK   18  A    between atoms: C20_21  and  C21_22 
ROOT
HETATM    1  C11 MC3 X 301      19.619  40.451  18.718  1.00 74.30     0.258 C 
HETATM    2  O11 MC3 X 301      19.062  40.046  17.740  1.00 71.30    -0.265 OA
ENDROOT
BRANCH   1   3
HETATM    3  O3  MC3 X 301      19.688  39.741  19.842  1.00 84.33    -0.321 OA
BRANCH   3   4
HETATM    4  C3  MC3 X 301      20.472  38.527  19.788  1.00 88.26     0.185 C 
BRANCH   4   5
HETATM    5  C2  MC3 X 301      20.743  38.029  21.191  1.00 84.83     0.042 C 
BRANCH   5   6
HETATM    6  C1  MC3 X 301      19.565  37.326  21.825  1.00 87.52     0.185 C 
BRANCH   6   7
HETATM    7  O3P MC3 X 301      19.194  38.049  23.032  1.00 93.34    -0.317 OA
BRANCH   7   8
HETATM    8  P   MC3 X 301      19.312  37.326  24.462  1.00 99.76     0.329 P 
BRANCH   8   9
HETATM    9  O1P MC3 X 301      17.946  37.128  25.075  1.00 79.99    -0.328 OA
HETATM   10  H1P MC3 X 301      17.307  36.773  24.469  1.00  0.00     0.219 HD
ENDBRANCH   8   9
BRANCH   8  11
HETATM   11  O2P MC3 X 301      20.236  38.360  25.275  1.00 83.77    -0.328 OA
HETATM   12  H2P MC3 X 301      21.158  38.295  25.059  1.00  0.00     0.219 HD
ENDBRANCH   8  11
ENDBRANCH   7   8
ENDBRANCH   6   7
ENDBRANCH   5   6
ENDBRANCH   4   5
ENDBRANCH   3   4
ENDBRANCH   1   3
BRANCH   1  13
HETATM   13  C12 MC3 X 301      20.350  41.773  18.834  1.00 70.26     0.111 C 
BRANCH  13  14
HETATM   14  C13 MC3 X 301      19.545  42.888  19.439  1.00 68.05     0.010 C 
BRANCH  14  15
HETATM   15  C14 MC3 X 301      20.386  43.917  20.201  1.00 65.69     0.000 C 
BRANCH  15  16
HETATM   16  C15 MC3 X 301      21.740  44.206  19.559  1.00 64.07     0.000 C 
BRANCH  16  17
HETATM   17  C16 MC3 X 301      22.933  44.242  20.509  1.00 63.64     0.000 C 
BRANCH  17  18
HETATM   18  C17 MC3 X 301      22.731  43.457  21.795  1.00 65.61     0.000 C 
BRANCH  18  19
HETATM   19  C18 MC3 X 301      23.520  42.162  21.885  1.00 65.35     0.000 C 
BRANCH  19  20
HETATM   20  C19 MC3 X 301      22.939  41.013  21.086  1.00 59.74     0.000 C 
BRANCH  20  21
HETATM   21  C20 MC3 X 301      23.920  40.339  20.131  1.00 58.18     0.000 C 
BRANCH  21  22
HETATM   22  C21 MC3 X 301      25.020  41.246  19.622  1.00 54.24     0.000 C 
HETATM   23  C22 MC3 X 301      24.732  41.938  18.316  1.00 55.64     0.000 C 
ENDBRANCH  21  22
ENDBRANCH  20  21
ENDBRANCH  19  20
ENDBRANCH  18  19
ENDBRANCH  17  18
ENDBRANCH  16  17
ENDBRANCH  15  16
ENDBRANCH  14  15
ENDBRANCH  13  14
ENDBRANCH   1  13
TORSDOF 18
ENDMDL
MODEL 6
REMARK VINA RESULT:      -5.1      2.640      5.059
REMARK  18 active torsions:
REMARK  status: ('A' for Active; 'I' for Inactive)
REMARK    1  A    between atoms: P_1  and  O1P_2 
REMARK    2  A    between atoms: P_1  and  O2P_4 
REMARK    3  A    between atoms: P_1  and  O3P_6 
REMARK    4  A    between atoms: O3P_6  and  C1_7 
REMARK    5  A    between atoms: C1_7  and  C2_8 
REMARK    6  A    between atoms: C2_8  and  C3_9 
REMARK    7  A    between atoms: C3_9  and  O3_10 
REMARK    8  A    between atoms: O3_10  and  C11_11 
REMARK    9  A    between atoms: C11_11  and  C12_13 
REMARK   10  A    between atoms: C12_13  and  C13_14 
REMARK   11  A    between atoms: C13_14  and  C14_15 
REMARK   12  A    between atoms: C14_15  and  C15_16 
REMARK   13  A    between atoms: C15_16  and  C16_17 
REMARK   14  A    between atoms: C16_17  and  C17_18 
REMARK   15  A    between atoms: C17_18  and  C18_19 
REMARK   16  A    between atoms: C18_19  and  C19_20 
REMARK   17  A    between atoms: C19_20  and  C20_21 
REMARK   18  A    between atoms: C20_21  and  C21_22 
ROOT
HETATM    1  C11 MC3 X 301      19.553  42.631  18.493  1.00 74.30     0.258 C 
HETATM    2  O11 MC3 X 301      19.491  42.039  19.530  1.00 71.30    -0.265 OA
ENDROOT
BRANCH   1   3
HETATM    3  O3  MC3 X 301      18.995  42.167  17.376  1.00 84.33    -0.321 OA
BRANCH   3   4
HETATM    4  C3  MC3 X 301      17.645  42.607  17.101  1.00 88.26     0.185 C 
BRANCH   4   5
HETATM    5  C2  MC3 X 301      16.820  41.445  16.595  1.00 84.83     0.042 C 
BRANCH   5   6
HETATM    6  C1  MC3 X 301      17.003  41.165  15.120  1.00 87.52     0.185 C 
BRANCH   6   7
HETATM    7  O3P MC3 X 301      15.703  40.847  14.549  1.00 93.34    -0.317 OA
BRANCH   7   8
HETATM    8  P   MC3 X 301      15.251  41.531  13.167  1.00 99.76     0.329 P 
BRANCH   8   9
HETATM    9  O1P MC3 X 301      16.268  42.554  12.720  1.00 79.99    -0.328 OA
HETATM   10  H1P MC3 X 301      16.085  42.921  11.863  1.00  0.00     0.219 HD
ENDBRANCH   8   9
BRANCH   8  11
HETATM   11  O2P MC3 X 301      13.832  42.170  13.568  1.00 83.77    -0.328 OA
HETATM   12  H2P MC3 X 301      13.090  41.636  13.310  1.00  0.00     0.219 HD
ENDBRANCH   8  11
ENDBRANCH   7   8
ENDBRANCH   6   7
ENDBRANCH   5   6
ENDBRANCH   4   5
ENDBRANCH   3   4
ENDBRANCH   1   3
BRANCH   1  13
HETATM   13  C12 MC3 X 301      20.214  43.977  18.281  1.00 70.26     0.111 C 
BRANCH  13  14
HETATM   14  C13 MC3 X 301      19.794  45.045  19.251  1.00 68.05     0.010 C 
BRANCH  14  15
HETATM   15  C14 MC3 X 301      18.854  46.095  18.650  1.00 65.69     0.000 C 
BRANCH  15  16
HETATM   16  C15 MC3 X 301      18.961  46.223  17.133  1.00 64.07     0.000 C 
BRANCH  16  17
HETATM   17  C16 MC3 X 301      18.743  47.623  16.566  1.00 63.64     0.000 C 
BRANCH  17  18
HETATM   18  C17 MC3 X 301      18.653  47.675  15.050  1.00 65.61     0.000 C 
BRANCH  18  19
HETATM   19  C18 MC3 X 301      18.445  46.331  14.373  1.00 65.35     0.000 C 
BRANCH  19  20
HETATM   20  C19 MC3 X 301      19.638  45.830  13.585  1.00 59.74     0.000 C 
BRANCH  20  21
HETATM   21  C20 MC3 X 301      19.592  44.347  13.228  1.00 58.18     0.000 C 
BRANCH  21  22
HETATM   22  C21 MC3 X 301      20.240  43.438  14.250  1.00 54.24     0.000 C 
HETATM   23  C22 MC3 X 301      21.471  43.992  14.916  1.00 55.64     0.000 C 
ENDBRANCH  21  22
ENDBRANCH  20  21
ENDBRANCH  19  20
ENDBRANCH  18  19
ENDBRANCH  17  18
ENDBRANCH  16  17
ENDBRANCH  15  16
ENDBRANCH  14  15
ENDBRANCH  13  14
ENDBRANCH   1  13
TORSDOF 18
ENDMDL
MODEL 7
REMARK VINA RESULT:      -5.0      7.211     10.088
REMARK  18 active torsions:
REMARK  status: ('A' for Active; 'I' for Inactive)
REMARK    1  A    between atoms: P_1  and  O1P_2 
REMARK    2  A    between atoms: P_1  and  O2P_4 
REMARK    3  A    between atoms: P_1  and  O3P_6 
REMARK    4  A    between atoms: O3P_6  and  C1_7 
REMARK    5  A    between atoms: C1_7  and  C2_8 
REMARK    6  A    between atoms: C2_8  and  C3_9 
REMARK    7  A    between atoms: C3_9  and  O3_10 
REMARK    8  A    between atoms: O3_10  and  C11_11 
REMARK    9  A    between atoms: C11_11  and  C12_13 
REMARK   10  A    between atoms: C12_13  and  C13_14 
REMARK   11  A    between atoms: C13_14  and  C14_15 
REMARK   12  A    between atoms: C14_15  and  C15_16 
REMARK   13  A    between atoms: C15_16  and  C16_17 
REMARK   14  A    between atoms: C16_17  and  C17_18 
REMARK   15  A    between atoms: C17_18  and  C18_19 
REMARK   16  A    between atoms: C18_19  and  C19_20 
REMARK   17  A    between atoms: C19_20  and  C20_21 
REMARK   18  A    between atoms: C20_21  and  C21_22 
ROOT
HETATM    1  C11 MC3 X 301      22.244  40.377  20.609  1.00 74.30     0.258 C 
HETATM    2  O11 MC3 X 301      21.174  40.496  20.088  1.00 71.30    -0.265 OA
ENDROOT
BRANCH   1   3
HETATM    3  O3  MC3 X 301      22.574  39.297  21.315  1.00 84.33    -0.321 OA
BRANCH   3   4
HETATM    4  C3  MC3 X 301      21.757  38.122  21.109  1.00 88.26     0.185 C 
BRANCH   4   5
HETATM    5  C2  MC3 X 301      22.569  36.877  21.394  1.00 84.83     0.042 C 
BRANCH   5   6
HETATM    6  C1  MC3 X 301      22.026  36.043  22.532  1.00 87.52     0.185 C 
BRANCH   6   7
HETATM    7  O3P MC3 X 301      22.394  36.684  23.786  1.00 93.34    -0.317 OA
BRANCH   7   8
HETATM    8  P   MC3 X 301      21.245  37.196  24.786  1.00 99.76     0.329 P 
BRANCH   8   9
HETATM    9  O1P MC3 X 301      19.926  37.326  24.061  1.00 79.99    -0.328 OA
HETATM   10  H1P MC3 X 301      19.759  36.620  23.449  1.00  0.00     0.219 HD
ENDBRANCH   8   9
BRANCH   8  11
HETATM   11  O2P MC3 X 301      21.846  38.603  25.280  1.00 83.77    -0.328 OA
HETATM   12  H2P MC3 X 301      22.755  38.552  25.551  1.00  0.00     0.219 HD
ENDBRANCH   8  11
ENDBRANCH   7   8
ENDBRANCH   6   7
ENDBRANCH   5   6
ENDBRANCH   4   5
ENDBRANCH   3   4
ENDBRANCH   1   3
BRANCH   1  13
HETATM   13  C12 MC3 X 301      23.381  41.375  20.531  1.00 70.26     0.111 C 
BRANCH  13  14
HETATM   14  C13 MC3 X 301      23.359  42.441  21.588  1.00 68.05     0.010 C 
BRANCH  14  15
HETATM   15  C14 MC3 X 301      23.132  43.854  21.041  1.00 65.69     0.000 C 
BRANCH  15  16
HETATM   16  C15 MC3 X 301      21.767  44.051  20.387  1.00 64.07     0.000 C 
BRANCH  16  17
HETATM   17  C16 MC3 X 301      21.783  44.355  18.892  1.00 63.64     0.000 C 
BRANCH  17  18
HETATM   18  C17 MC3 X 301      20.892  43.446  18.061  1.00 65.61     0.000 C 
BRANCH  18  19
HETATM   19  C18 MC3 X 301      19.872  44.167  17.195  1.00 65.35     0.000 C 
BRANCH  19  20
HETATM   20  C19 MC3 X 301      18.739  44.816  17.963  1.00 59.74     0.000 C 
BRANCH  20  21
HETATM   21  C20 MC3 X 301      18.748  46.342  17.945  1.00 58.18     0.000 C 
BRANCH  21  22
HETATM   22  C21 MC3 X 301      18.991  46.950  16.581  1.00 54.24     0.000 C 
HETATM   23  C22 MC3 X 301      18.417  48.326  16.376  1.00 55.64     0.000 C 
ENDBRANCH  21  22
ENDBRANCH  20  21
ENDBRANCH  19  20
ENDBRANCH  18  19
ENDBRANCH  17  18
ENDBRANCH  16  17
ENDBRANCH  15  16
ENDBRANCH  14  15
ENDBRANCH  13  14
ENDBRANCH   1  13
TORSDOF 18
ENDMDL
MODEL 8
REMARK VINA RESULT:      -5.0      5.274      8.380
REMARK  18 active torsions:
REMARK  status: ('A' for Active; 'I' for Inactive)
REMARK    1  A    between atoms: P_1  and  O1P_2 
REMARK    2  A    between atoms: P_1  and  O2P_4 
REMARK    3  A    between atoms: P_1  and  O3P_6 
REMARK    4  A    between atoms: O3P_6  and  C1_7 
REMARK    5  A    between atoms: C1_7  and  C2_8 
REMARK    6  A    between atoms: C2_8  and  C3_9 
REMARK    7  A    between atoms: C3_9  and  O3_10 
REMARK    8  A    between atoms: O3_10  and  C11_11 
REMARK    9  A    between atoms: C11_11  and  C12_13 
REMARK   10  A    between atoms: C12_13  and  C13_14 
REMARK   11  A    between atoms: C13_14  and  C14_15 
REMARK   12  A    between atoms: C14_15  and  C15_16 
REMARK   13  A    between atoms: C15_16  and  C16_17 
REMARK   14  A    between atoms: C16_17  and  C17_18 
REMARK   15  A    between atoms: C17_18  and  C18_19 
REMARK   16  A    between atoms: C18_19  and  C19_20 
REMARK   17  A    between atoms: C19_20  and  C20_21 
REMARK   18  A    between atoms: C20_21  and  C21_22 
ROOT
HETATM    1  C11 MC3 X 301      18.874  42.360  17.754  1.00 74.30     0.258 C 
HETATM    2  O11 MC3 X 301      18.460  41.625  18.603  1.00 71.30    -0.265 OA
ENDROOT
BRANCH   1   3
HETATM    3  O3  MC3 X 301      20.103  42.247  17.255  1.00 84.33    -0.321 OA
BRANCH   3   4
HETATM    4  C3  MC3 X 301      21.167  42.026  18.211  1.00 88.26     0.185 C 
BRANCH   4   5
HETATM    5  C2  MC3 X 301      21.766  43.352  18.626  1.00 84.83     0.042 C 
BRANCH   5   6
HETATM    6  C1  MC3 X 301      21.191  43.904  19.911  1.00 87.52     0.185 C 
BRANCH   6   7
HETATM    7  O3P MC3 X 301      21.613  43.046  21.008  1.00 93.34    -0.317 OA
BRANCH   7   8
HETATM    8  P   MC3 X 301      23.151  43.042  21.471  1.00 99.76     0.329 P 
BRANCH   8   9
HETATM    9  O1P MC3 X 301      23.256  42.940  22.974  1.00 79.99    -0.328 OA
HETATM   10  H1P MC3 X 301      22.825  42.174  23.332  1.00  0.00     0.219 HD
ENDBRANCH   8   9
BRANCH   8  11
HETATM   11  O2P MC3 X 301      23.671  44.446  20.886  1.00 83.77    -0.328 OA
HETATM   12  H2P MC3 X 301      23.128  44.789  20.187  1.00  0.00     0.219 HD
ENDBRANCH   8  11
ENDBRANCH   7   8
ENDBRANCH   6   7
ENDBRANCH   5   6
ENDBRANCH   4   5
ENDBRANCH   3   4
ENDBRANCH   1   3
BRANCH   1  13
HETATM   13  C12 MC3 X 301      18.092  43.478  17.095  1.00 70.26     0.111 C 
BRANCH  13  14
HETATM   14  C13 MC3 X 301      18.068  44.768  17.864  1.00 68.05     0.010 C 
BRANCH  14  15
HETATM   15  C14 MC3 X 301      19.162  45.758  17.450  1.00 65.69     0.000 C 
BRANCH  15  16
HETATM   16  C15 MC3 X 301      18.694  47.210  17.400  1.00 64.07     0.000 C 
BRANCH  16  17
HETATM   17  C16 MC3 X 301      18.910  47.934  16.075  1.00 63.64     0.000 C 
BRANCH  17  18
HETATM   18  C17 MC3 X 301      18.646  47.080  14.846  1.00 65.61     0.000 C 
BRANCH  18  19
HETATM   19  C18 MC3 X 301      19.876  46.417  14.250  1.00 65.35     0.000 C 
BRANCH  19  20
HETATM   20  C19 MC3 X 301      19.590  45.488  13.087  1.00 59.74     0.000 C 
BRANCH  20  21
HETATM   21  C20 MC3 X 301      18.268  44.732  13.184  1.00 58.18     0.000 C 
BRANCH  21  22
HETATM   22  C21 MC3 X 301      18.063  43.691  12.105  1.00 54.24     0.000 C 
HETATM   23  C22 MC3 X 301      18.781  43.955  10.809  1.00 55.64     0.000 C 
ENDBRANCH  21  22
ENDBRANCH  20  21
ENDBRANCH  19  20
ENDBRANCH  18  19
ENDBRANCH  17  18
ENDBRANCH  16  17
ENDBRANCH  15  16
ENDBRANCH  14  15
ENDBRANCH  13  14
ENDBRANCH   1  13
TORSDOF 18
ENDMDL
MODEL 9
REMARK VINA RESULT:      -5.0      2.467      3.811
REMARK  18 active torsions:
REMARK  status: ('A' for Active; 'I' for Inactive)
REMARK    1  A    between atoms: P_1  and  O1P_2 
REMARK    2  A    between atoms: P_1  and  O2P_4 
REMARK    3  A    between atoms: P_1  and  O3P_6 
REMARK    4  A    between atoms: O3P_6  and  C1_7 
REMARK    5  A    between atoms: C1_7  and  C2_8 
REMARK    6  A    between atoms: C2_8  and  C3_9 
REMARK    7  A    between atoms: C3_9  and  O3_10 
REMARK    8  A    between atoms: O3_10  and  C11_11 
REMARK    9  A    between atoms: C11_11  and  C12_13 
REMARK   10  A    between atoms: C12_13  and  C13_14 
REMARK   11  A    between atoms: C13_14  and  C14_15 
REMARK   12  A    between atoms: C14_15  and  C15_16 
REMARK   13  A    between atoms: C15_16  and  C16_17 
REMARK   14  A    between atoms: C16_17  and  C17_18 
REMARK   15  A    between atoms: C17_18  and  C18_19 
REMARK   16  A    between atoms: C18_19  and  C19_20 
REMARK   17  A    between atoms: C19_20  and  C20_21 
REMARK   18  A    between atoms: C20_21  and  C21_22 
ROOT
HETATM    1  C11 MC3 X 301      18.797  45.007  15.309  1.00 74.30     0.258 C 
HETATM    2  O11 MC3 X 301      18.769  46.007  14.653  1.00 71.30    -0.265 OA
ENDROOT
BRANCH   1   3
HETATM    3  O3  MC3 X 301      18.086  43.928  14.990  1.00 84.33    -0.321 OA
BRANCH   3   4
HETATM    4  C3  MC3 X 301      18.723  42.649  15.215  1.00 88.26     0.185 C 
BRANCH   4   5
HETATM    5  C2  MC3 X 301      17.795  41.745  15.997  1.00 84.83     0.042 C 
BRANCH   5   6
HETATM    6  C1  MC3 X 301      17.038  40.759  15.135  1.00 87.52     0.185 C 
BRANCH   6   7
HETATM    7  O3P MC3 X 301      15.728  41.319  14.841  1.00 93.34    -0.317 OA
BRANCH   7   8
HETATM    8  P   MC3 X 301      15.322  41.643  13.320  1.00 99.76     0.329 P 
BRANCH   8   9
HETATM    9  O1P MC3 X 301      16.230  42.701  12.739  1.00 79.99    -0.328 OA
HETATM   10  H1P MC3 X 301      17.110  42.390  12.564  1.00  0.00     0.219 HD
ENDBRANCH   8   9
BRANCH   8  11
HETATM   11  O2P MC3 X 301      13.798  42.126  13.484  1.00 83.77    -0.328 OA
HETATM   12  H2P MC3 X 301      13.623  42.549  14.316  1.00  0.00     0.219 HD
ENDBRANCH   8  11
ENDBRANCH   7   8
ENDBRANCH   6   7
ENDBRANCH   5   6
ENDBRANCH   4   5
ENDBRANCH   3   4
ENDBRANCH   1   3
BRANCH   1  13
HETATM   13  C12 MC3 X 301      19.642  44.786  16.547  1.00 70.26     0.111 C 
BRANCH  13  14
HETATM   14  C13 MC3 X 301      18.900  44.909  17.848  1.00 68.05     0.010 C 
BRANCH  14  15
HETATM   15  C14 MC3 X 301      19.811  45.069  19.069  1.00 65.69     0.000 C 
BRANCH  15  16
HETATM   16  C15 MC3 X 301      20.051  43.771  19.834  1.00 64.07     0.000 C 
BRANCH  16  17
HETATM   17  C16 MC3 X 301      19.244  42.563  19.367  1.00 63.64     0.000 C 
BRANCH  17  18
HETATM   18  C17 MC3 X 301      20.088  41.386  18.909  1.00 65.61     0.000 C 
BRANCH  18  19
HETATM   19  C18 MC3 X 301      21.185  41.732  17.915  1.00 65.35     0.000 C 
BRANCH  19  20
HETATM   20  C19 MC3 X 301      22.593  41.490  18.421  1.00 59.74     0.000 C 
BRANCH  20  21
HETATM   21  C20 MC3 X 301      23.500  42.717  18.396  1.00 58.18     0.000 C 
BRANCH  21  22
HETATM   22  C21 MC3 X 301      23.692  43.379  19.743  1.00 54.24     0.000 C 
HETATM   23  C22 MC3 X 301      23.605  44.882  19.740  1.00 55.64     0.000 C 
ENDBRANCH  21  22
ENDBRANCH  20  21
ENDBRANCH  19  20
ENDBRANCH  18  19
ENDBRANCH  17  18
ENDBRANCH  16  17
ENDBRANCH  15  16
ENDBRANCH  14  15
ENDBRANCH  13  14
ENDBRANCH   1  13
TORSDOF 18
ENDMDL
MODEL 10
REMARK VINA RESULT:      -4.9      1.678      2.317
REMARK  18 active torsions:
REMARK  status: ('A' for Active; 'I' for Inactive)
REMARK    1  A    between atoms: P_1  and  O1P_2 
REMARK    2  A    between atoms: P_1  and  O2P_4 
REMARK    3  A    between atoms: P_1  and  O3P_6 
REMARK    4  A    between atoms: O3P_6  and  C1_7 
REMARK    5  A    between atoms: C1_7  and  C2_8 
REMARK    6  A    between atoms: C2_8  and  C3_9 
REMARK    7  A    between atoms: C3_9  and  O3_10 
REMARK    8  A    between atoms: O3_10  and  C11_11 
REMARK    9  A    between atoms: C11_11  and  C12_13 
REMARK   10  A    between atoms: C12_13  and  C13_14 
REMARK   11  A    between atoms: C13_14  and  C14_15 
REMARK   12  A    between atoms: C14_15  and  C15_16 
REMARK   13  A    between atoms: C15_16  and  C16_17 
REMARK   14  A    between atoms: C16_17  and  C17_18 
REMARK   15  A    between atoms: C17_18  and  C18_19 
REMARK   16  A    between atoms: C18_19  and  C19_20 
REMARK   17  A    between atoms: C19_20  and  C20_21 
REMARK   18  A    between atoms: C20_21  and  C21_22 
ROOT
HETATM    1  C11 MC3 X 301      18.353  44.536  13.130  1.00 74.30     0.258 C 
HETATM    2  O11 MC3 X 301      18.439  44.917  12.000  1.00 71.30    -0.265 OA
ENDROOT
BRANCH   1   3
HETATM    3  O3  MC3 X 301      17.638  43.465  13.467  1.00 84.33    -0.321 OA
BRANCH   3   4
HETATM    4  C3  MC3 X 301      16.988  42.761  12.383  1.00 88.26     0.185 C 
BRANCH   4   5
HETATM    5  C2  MC3 X 301      17.107  41.268  12.597  1.00 84.83     0.042 C 
BRANCH   5   6
HETATM    6  C1  MC3 X 301      15.967  40.675  13.395  1.00 87.52     0.185 C 
BRANCH   6   7
HETATM    7  O3P MC3 X 301      15.288  39.692  12.564  1.00 93.34    -0.317 OA
BRANCH   7   8
HETATM    8  P   MC3 X 301      13.849  40.036  11.938  1.00 99.76     0.329 P 
BRANCH   8   9
HETATM    9  O1P MC3 X 301      13.956  40.269  10.449  1.00 79.99    -0.328 OA
HETATM   10  H1P MC3 X 301      13.381  40.955  10.131  1.00  0.00     0.219 HD
ENDBRANCH   8   9
BRANCH   8  11
HETATM   11  O2P MC3 X 301      13.440  41.353  12.765  1.00 83.77    -0.328 OA
HETATM   12  H2P MC3 X 301      12.980  41.164  13.574  1.00  0.00     0.219 HD
ENDBRANCH   8  11
ENDBRANCH   7   8
ENDBRANCH   6   7
ENDBRANCH   5   6
ENDBRANCH   4   5
ENDBRANCH   3   4
ENDBRANCH   1   3
BRANCH   1  13
HETATM   13  C12 MC3 X 301      19.045  45.157  14.327  1.00 70.26     0.111 C 
BRANCH  13  14
HETATM   14  C13 MC3 X 301      19.218  46.647  14.253  1.00 68.05     0.010 C 
BRANCH  14  15
HETATM   15  C14 MC3 X 301      18.396  47.420  15.289  1.00 65.69     0.000 C 
BRANCH  15  16
HETATM   16  C15 MC3 X 301      19.130  47.657  16.607  1.00 64.07     0.000 C 
BRANCH  16  17
HETATM   17  C16 MC3 X 301      18.496  47.027  17.844  1.00 63.64     0.000 C 
BRANCH  17  18
HETATM   18  C17 MC3 X 301      18.599  45.512  17.896  1.00 65.61     0.000 C 
BRANCH  18  19
HETATM   19  C18 MC3 X 301      20.017  44.965  17.895  1.00 65.35     0.000 C 
BRANCH  19  20
HETATM   20  C19 MC3 X 301      20.463  44.370  19.215  1.00 59.74     0.000 C 
BRANCH  20  21
HETATM   21  C20 MC3 X 301      19.639  43.175  19.688  1.00 58.18     0.000 C 
BRANCH  21  22
HETATM   22  C21 MC3 X 301      19.393  42.127  18.625  1.00 54.24     0.000 C 
HETATM   23  C22 MC3 X 301      18.480  41.001  19.029  1.00 55.64     0.000 C 
ENDBRANCH  21  22
ENDBRANCH  20  21
ENDBRANCH  19  20
ENDBRANCH  18  19
ENDBRANCH  17  18
ENDBRANCH  16  17
ENDBRANCH  15  16
ENDBRANCH  14  15
ENDBRANCH  13  14
ENDBRANCH   1  13
TORSDOF 18
ENDMDL
