MODEL 1
REMARK VINA RESULT:      -4.2      0.000      0.000
REMARK  18 active torsions:
REMARK  status: ('A' for Active; 'I' for Inactive)
REMARK    1  A    between atoms: P_1  and  O1P_2 
REMARK    2  A    between atoms: P_1  and  O2P_4 
REMARK    3  A    between atoms: P_1  and  O3P_6 
REMARK    4  A    between atoms: O3P_6  and  C1_7 
REMARK    5  A    between atoms: C1_7  and  C2_8 
REMARK    6  A    between atoms: C2_8  and  C3_9 
REMARK    7  A    between atoms: C3_9  and  O3_10 
REMARK    8  A    between atoms: O3_10  and  C11_11 
REMARK    9  A    between atoms: C11_11  and  C12_13 
REMARK   10  A    between atoms: C12_13  and  C13_14 
REMARK   11  A    between atoms: C13_14  and  C14_15 
REMARK   12  A    between atoms: C14_15  and  C15_16 
REMARK   13  A    between atoms: C15_16  and  C16_17 
REMARK   14  A    between atoms: C16_17  and  C17_18 
REMARK   15  A    between atoms: C17_18  and  C18_19 
REMARK   16  A    between atoms: C18_19  and  C19_20 
REMARK   17  A    between atoms: C19_20  and  C20_21 
REMARK   18  A    between atoms: C20_21  and  C21_22 
ROOT
HETATM    1  C11 MC3 X 301      21.710  33.521  22.399  1.00 74.30     0.258 C 
HETATM    2  O11 MC3 X 301      21.470  32.857  21.434  1.00 71.30    -0.265 OA
ENDROOT
BRANCH   1   3
HETATM    3  O3  MC3 X 301      21.966  32.980  23.588  1.00 84.33    -0.321 OA
BRANCH   3   4
HETATM    4  C3  MC3 X 301      21.141  31.856  23.972  1.00 88.26     0.185 C 
BRANCH   4   5
HETATM    5  C2  MC3 X 301      22.008  30.634  24.190  1.00 84.83     0.042 C 
BRANCH   5   6
HETATM    6  C1  MC3 X 301      21.662  29.474  23.284  1.00 87.52     0.185 C 
BRANCH   6   7
HETATM    7  O3P MC3 X 301      22.900  28.925  22.750  1.00 93.34    -0.317 OA
BRANCH   7   8
HETATM    8  P   MC3 X 301      23.133  28.886  21.161  1.00 99.76     0.329 P 
BRANCH   8   9
HETATM    9  O1P MC3 X 301      24.444  28.213  20.830  1.00 79.99    -0.328 OA
HETATM   10  H1P MC3 X 301      24.383  27.266  20.788  1.00  0.00     0.219 HD
ENDBRANCH   8   9
BRANCH   8  11
HETATM   11  O2P MC3 X 301      23.105  30.450  20.788  1.00 83.77    -0.328 OA
HETATM   12  H2P MC3 X 301      22.380  30.691  20.224  1.00  0.00     0.219 HD
ENDBRANCH   8  11
ENDBRANCH   7   8
ENDBRANCH   6   7
ENDBRANCH   5   6
ENDBRANCH   4   5
ENDBRANCH   3   4
ENDBRANCH   1   3
BRANCH   1  13
HETATM   13  C12 MC3 X 301      21.803  35.033  22.431  1.00 70.26     0.111 C 
BRANCH  13  14
HETATM   14  C13 MC3 X 301      22.893  35.580  23.308  1.00 68.05     0.010 C 
BRANCH  14  15
HETATM   15  C14 MC3 X 301      22.825  37.098  23.509  1.00 65.69     0.000 C 
BRANCH  15  16
HETATM   16  C15 MC3 X 301      21.985  37.822  22.461  1.00 64.07     0.000 C 
BRANCH  16  17
HETATM   17  C16 MC3 X 301      22.758  38.681  21.464  1.00 63.64     0.000 C 
BRANCH  17  18
HETATM   18  C17 MC3 X 301      21.892  39.632  20.656  1.00 65.61     0.000 C 
BRANCH  18  19
HETATM   19  C18 MC3 X 301      22.515  40.992  20.384  1.00 65.35     0.000 C 
BRANCH  19  20
HETATM   20  C19 MC3 X 301      23.333  41.550  21.530  1.00 59.74     0.000 C 
BRANCH  20  21
HETATM   21  C20 MC3 X 301      23.027  43.003  21.885  1.00 58.18     0.000 C 
BRANCH  21  22
HETATM   22  C21 MC3 X 301      22.459  43.818  20.743  1.00 54.24     0.000 C 
HETATM   23  C22 MC3 X 301      23.459  44.650  19.985  1.00 55.64     0.000 C 
ENDBRANCH  21  22
ENDBRANCH  20  21
ENDBRANCH  19  20
ENDBRANCH  18  19
ENDBRANCH  17  18
ENDBRANCH  16  17
ENDBRANCH  15  16
ENDBRANCH  14  15
ENDBRANCH  13  14
ENDBRANCH   1  13
TORSDOF 18
ENDMDL
MODEL 2
REMARK VINA RESULT:      -4.2     10.032     12.557
REMARK  18 active torsions:
REMARK  status: ('A' for Active; 'I' for Inactive)
REMARK    1  A    between atoms: P_1  and  O1P_2 
REMARK    2  A    between atoms: P_1  and  O2P_4 
REMARK    3  A    between atoms: P_1  and  O3P_6 
REMARK    4  A    between atoms: O3P_6  and  C1_7 
REMARK    5  A    between atoms: C1_7  and  C2_8 
REMARK    6  A    between atoms: C2_8  and  C3_9 
REMARK    7  A    between atoms: C3_9  and  O3_10 
REMARK    8  A    between atoms: O3_10  and  C11_11 
REMARK    9  A    between atoms: C11_11  and  C12_13 
REMARK   10  A    between atoms: C12_13  and  C13_14 
REMARK   11  A    between atoms: C13_14  and  C14_15 
REMARK   12  A    between atoms: C14_15  and  C15_16 
REMARK   13  A    between atoms: C15_16  and  C16_17 
REMARK   14  A    between atoms: C16_17  and  C17_18 
REMARK   15  A    between atoms: C17_18  and  C18_19 
REMARK   16  A    between atoms: C18_19  and  C19_20 
REMARK   17  A    between atoms: C19_20  and  C20_21 
REMARK   18  A    between atoms: C20_21  and  C21_22 
ROOT
HETATM    1  C11 MC3 X 301      19.188  45.302  16.479  1.00 74.30     0.258 C 
HETATM    2  O11 MC3 X 301      19.819  46.173  15.957  1.00 71.30    -0.265 OA
ENDROOT
BRANCH   1   3
HETATM    3  O3  MC3 X 301      18.685  45.427  17.706  1.00 84.33    -0.321 OA
BRANCH   3   4
HETATM    4  C3  MC3 X 301      19.637  45.402  18.795  1.00 88.26     0.185 C 
BRANCH   4   5
HETATM    5  C2  MC3 X 301      19.601  44.050  19.475  1.00 84.83     0.042 C 
BRANCH   5   6
HETATM    6  C1  MC3 X 301      20.685  43.862  20.512  1.00 87.52     0.185 C 
BRANCH   6   7
HETATM    7  O3P MC3 X 301      21.782  44.766  20.198  1.00 93.34    -0.317 OA
BRANCH   7   8
HETATM    8  P   MC3 X 301      23.293  44.217  20.203  1.00 99.76     0.329 P 
BRANCH   8   9
HETATM    9  O1P MC3 X 301      23.570  43.429  21.462  1.00 79.99    -0.328 OA
HETATM   10  H1P MC3 X 301      24.489  43.411  21.702  1.00  0.00     0.219 HD
ENDBRANCH   8   9
BRANCH   8  11
HETATM   11  O2P MC3 X 301      24.136  45.582  20.103  1.00 83.77    -0.328 OA
HETATM   12  H2P MC3 X 301      24.251  46.018  20.939  1.00  0.00     0.219 HD
ENDBRANCH   8  11
ENDBRANCH   7   8
ENDBRANCH   6   7
ENDBRANCH   5   6
ENDBRANCH   4   5
ENDBRANCH   3   4
ENDBRANCH   1   3
BRANCH   1  13
HETATM   13  C12 MC3 X 301      18.828  43.972  15.850  1.00 70.26     0.111 C 
BRANCH  13  14
HETATM   14  C13 MC3 X 301      19.887  42.913  15.965  1.00 68.05     0.010 C 
BRANCH  14  15
HETATM   15  C14 MC3 X 301      19.784  41.813  14.903  1.00 65.69     0.000 C 
BRANCH  15  16
HETATM   16  C15 MC3 X 301      18.513  40.974  15.005  1.00 64.07     0.000 C 
BRANCH  16  17
HETATM   17  C16 MC3 X 301      17.819  40.653  13.685  1.00 63.64     0.000 C 
BRANCH  17  18
HETATM   18  C17 MC3 X 301      18.431  41.338  12.475  1.00 65.61     0.000 C 
BRANCH  18  19
HETATM   19  C18 MC3 X 301      17.727  42.611  12.035  1.00 65.35     0.000 C 
BRANCH  19  20
HETATM   20  C19 MC3 X 301      18.269  43.222  10.759  1.00 59.74     0.000 C 
BRANCH  20  21
HETATM   21  C20 MC3 X 301      18.833  44.632  10.916  1.00 58.18     0.000 C 
BRANCH  21  22
HETATM   22  C21 MC3 X 301      19.226  44.993  12.332  1.00 54.24     0.000 C 
HETATM   23  C22 MC3 X 301      20.676  44.776  12.674  1.00 55.64     0.000 C 
ENDBRANCH  21  22
ENDBRANCH  20  21
ENDBRANCH  19  20
ENDBRANCH  18  19
ENDBRANCH  17  18
ENDBRANCH  16  17
ENDBRANCH  15  16
ENDBRANCH  14  15
ENDBRANCH  13  14
ENDBRANCH   1  13
TORSDOF 18
ENDMDL
MODEL 3
REMARK VINA RESULT:      -4.0     11.430     13.604
REMARK  18 active torsions:
REMARK  status: ('A' for Active; 'I' for Inactive)
REMARK    1  A    between atoms: P_1  and  O1P_2 
REMARK    2  A    between atoms: P_1  and  O2P_4 
REMARK    3  A    between atoms: P_1  and  O3P_6 
REMARK    4  A    between atoms: O3P_6  and  C1_7 
REMARK    5  A    between atoms: C1_7  and  C2_8 
REMARK    6  A    between atoms: C2_8  and  C3_9 
REMARK    7  A    between atoms: C3_9  and  O3_10 
REMARK    8  A    between atoms: O3_10  and  C11_11 
REMARK    9  A    between atoms: C11_11  and  C12_13 
REMARK   10  A    between atoms: C12_13  and  C13_14 
REMARK   11  A    between atoms: C13_14  and  C14_15 
REMARK   12  A    between atoms: C14_15  and  C15_16 
REMARK   13  A    between atoms: C15_16  and  C16_17 
REMARK   14  A    between atoms: C16_17  and  C17_18 
REMARK   15  A    between atoms: C17_18  and  C18_19 
REMARK   16  A    between atoms: C18_19  and  C19_20 
REMARK   17  A    between atoms: C19_20  and  C20_21 
REMARK   18  A    between atoms: C20_21  and  C21_22 
ROOT
HETATM    1  C11 MC3 X 301      20.021  41.933  11.604  1.00 74.30     0.258 C 
HETATM    2  O11 MC3 X 301      20.349  41.499  10.538  1.00 71.30    -0.265 OA
ENDROOT
BRANCH   1   3
HETATM    3  O3  MC3 X 301      19.215  41.264  12.426  1.00 84.33    -0.321 OA
BRANCH   3   4
HETATM    4  C3  MC3 X 301      17.894  40.958  11.922  1.00 88.26     0.185 C 
BRANCH   4   5
HETATM    5  C2  MC3 X 301      16.874  41.867  12.572  1.00 84.83     0.042 C 
BRANCH   5   6
HETATM    6  C1  MC3 X 301      15.456  41.617  12.112  1.00 87.52     0.185 C 
BRANCH   6   7
HETATM    7  O3P MC3 X 301      15.357  41.984  10.707  1.00 93.34    -0.317 OA
BRANCH   7   8
HETATM    8  P   MC3 X 301      14.739  40.941   9.653  1.00 99.76     0.329 P 
BRANCH   8   9
HETATM    9  O1P MC3 X 301      15.352  39.572   9.834  1.00 79.99    -0.328 OA
HETATM   10  H1P MC3 X 301      15.911  39.310   9.113  1.00  0.00     0.219 HD
ENDBRANCH   8   9
BRANCH   8  11
HETATM   11  O2P MC3 X 301      15.118  41.632   8.251  1.00 83.77    -0.328 OA
HETATM   12  H2P MC3 X 301      16.020  41.488   7.990  1.00  0.00     0.219 HD
ENDBRANCH   8  11
ENDBRANCH   7   8
ENDBRANCH   6   7
ENDBRANCH   5   6
ENDBRANCH   4   5
ENDBRANCH   3   4
ENDBRANCH   1   3
BRANCH   1  13
HETATM   13  C12 MC3 X 301      20.477  43.249  12.200  1.00 70.26     0.111 C 
BRANCH  13  14
HETATM   14  C13 MC3 X 301      20.157  43.426  13.657  1.00 68.05     0.010 C 
BRANCH  14  15
HETATM   15  C14 MC3 X 301      19.072  44.472  13.932  1.00 65.69     0.000 C 
BRANCH  15  16
HETATM   16  C15 MC3 X 301      19.465  45.890  13.526  1.00 64.07     0.000 C 
BRANCH  16  17
HETATM   17  C16 MC3 X 301      19.639  46.886  14.669  1.00 63.64     0.000 C 
BRANCH  17  18
HETATM   18  C17 MC3 X 301      18.481  46.915  15.653  1.00 65.61     0.000 C 
BRANCH  18  19
HETATM   19  C18 MC3 X 301      18.864  47.258  17.083  1.00 65.35     0.000 C 
BRANCH  19  20
HETATM   20  C19 MC3 X 301      18.555  46.174  18.096  1.00 59.74     0.000 C 
BRANCH  20  21
HETATM   21  C20 MC3 X 301      19.617  45.084  18.207  1.00 58.18     0.000 C 
BRANCH  21  22
HETATM   22  C21 MC3 X 301      19.061  43.682  18.337  1.00 54.24     0.000 C 
HETATM   23  C22 MC3 X 301      18.113  43.260  17.247  1.00 55.64     0.000 C 
ENDBRANCH  21  22
ENDBRANCH  20  21
ENDBRANCH  19  20
ENDBRANCH  18  19
ENDBRANCH  17  18
ENDBRANCH  16  17
ENDBRANCH  15  16
ENDBRANCH  14  15
ENDBRANCH  13  14
ENDBRANCH   1  13
TORSDOF 18
ENDMDL
MODEL 4
REMARK VINA RESULT:      -3.9     18.736     20.206
REMARK  18 active torsions:
REMARK  status: ('A' for Active; 'I' for Inactive)
REMARK    1  A    between atoms: P_1  and  O1P_2 
REMARK    2  A    between atoms: P_1  and  O2P_4 
REMARK    3  A    between atoms: P_1  and  O3P_6 
REMARK    4  A    between atoms: O3P_6  and  C1_7 
REMARK    5  A    between atoms: C1_7  and  C2_8 
REMARK    6  A    between atoms: C2_8  and  C3_9 
REMARK    7  A    between atoms: C3_9  and  O3_10 
REMARK    8  A    between atoms: O3_10  and  C11_11 
REMARK    9  A    between atoms: C11_11  and  C12_13 
REMARK   10  A    between atoms: C12_13  and  C13_14 
REMARK   11  A    between atoms: C13_14  and  C14_15 
REMARK   12  A    between atoms: C14_15  and  C15_16 
REMARK   13  A    between atoms: C15_16  and  C16_17 
REMARK   14  A    between atoms: C16_17  and  C17_18 
REMARK   15  A    between atoms: C17_18  and  C18_19 
REMARK   16  A    between atoms: C18_19  and  C19_20 
REMARK   17  A    between atoms: C19_20  and  C20_21 
REMARK   18  A    between atoms: C20_21  and  C21_22 
ROOT
HETATM    1  C11 MC3 X 301      14.933  38.844  40.377  1.00 74.30     0.258 C 
HETATM    2  O11 MC3 X 301      13.881  39.405  40.461  1.00 71.30    -0.265 OA
ENDROOT
BRANCH   1   3
HETATM    3  O3  MC3 X 301      15.280  37.857  41.201  1.00 84.33    -0.321 OA
BRANCH   3   4
HETATM    4  C3  MC3 X 301      14.482  37.711  42.399  1.00 88.26     0.185 C 
BRANCH   4   5
HETATM    5  C2  MC3 X 301      15.370  37.806  43.621  1.00 84.83     0.042 C 
BRANCH   5   6
HETATM    6  C1  MC3 X 301      15.285  36.601  44.530  1.00 87.52     0.185 C 
BRANCH   6   7
HETATM    7  O3P MC3 X 301      14.384  35.632  43.924  1.00 93.34    -0.317 OA
BRANCH   7   8
HETATM    8  P   MC3 X 301      13.226  34.957  44.810  1.00 99.76     0.329 P 
BRANCH   8   9
HETATM    9  O1P MC3 X 301      13.025  33.513  44.417  1.00 79.99    -0.328 OA
HETATM   10  H1P MC3 X 301      13.450  32.898  45.003  1.00  0.00     0.219 HD
ENDBRANCH   8   9
BRANCH   8  11
HETATM   11  O2P MC3 X 301      11.966  35.895  44.470  1.00 83.77    -0.328 OA
HETATM   12  H2P MC3 X 301      11.939  36.178  43.564  1.00  0.00     0.219 HD
ENDBRANCH   8  11
ENDBRANCH   7   8
ENDBRANCH   6   7
ENDBRANCH   5   6
ENDBRANCH   4   5
ENDBRANCH   3   4
ENDBRANCH   1   3
BRANCH   1  13
HETATM   13  C12 MC3 X 301      16.000  39.117  39.336  1.00 70.26     0.111 C 
BRANCH  13  14
HETATM   14  C13 MC3 X 301      17.347  38.526  39.643  1.00 68.05     0.010 C 
BRANCH  14  15
HETATM   15  C14 MC3 X 301      17.846  37.537  38.585  1.00 65.69     0.000 C 
BRANCH  15  16
HETATM   16  C15 MC3 X 301      19.367  37.464  38.478  1.00 64.07     0.000 C 
BRANCH  16  17
HETATM   17  C16 MC3 X 301      20.126  38.715  38.912  1.00 63.64     0.000 C 
BRANCH  17  18
HETATM   18  C17 MC3 X 301      21.352  39.025  38.070  1.00 65.61     0.000 C 
BRANCH  18  19
HETATM   19  C18 MC3 X 301      21.130  40.046  36.966  1.00 65.35     0.000 C 
BRANCH  19  20
HETATM   20  C19 MC3 X 301      20.840  41.451  37.456  1.00 59.74     0.000 C 
BRANCH  20  21
HETATM   21  C20 MC3 X 301      19.561  42.070  36.899  1.00 58.18     0.000 C 
BRANCH  21  22
HETATM   22  C21 MC3 X 301      18.286  41.444  37.419  1.00 54.24     0.000 C 
HETATM   23  C22 MC3 X 301      17.191  42.413  37.776  1.00 55.64     0.000 C 
ENDBRANCH  21  22
ENDBRANCH  20  21
ENDBRANCH  19  20
ENDBRANCH  18  19
ENDBRANCH  17  18
ENDBRANCH  16  17
ENDBRANCH  15  16
ENDBRANCH  14  15
ENDBRANCH  13  14
ENDBRANCH   1  13
TORSDOF 18
ENDMDL
MODEL 5
REMARK VINA RESULT:      -3.9     11.448     13.072
REMARK  18 active torsions:
REMARK  status: ('A' for Active; 'I' for Inactive)
REMARK    1  A    between atoms: P_1  and  O1P_2 
REMARK    2  A    between atoms: P_1  and  O2P_4 
REMARK    3  A    between atoms: P_1  and  O3P_6 
REMARK    4  A    between atoms: O3P_6  and  C1_7 
REMARK    5  A    between atoms: C1_7  and  C2_8 
REMARK    6  A    between atoms: C2_8  and  C3_9 
REMARK    7  A    between atoms: C3_9  and  O3_10 
REMARK    8  A    between atoms: O3_10  and  C11_11 
REMARK    9  A    between atoms: C11_11  and  C12_13 
REMARK   10  A    between atoms: C12_13  and  C13_14 
REMARK   11  A    between atoms: C13_14  and  C14_15 
REMARK   12  A    between atoms: C14_15  and  C15_16 
REMARK   13  A    between atoms: C15_16  and  C16_17 
REMARK   14  A    between atoms: C16_17  and  C17_18 
REMARK   15  A    between atoms: C17_18  and  C18_19 
REMARK   16  A    between atoms: C18_19  and  C19_20 
REMARK   17  A    between atoms: C19_20  and  C20_21 
REMARK   18  A    between atoms: C20_21  and  C21_22 
ROOT
HETATM    1  C11 MC3 X 301      26.483  33.384  32.636  1.00 74.30     0.258 C 
HETATM    2  O11 MC3 X 301      25.329  33.199  32.383  1.00 71.30    -0.265 OA
ENDROOT
BRANCH   1   3
HETATM    3  O3  MC3 X 301      27.180  32.559  33.414  1.00 84.33    -0.321 OA
BRANCH   3   4
HETATM    4  C3  MC3 X 301      26.495  32.041  34.578  1.00 88.26     0.185 C 
BRANCH   4   5
HETATM    5  C2  MC3 X 301      26.643  33.009  35.732  1.00 84.83     0.042 C 
BRANCH   5   6
HETATM    6  C1  MC3 X 301      25.332  33.375  36.392  1.00 87.52     0.185 C 
BRANCH   6   7
HETATM    7  O3P MC3 X 301      24.689  34.406  35.592  1.00 93.34    -0.317 OA
BRANCH   7   8
HETATM    8  P   MC3 X 301      24.878  35.953  35.984  1.00 99.76     0.329 P 
BRANCH   8   9
HETATM    9  O1P MC3 X 301      25.796  36.644  35.003  1.00 79.99    -0.328 OA
HETATM   10  H1P MC3 X 301      25.585  37.560  34.869  1.00  0.00     0.219 HD
ENDBRANCH   8   9
BRANCH   8  11
HETATM   11  O2P MC3 X 301      25.491  35.841  37.465  1.00 83.77    -0.328 OA
HETATM   12  H2P MC3 X 301      24.956  35.326  38.058  1.00  0.00     0.219 HD
ENDBRANCH   8  11
ENDBRANCH   7   8
ENDBRANCH   6   7
ENDBRANCH   5   6
ENDBRANCH   4   5
ENDBRANCH   3   4
ENDBRANCH   1   3
BRANCH   1  13
HETATM   13  C12 MC3 X 301      27.333  34.521  32.107  1.00 70.26     0.111 C 
BRANCH  13  14
HETATM   14  C13 MC3 X 301      26.570  35.596  31.386  1.00 68.05     0.010 C 
BRANCH  14  15
HETATM   15  C14 MC3 X 301      27.043  37.017  31.708  1.00 65.69     0.000 C 
BRANCH  15  16
HETATM   16  C15 MC3 X 301      26.087  38.108  31.234  1.00 64.07     0.000 C 
BRANCH  16  17
HETATM   17  C16 MC3 X 301      25.403  38.917  32.333  1.00 63.64     0.000 C 
BRANCH  17  18
HETATM   18  C17 MC3 X 301      24.587  40.094  31.825  1.00 65.61     0.000 C 
BRANCH  18  19
HETATM   19  C18 MC3 X 301      24.589  41.313  32.732  1.00 65.35     0.000 C 
BRANCH  19  20
HETATM   20  C19 MC3 X 301      24.048  41.064  34.125  1.00 59.74     0.000 C 
BRANCH  20  21
HETATM   21  C20 MC3 X 301      22.649  40.456  34.167  1.00 58.18     0.000 C 
BRANCH  21  22
HETATM   22  C21 MC3 X 301      22.060  40.338  35.556  1.00 54.24     0.000 C 
HETATM   23  C22 MC3 X 301      22.274  39.012  36.236  1.00 55.64     0.000 C 
ENDBRANCH  21  22
ENDBRANCH  20  21
ENDBRANCH  19  20
ENDBRANCH  18  19
ENDBRANCH  17  18
ENDBRANCH  16  17
ENDBRANCH  15  16
ENDBRANCH  14  15
ENDBRANCH  13  14
ENDBRANCH   1  13
TORSDOF 18
ENDMDL
MODEL 6
REMARK VINA RESULT:      -3.9      8.906     12.218
REMARK  18 active torsions:
REMARK  status: ('A' for Active; 'I' for Inactive)
REMARK    1  A    between atoms: P_1  and  O1P_2 
REMARK    2  A    between atoms: P_1  and  O2P_4 
REMARK    3  A    between atoms: P_1  and  O3P_6 
REMARK    4  A    between atoms: O3P_6  and  C1_7 
REMARK    5  A    between atoms: C1_7  and  C2_8 
REMARK    6  A    between atoms: C2_8  and  C3_9 
REMARK    7  A    between atoms: C3_9  and  O3_10 
REMARK    8  A    between atoms: O3_10  and  C11_11 
REMARK    9  A    between atoms: C11_11  and  C12_13 
REMARK   10  A    between atoms: C12_13  and  C13_14 
REMARK   11  A    between atoms: C13_14  and  C14_15 
REMARK   12  A    between atoms: C14_15  and  C15_16 
REMARK   13  A    between atoms: C15_16  and  C16_17 
REMARK   14  A    between atoms: C16_17  and  C17_18 
REMARK   15  A    between atoms: C17_18  and  C18_19 
REMARK   16  A    between atoms: C18_19  and  C19_20 
REMARK   17  A    between atoms: C19_20  and  C20_21 
REMARK   18  A    between atoms: C20_21  and  C21_22 
ROOT
HETATM    1  C11 MC3 X 301      19.334  45.395  16.896  1.00 74.30     0.258 C 
HETATM    2  O11 MC3 X 301      19.098  46.394  17.512  1.00 71.30    -0.265 OA
ENDROOT
BRANCH   1   3
HETATM    3  O3  MC3 X 301      19.929  44.342  17.453  1.00 84.33    -0.321 OA
BRANCH   3   4
HETATM    4  C3  MC3 X 301      20.804  44.616  18.571  1.00 88.26     0.185 C 
BRANCH   4   5
HETATM    5  C2  MC3 X 301      20.315  43.877  19.798  1.00 84.83     0.042 C 
BRANCH   5   6
HETATM    6  C1  MC3 X 301      21.393  43.626  20.827  1.00 87.52     0.185 C 
BRANCH   6   7
HETATM    7  O3P MC3 X 301      22.592  43.176  20.136  1.00 93.34    -0.317 OA
BRANCH   7   8
HETATM    8  P   MC3 X 301      22.942  41.609  20.083  1.00 99.76     0.329 P 
BRANCH   8   9
HETATM    9  O1P MC3 X 301      22.265  40.873  21.215  1.00 79.99    -0.328 OA
HETATM   10  H1P MC3 X 301      22.874  40.448  21.807  1.00  0.00     0.219 HD
ENDBRANCH   8   9
BRANCH   8  11
HETATM   11  O2P MC3 X 301      24.545  41.629  20.198  1.00 83.77    -0.328 OA
HETATM   12  H2P MC3 X 301      24.859  41.707  21.091  1.00  0.00     0.219 HD
ENDBRANCH   8  11
ENDBRANCH   7   8
ENDBRANCH   6   7
ENDBRANCH   5   6
ENDBRANCH   4   5
ENDBRANCH   3   4
ENDBRANCH   1   3
BRANCH   1  13
HETATM   13  C12 MC3 X 301      18.977  45.146  15.445  1.00 70.26     0.111 C 
BRANCH  13  14
HETATM   14  C13 MC3 X 301      20.035  45.547  14.457  1.00 68.05     0.010 C 
BRANCH  14  15
HETATM   15  C14 MC3 X 301      19.517  45.714  13.025  1.00 65.69     0.000 C 
BRANCH  15  16
HETATM   16  C15 MC3 X 301      20.005  44.636  12.063  1.00 64.07     0.000 C 
BRANCH  16  17
HETATM   17  C16 MC3 X 301      18.918  43.807  11.385  1.00 63.64     0.000 C 
BRANCH  17  18
HETATM   18  C17 MC3 X 301      17.742  43.464  12.284  1.00 65.61     0.000 C 
BRANCH  18  19
HETATM   19  C18 MC3 X 301      17.975  42.296  13.227  1.00 65.35     0.000 C 
BRANCH  19  20
HETATM   20  C19 MC3 X 301      16.723  41.528  13.600  1.00 59.74     0.000 C 
BRANCH  20  21
HETATM   21  C20 MC3 X 301      16.847  40.681  14.864  1.00 58.18     0.000 C 
BRANCH  21  22
HETATM   22  C21 MC3 X 301      17.880  41.180  15.852  1.00 54.24     0.000 C 
HETATM   23  C22 MC3 X 301      17.347  42.054  16.955  1.00 55.64     0.000 C 
ENDBRANCH  21  22
ENDBRANCH  20  21
ENDBRANCH  19  20
ENDBRANCH  18  19
ENDBRANCH  17  18
ENDBRANCH  16  17
ENDBRANCH  15  16
ENDBRANCH  14  15
ENDBRANCH  13  14
ENDBRANCH   1  13
TORSDOF 18
ENDMDL
MODEL 7
REMARK VINA RESULT:      -3.8     10.939     13.001
REMARK  18 active torsions:
REMARK  status: ('A' for Active; 'I' for Inactive)
REMARK    1  A    between atoms: P_1  and  O1P_2 
REMARK    2  A    between atoms: P_1  and  O2P_4 
REMARK    3  A    between atoms: P_1  and  O3P_6 
REMARK    4  A    between atoms: O3P_6  and  C1_7 
REMARK    5  A    between atoms: C1_7  and  C2_8 
REMARK    6  A    between atoms: C2_8  and  C3_9 
REMARK    7  A    between atoms: C3_9  and  O3_10 
REMARK    8  A    between atoms: O3_10  and  C11_11 
REMARK    9  A    between atoms: C11_11  and  C12_13 
REMARK   10  A    between atoms: C12_13  and  C13_14 
REMARK   11  A    between atoms: C13_14  and  C14_15 
REMARK   12  A    between atoms: C14_15  and  C15_16 
REMARK   13  A    between atoms: C15_16  and  C16_17 
REMARK   14  A    between atoms: C16_17  and  C17_18 
REMARK   15  A    between atoms: C17_18  and  C18_19 
REMARK   16  A    between atoms: C18_19  and  C19_20 
REMARK   17  A    between atoms: C19_20  and  C20_21 
REMARK   18  A    between atoms: C20_21  and  C21_22 
ROOT
HETATM    1  C11 MC3 X 301      23.708  43.553  14.655  1.00 74.30     0.258 C 
HETATM    2  O11 MC3 X 301      24.617  44.259  14.330  1.00 71.30    -0.265 OA
ENDROOT
BRANCH   1   3
HETATM    3  O3  MC3 X 301      22.566  43.505  13.971  1.00 84.33    -0.321 OA
BRANCH   3   4
HETATM    4  C3  MC3 X 301      21.363  43.822  14.708  1.00 88.26     0.185 C 
BRANCH   4   5
HETATM    5  C2  MC3 X 301      20.735  45.080  14.147  1.00 84.83     0.042 C 
BRANCH   5   6
HETATM    6  C1  MC3 X 301      19.383  45.402  14.742  1.00 87.52     0.185 C 
BRANCH   6   7
HETATM    7  O3P MC3 X 301      19.576  46.348  15.832  1.00 93.34    -0.317 OA
BRANCH   7   8
HETATM    8  P   MC3 X 301      18.547  47.567  16.020  1.00 99.76     0.329 P 
BRANCH   8   9
HETATM    9  O1P MC3 X 301      17.893  47.922  14.705  1.00 79.99    -0.328 OA
HETATM   10  H1P MC3 X 301      17.976  47.243  14.046  1.00  0.00     0.219 HD
ENDBRANCH   8   9
BRANCH   8  11
HETATM   11  O2P MC3 X 301      19.510  48.722  16.589  1.00 83.77    -0.328 OA
HETATM   12  H2P MC3 X 301      19.043  49.420  17.032  1.00  0.00     0.219 HD
ENDBRANCH   8  11
ENDBRANCH   7   8
ENDBRANCH   6   7
ENDBRANCH   5   6
ENDBRANCH   4   5
ENDBRANCH   3   4
ENDBRANCH   1   3
BRANCH   1  13
HETATM   13  C12 MC3 X 301      23.708  42.597  15.831  1.00 70.26     0.111 C 
BRANCH  13  14
HETATM   14  C13 MC3 X 301      24.354  43.131  17.077  1.00 68.05     0.010 C 
BRANCH  14  15
HETATM   15  C14 MC3 X 301      23.375  43.802  18.046  1.00 65.69     0.000 C 
BRANCH  15  16
HETATM   16  C15 MC3 X 301      23.750  43.637  19.516  1.00 64.07     0.000 C 
BRANCH  16  17
HETATM   17  C16 MC3 X 301      22.614  43.817  20.518  1.00 63.64     0.000 C 
BRANCH  17  18
HETATM   18  C17 MC3 X 301      21.431  44.608  19.985  1.00 65.61     0.000 C 
BRANCH  18  19
HETATM   19  C18 MC3 X 301      20.131  43.826  19.883  1.00 65.35     0.000 C 
BRANCH  19  20
HETATM   20  C19 MC3 X 301      19.581  43.700  18.477  1.00 59.74     0.000 C 
BRANCH  20  21
HETATM   21  C20 MC3 X 301      19.918  42.387  17.775  1.00 58.18     0.000 C 
BRANCH  21  22
HETATM   22  C21 MC3 X 301      18.899  41.949  16.746  1.00 54.24     0.000 C 
HETATM   23  C22 MC3 X 301      17.467  42.276  17.076  1.00 55.64     0.000 C 
ENDBRANCH  21  22
ENDBRANCH  20  21
ENDBRANCH  19  20
ENDBRANCH  18  19
ENDBRANCH  17  18
ENDBRANCH  16  17
ENDBRANCH  15  16
ENDBRANCH  14  15
ENDBRANCH  13  14
ENDBRANCH   1  13
TORSDOF 18
ENDMDL
MODEL 8
REMARK VINA RESULT:      -3.8      8.721     11.578
REMARK  18 active torsions:
REMARK  status: ('A' for Active; 'I' for Inactive)
REMARK    1  A    between atoms: P_1  and  O1P_2 
REMARK    2  A    between atoms: P_1  and  O2P_4 
REMARK    3  A    between atoms: P_1  and  O3P_6 
REMARK    4  A    between atoms: O3P_6  and  C1_7 
REMARK    5  A    between atoms: C1_7  and  C2_8 
REMARK    6  A    between atoms: C2_8  and  C3_9 
REMARK    7  A    between atoms: C3_9  and  O3_10 
REMARK    8  A    between atoms: O3_10  and  C11_11 
REMARK    9  A    between atoms: C11_11  and  C12_13 
REMARK   10  A    between atoms: C12_13  and  C13_14 
REMARK   11  A    between atoms: C13_14  and  C14_15 
REMARK   12  A    between atoms: C14_15  and  C15_16 
REMARK   13  A    between atoms: C15_16  and  C16_17 
REMARK   14  A    between atoms: C16_17  and  C17_18 
REMARK   15  A    between atoms: C17_18  and  C18_19 
REMARK   16  A    between atoms: C18_19  and  C19_20 
REMARK   17  A    between atoms: C19_20  and  C20_21 
REMARK   18  A    between atoms: C20_21  and  C21_22 
ROOT
HETATM    1  C11 MC3 X 301      19.923  44.861  16.407  1.00 74.30     0.258 C 
HETATM    2  O11 MC3 X 301      19.832  45.688  17.267  1.00 71.30    -0.265 OA
ENDROOT
BRANCH   1   3
HETATM    3  O3  MC3 X 301      21.034  44.700  15.691  1.00 84.33    -0.321 OA
BRANCH   3   4
HETATM    4  C3  MC3 X 301      21.663  43.400  15.767  1.00 88.26     0.185 C 
BRANCH   4   5
HETATM    5  C2  MC3 X 301      23.135  43.561  16.082  1.00 84.83     0.042 C 
BRANCH   5   6
HETATM    6  C1  MC3 X 301      23.430  43.686  17.560  1.00 87.52     0.185 C 
BRANCH   6   7
HETATM    7  O3P MC3 X 301      22.338  43.071  18.300  1.00 93.34    -0.317 OA
BRANCH   7   8
HETATM    8  P   MC3 X 301      22.100  43.462  19.839  1.00 99.76     0.329 P 
BRANCH   8   9
HETATM    9  O1P MC3 X 301      21.542  42.288  20.608  1.00 79.99    -0.328 OA
HETATM   10  H1P MC3 X 301      21.079  42.538  21.399  1.00  0.00     0.219 HD
ENDBRANCH   8   9
BRANCH   8  11
HETATM   11  O2P MC3 X 301      21.070  44.690  19.709  1.00 83.77    -0.328 OA
HETATM   12  H2P MC3 X 301      21.455  45.531  19.923  1.00  0.00     0.219 HD
ENDBRANCH   8  11
ENDBRANCH   7   8
ENDBRANCH   6   7
ENDBRANCH   5   6
ENDBRANCH   4   5
ENDBRANCH   3   4
ENDBRANCH   1   3
BRANCH   1  13
HETATM   13  C12 MC3 X 301      18.848  43.865  16.022  1.00 70.26     0.111 C 
BRANCH  13  14
HETATM   14  C13 MC3 X 301      18.199  43.159  17.178  1.00 68.05     0.010 C 
BRANCH  14  15
HETATM   15  C14 MC3 X 301      19.069  42.066  17.806  1.00 65.69     0.000 C 
BRANCH  15  16
HETATM   16  C15 MC3 X 301      18.428  41.384  19.011  1.00 64.07     0.000 C 
BRANCH  16  17
HETATM   17  C16 MC3 X 301      18.754  39.904  19.190  1.00 63.64     0.000 C 
BRANCH  17  18
HETATM   18  C17 MC3 X 301      17.617  38.965  18.825  1.00 65.61     0.000 C 
BRANCH  18  19
HETATM   19  C18 MC3 X 301      17.833  38.159  17.555  1.00 65.35     0.000 C 
BRANCH  19  20
HETATM   20  C19 MC3 X 301      19.090  38.518  16.787  1.00 59.74     0.000 C 
BRANCH  20  21
HETATM   21  C20 MC3 X 301      18.844  39.116  15.404  1.00 58.18     0.000 C 
BRANCH  21  22
HETATM   22  C21 MC3 X 301      17.517  39.829  15.259  1.00 54.24     0.000 C 
HETATM   23  C22 MC3 X 301      16.686  39.409  14.076  1.00 55.64     0.000 C 
ENDBRANCH  21  22
ENDBRANCH  20  21
ENDBRANCH  19  20
ENDBRANCH  18  19
ENDBRANCH  17  18
ENDBRANCH  16  17
ENDBRANCH  15  16
ENDBRANCH  14  15
ENDBRANCH  13  14
ENDBRANCH   1  13
TORSDOF 18
ENDMDL
MODEL 9
REMARK VINA RESULT:      -3.8      6.704     10.455
REMARK  18 active torsions:
REMARK  status: ('A' for Active; 'I' for Inactive)
REMARK    1  A    between atoms: P_1  and  O1P_2 
REMARK    2  A    between atoms: P_1  and  O2P_4 
REMARK    3  A    between atoms: P_1  and  O3P_6 
REMARK    4  A    between atoms: O3P_6  and  C1_7 
REMARK    5  A    between atoms: C1_7  and  C2_8 
REMARK    6  A    between atoms: C2_8  and  C3_9 
REMARK    7  A    between atoms: C3_9  and  O3_10 
REMARK    8  A    between atoms: O3_10  and  C11_11 
REMARK    9  A    between atoms: C11_11  and  C12_13 
REMARK   10  A    between atoms: C12_13  and  C13_14 
REMARK   11  A    between atoms: C13_14  and  C14_15 
REMARK   12  A    between atoms: C14_15  and  C15_16 
REMARK   13  A    between atoms: C15_16  and  C16_17 
REMARK   14  A    between atoms: C16_17  and  C17_18 
REMARK   15  A    between atoms: C17_18  and  C18_19 
REMARK   16  A    between atoms: C18_19  and  C19_20 
REMARK   17  A    between atoms: C19_20  and  C20_21 
REMARK   18  A    between atoms: C20_21  and  C21_22 
ROOT
HETATM    1  C11 MC3 X 301      21.486  40.733  19.569  1.00 74.30     0.258 C 
HETATM    2  O11 MC3 X 301      22.646  40.824  19.292  1.00 71.30    -0.265 OA
ENDROOT
BRANCH   1   3
HETATM    3  O3  MC3 X 301      20.750  41.792  19.902  1.00 84.33    -0.321 OA
BRANCH   3   4
HETATM    4  C3  MC3 X 301      21.473  42.962  20.349  1.00 88.26     0.185 C 
BRANCH   4   5
HETATM    5  C2  MC3 X 301      20.634  44.201  20.122  1.00 84.83     0.042 C 
BRANCH   5   6
HETATM    6  C1  MC3 X 301      20.445  44.549  18.663  1.00 87.52     0.185 C 
BRANCH   6   7
HETATM    7  O3P MC3 X 301      19.036  44.391  18.333  1.00 93.34    -0.317 OA
BRANCH   7   8
HETATM    8  P   MC3 X 301      18.614  43.860  16.877  1.00 99.76     0.329 P 
BRANCH   8   9
HETATM    9  O1P MC3 X 301      18.461  45.013  15.912  1.00 79.99    -0.328 OA
HETATM   10  H1P MC3 X 301      18.911  45.801  16.191  1.00  0.00     0.219 HD
ENDBRANCH   8   9
BRANCH   8  11
HETATM   11  O2P MC3 X 301      17.232  43.102  17.194  1.00 83.77    -0.328 OA
HETATM   12  H2P MC3 X 301      16.680  43.565  17.813  1.00  0.00     0.219 HD
ENDBRANCH   8  11
ENDBRANCH   7   8
ENDBRANCH   6   7
ENDBRANCH   5   6
ENDBRANCH   4   5
ENDBRANCH   3   4
ENDBRANCH   1   3
BRANCH   1  13
HETATM   13  C12 MC3 X 301      20.671  39.456  19.552  1.00 70.26     0.111 C 
BRANCH  13  14
HETATM   14  C13 MC3 X 301      21.305  38.295  20.264  1.00 68.05     0.010 C 
BRANCH  14  15
HETATM   15  C14 MC3 X 301      20.435  37.033  20.290  1.00 65.69     0.000 C 
BRANCH  15  16
HETATM   16  C15 MC3 X 301      19.857  36.711  21.665  1.00 64.07     0.000 C 
BRANCH  16  17
HETATM   17  C16 MC3 X 301      20.315  37.612  22.808  1.00 63.64     0.000 C 
BRANCH  17  18
HETATM   18  C17 MC3 X 301      21.375  36.993  23.704  1.00 65.61     0.000 C 
BRANCH  18  19
HETATM   19  C18 MC3 X 301      22.768  37.580  23.547  1.00 65.35     0.000 C 
BRANCH  19  20
HETATM   20  C19 MC3 X 301      23.846  36.565  23.223  1.00 59.74     0.000 C 
BRANCH  20  21
HETATM   21  C20 MC3 X 301      23.933  36.176  21.750  1.00 58.18     0.000 C 
BRANCH  21  22
HETATM   22  C21 MC3 X 301      23.278  34.853  21.414  1.00 54.24     0.000 C 
HETATM   23  C22 MC3 X 301      23.219  33.858  22.542  1.00 55.64     0.000 C 
ENDBRANCH  21  22
ENDBRANCH  20  21
ENDBRANCH  19  20
ENDBRANCH  18  19
ENDBRANCH  17  18
ENDBRANCH  16  17
ENDBRANCH  15  16
ENDBRANCH  14  15
ENDBRANCH  13  14
ENDBRANCH   1  13
TORSDOF 18
ENDMDL
MODEL 10
REMARK VINA RESULT:      -3.8     14.632     15.133
REMARK  18 active torsions:
REMARK  status: ('A' for Active; 'I' for Inactive)
REMARK    1  A    between atoms: P_1  and  O1P_2 
REMARK    2  A    between atoms: P_1  and  O2P_4 
REMARK    3  A    between atoms: P_1  and  O3P_6 
REMARK    4  A    between atoms: O3P_6  and  C1_7 
REMARK    5  A    between atoms: C1_7  and  C2_8 
REMARK    6  A    between atoms: C2_8  and  C3_9 
REMARK    7  A    between atoms: C3_9  and  O3_10 
REMARK    8  A    between atoms: O3_10  and  C11_11 
REMARK    9  A    between atoms: C11_11  and  C12_13 
REMARK   10  A    between atoms: C12_13  and  C13_14 
REMARK   11  A    between atoms: C13_14  and  C14_15 
REMARK   12  A    between atoms: C14_15  and  C15_16 
REMARK   13  A    between atoms: C15_16  and  C16_17 
REMARK   14  A    between atoms: C16_17  and  C17_18 
REMARK   15  A    between atoms: C17_18  and  C18_19 
REMARK   16  A    between atoms: C18_19  and  C19_20 
REMARK   17  A    between atoms: C19_20  and  C20_21 
REMARK   18  A    between atoms: C20_21  and  C21_22 
ROOT
HETATM    1  C11 MC3 X 301      29.825  43.180  32.755  1.00 74.30     0.258 C 
HETATM    2  O11 MC3 X 301      29.449  42.386  33.566  1.00 71.30    -0.265 OA
ENDROOT
BRANCH   1   3
HETATM    3  O3  MC3 X 301      31.097  43.254  32.369  1.00 84.33    -0.321 OA
BRANCH   3   4
HETATM    4  C3  MC3 X 301      31.918  42.094  32.639  1.00 88.26     0.185 C 
BRANCH   4   5
HETATM    5  C2  MC3 X 301      32.833  41.829  31.464  1.00 84.83     0.042 C 
BRANCH   5   6
HETATM    6  C1  MC3 X 301      32.642  42.793  30.315  1.00 87.52     0.185 C 
BRANCH   6   7
HETATM    7  O3P MC3 X 301      33.948  43.306  29.925  1.00 93.34    -0.317 OA
BRANCH   7   8
HETATM    8  P   MC3 X 301      34.353  43.354  28.371  1.00 99.76     0.329 P 
BRANCH   8   9
HETATM    9  O1P MC3 X 301      33.204  43.867  27.535  1.00 79.99    -0.328 OA
HETATM   10  H1P MC3 X 301      32.360  43.790  27.964  1.00  0.00     0.219 HD
ENDBRANCH   8   9
BRANCH   8  11
HETATM   11  O2P MC3 X 301      34.718  41.816  28.081  1.00 83.77    -0.328 OA
HETATM   12  H2P MC3 X 301      35.645  41.668  27.937  1.00  0.00     0.219 HD
ENDBRANCH   8  11
ENDBRANCH   7   8
ENDBRANCH   6   7
ENDBRANCH   5   6
ENDBRANCH   4   5
ENDBRANCH   3   4
ENDBRANCH   1   3
BRANCH   1  13
HETATM   13  C12 MC3 X 301      28.950  44.177  32.022  1.00 70.26     0.111 C 
BRANCH  13  14
HETATM   14  C13 MC3 X 301      29.464  44.597  30.675  1.00 68.05     0.010 C 
BRANCH  14  15
HETATM   15  C14 MC3 X 301      28.578  45.625  29.964  1.00 65.69     0.000 C 
BRANCH  15  16
HETATM   16  C15 MC3 X 301      27.108  45.557  30.369  1.00 64.07     0.000 C 
BRANCH  16  17
HETATM   17  C16 MC3 X 301      26.336  46.872  30.299  1.00 63.64     0.000 C 
BRANCH  17  18
HETATM   18  C17 MC3 X 301      26.498  47.622  28.988  1.00 65.61     0.000 C 
BRANCH  18  19
HETATM   19  C18 MC3 X 301      25.738  48.935  28.903  1.00 65.35     0.000 C 
BRANCH  19  20
HETATM   20  C19 MC3 X 301      24.336  48.890  29.477  1.00 59.74     0.000 C 
BRANCH  20  21
HETATM   21  C20 MC3 X 301      23.221  49.103  28.457  1.00 58.18     0.000 C 
BRANCH  21  22
HETATM   22  C21 MC3 X 301      22.820  50.548  28.263  1.00 54.24     0.000 C 
HETATM   23  C22 MC3 X 301      21.552  50.965  28.959  1.00 55.64     0.000 C 
ENDBRANCH  21  22
ENDBRANCH  20  21
ENDBRANCH  19  20
ENDBRANCH  18  19
ENDBRANCH  17  18
ENDBRANCH  16  17
ENDBRANCH  15  16
ENDBRANCH  14  15
ENDBRANCH  13  14
ENDBRANCH   1  13
TORSDOF 18
ENDMDL
MODEL 11
REMARK VINA RESULT:      -3.6     20.982     23.463
REMARK  18 active torsions:
REMARK  status: ('A' for Active; 'I' for Inactive)
REMARK    1  A    between atoms: P_1  and  O1P_2 
REMARK    2  A    between atoms: P_1  and  O2P_4 
REMARK    3  A    between atoms: P_1  and  O3P_6 
REMARK    4  A    between atoms: O3P_6  and  C1_7 
REMARK    5  A    between atoms: C1_7  and  C2_8 
REMARK    6  A    between atoms: C2_8  and  C3_9 
REMARK    7  A    between atoms: C3_9  and  O3_10 
REMARK    8  A    between atoms: O3_10  and  C11_11 
REMARK    9  A    between atoms: C11_11  and  C12_13 
REMARK   10  A    between atoms: C12_13  and  C13_14 
REMARK   11  A    between atoms: C13_14  and  C14_15 
REMARK   12  A    between atoms: C14_15  and  C15_16 
REMARK   13  A    between atoms: C15_16  and  C16_17 
REMARK   14  A    between atoms: C16_17  and  C17_18 
REMARK   15  A    between atoms: C17_18  and  C18_19 
REMARK   16  A    between atoms: C18_19  and  C19_20 
REMARK   17  A    between atoms: C19_20  and  C20_21 
REMARK   18  A    between atoms: C20_21  and  C21_22 
ROOT
HETATM    1  C11 MC3 X 301      17.852  24.377  41.898  1.00 74.30     0.258 C 
HETATM    2  O11 MC3 X 301      17.575  24.480  40.739  1.00 71.30    -0.265 OA
ENDROOT
BRANCH   1   3
HETATM    3  O3  MC3 X 301      17.916  23.198  42.512  1.00 84.33    -0.321 OA
BRANCH   3   4
HETATM    4  C3  MC3 X 301      18.838  22.233  41.954  1.00 88.26     0.185 C 
BRANCH   4   5
HETATM    5  C2  MC3 X 301      18.138  20.905  41.764  1.00 84.83     0.042 C 
BRANCH   5   6
HETATM    6  C1  MC3 X 301      17.127  20.905  40.640  1.00 87.52     0.185 C 
BRANCH   6   7
HETATM    7  O3P MC3 X 301      15.805  20.692  41.211  1.00 93.34    -0.317 OA
BRANCH   7   8
HETATM    8  P   MC3 X 301      14.609  21.703  40.853  1.00 99.76     0.329 P 
BRANCH   8   9
HETATM    9  O1P MC3 X 301      14.594  22.008  39.373  1.00 79.99    -0.328 OA
HETATM   10  H1P MC3 X 301      15.426  22.327  39.045  1.00  0.00     0.219 HD
ENDBRANCH   8   9
BRANCH   8  11
HETATM   11  O2P MC3 X 301      14.972  22.974  41.766  1.00 83.77    -0.328 OA
HETATM   12  H2P MC3 X 301      15.720  23.467  41.450  1.00  0.00     0.219 HD
ENDBRANCH   8  11
ENDBRANCH   7   8
ENDBRANCH   6   7
ENDBRANCH   5   6
ENDBRANCH   4   5
ENDBRANCH   3   4
ENDBRANCH   1   3
BRANCH   1  13
HETATM   13  C12 MC3 X 301      18.206  25.521  42.827  1.00 70.26     0.111 C 
BRANCH  13  14
HETATM   14  C13 MC3 X 301      18.182  25.177  44.289  1.00 68.05     0.010 C 
BRANCH  14  15
HETATM   15  C14 MC3 X 301      19.257  25.894  45.113  1.00 65.69     0.000 C 
BRANCH  15  16
HETATM   16  C15 MC3 X 301      18.722  27.052  45.950  1.00 64.07     0.000 C 
BRANCH  16  17
HETATM   17  C16 MC3 X 301      19.264  28.434  45.596  1.00 63.64     0.000 C 
BRANCH  17  18
HETATM   18  C17 MC3 X 301      19.700  28.583  44.148  1.00 65.61     0.000 C 
BRANCH  18  19
HETATM   19  C18 MC3 X 301      18.753  29.388  43.273  1.00 65.35     0.000 C 
BRANCH  19  20
HETATM   20  C19 MC3 X 301      19.438  30.355  42.328  1.00 59.74     0.000 C 
BRANCH  20  21
HETATM   21  C20 MC3 X 301      19.595  29.846  40.898  1.00 58.18     0.000 C 
BRANCH  21  22
HETATM   22  C21 MC3 X 301      18.959  28.498  40.641  1.00 54.24     0.000 C 
HETATM   23  C22 MC3 X 301      19.910  27.403  40.235  1.00 55.64     0.000 C 
ENDBRANCH  21  22
ENDBRANCH  20  21
ENDBRANCH  19  20
ENDBRANCH  18  19
ENDBRANCH  17  18
ENDBRANCH  16  17
ENDBRANCH  15  16
ENDBRANCH  14  15
ENDBRANCH  13  14
ENDBRANCH   1  13
TORSDOF 18
ENDMDL
MODEL 12
REMARK VINA RESULT:      -3.6     11.573     12.953
REMARK  18 active torsions:
REMARK  status: ('A' for Active; 'I' for Inactive)
REMARK    1  A    between atoms: P_1  and  O1P_2 
REMARK    2  A    between atoms: P_1  and  O2P_4 
REMARK    3  A    between atoms: P_1  and  O3P_6 
REMARK    4  A    between atoms: O3P_6  and  C1_7 
REMARK    5  A    between atoms: C1_7  and  C2_8 
REMARK    6  A    between atoms: C2_8  and  C3_9 
REMARK    7  A    between atoms: C3_9  and  O3_10 
REMARK    8  A    between atoms: O3_10  and  C11_11 
REMARK    9  A    between atoms: C11_11  and  C12_13 
REMARK   10  A    between atoms: C12_13  and  C13_14 
REMARK   11  A    between atoms: C13_14  and  C14_15 
REMARK   12  A    between atoms: C14_15  and  C15_16 
REMARK   13  A    between atoms: C15_16  and  C16_17 
REMARK   14  A    between atoms: C16_17  and  C17_18 
REMARK   15  A    between atoms: C17_18  and  C18_19 
REMARK   16  A    between atoms: C18_19  and  C19_20 
REMARK   17  A    between atoms: C19_20  and  C20_21 
REMARK   18  A    between atoms: C20_21  and  C21_22 
ROOT
HETATM    1  C11 MC3 X 301      26.943  33.383  33.564  1.00 74.30     0.258 C 
HETATM    2  O11 MC3 X 301      26.449  33.973  34.480  1.00 71.30    -0.265 OA
ENDROOT
BRANCH   1   3
HETATM    3  O3  MC3 X 301      27.363  32.124  33.675  1.00 84.33    -0.321 OA
BRANCH   3   4
HETATM    4  C3  MC3 X 301      28.491  31.899  34.551  1.00 88.26     0.185 C 
BRANCH   4   5
HETATM    5  C2  MC3 X 301      29.775  32.268  33.839  1.00 84.83     0.042 C 
BRANCH   5   6
HETATM    6  C1  MC3 X 301      30.528  33.404  34.493  1.00 87.52     0.185 C 
BRANCH   6   7
HETATM    7  O3P MC3 X 301      30.259  34.623  33.745  1.00 93.34    -0.317 OA
BRANCH   7   8
HETATM    8  P   MC3 X 301      30.039  36.007  34.531  1.00 99.76     0.329 P 
BRANCH   8   9
HETATM    9  O1P MC3 X 301      31.208  36.296  35.443  1.00 79.99    -0.328 OA
HETATM   10  H1P MC3 X 301      30.962  36.745  36.242  1.00  0.00     0.219 HD
ENDBRANCH   8   9
BRANCH   8  11
HETATM   11  O2P MC3 X 301      28.667  35.721  35.318  1.00 83.77    -0.328 OA
HETATM   12  H2P MC3 X 301      27.955  35.449  34.751  1.00  0.00     0.219 HD
ENDBRANCH   8  11
ENDBRANCH   7   8
ENDBRANCH   6   7
ENDBRANCH   5   6
ENDBRANCH   4   5
ENDBRANCH   3   4
ENDBRANCH   1   3
BRANCH   1  13
HETATM   13  C12 MC3 X 301      27.133  33.925  32.163  1.00 70.26     0.111 C 
BRANCH  13  14
HETATM   14  C13 MC3 X 301      26.340  35.162  31.852  1.00 68.05     0.010 C 
BRANCH  14  15
HETATM   15  C14 MC3 X 301      27.150  36.460  31.948  1.00 65.69     0.000 C 
BRANCH  15  16
HETATM   16  C15 MC3 X 301      26.690  37.547  30.982  1.00 64.07     0.000 C 
BRANCH  16  17
HETATM   17  C16 MC3 X 301      25.609  38.489  31.505  1.00 63.64     0.000 C 
BRANCH  17  18
HETATM   18  C17 MC3 X 301      25.630  38.689  33.011  1.00 65.61     0.000 C 
BRANCH  18  19
HETATM   19  C18 MC3 X 301      24.553  39.617  33.549  1.00 65.35     0.000 C 
BRANCH  19  20
HETATM   20  C19 MC3 X 301      24.137  40.719  32.596  1.00 59.74     0.000 C 
BRANCH  20  21
HETATM   21  C20 MC3 X 301      23.299  41.826  33.229  1.00 58.18     0.000 C 
BRANCH  21  22
HETATM   22  C21 MC3 X 301      21.808  41.569  33.211  1.00 54.24     0.000 C 
HETATM   23  C22 MC3 X 301      21.218  41.283  31.856  1.00 55.64     0.000 C 
ENDBRANCH  21  22
ENDBRANCH  20  21
ENDBRANCH  19  20
ENDBRANCH  18  19
ENDBRANCH  17  18
ENDBRANCH  16  17
ENDBRANCH  15  16
ENDBRANCH  14  15
ENDBRANCH  13  14
ENDBRANCH   1  13
TORSDOF 18
ENDMDL
MODEL 13
REMARK VINA RESULT:      -3.5     14.870     17.196
REMARK  18 active torsions:
REMARK  status: ('A' for Active; 'I' for Inactive)
REMARK    1  A    between atoms: P_1  and  O1P_2 
REMARK    2  A    between atoms: P_1  and  O2P_4 
REMARK    3  A    between atoms: P_1  and  O3P_6 
REMARK    4  A    between atoms: O3P_6  and  C1_7 
REMARK    5  A    between atoms: C1_7  and  C2_8 
REMARK    6  A    between atoms: C2_8  and  C3_9 
REMARK    7  A    between atoms: C3_9  and  O3_10 
REMARK    8  A    between atoms: O3_10  and  C11_11 
REMARK    9  A    between atoms: C11_11  and  C12_13 
REMARK   10  A    between atoms: C12_13  and  C13_14 
REMARK   11  A    between atoms: C13_14  and  C14_15 
REMARK   12  A    between atoms: C14_15  and  C15_16 
REMARK   13  A    between atoms: C15_16  and  C16_17 
REMARK   14  A    between atoms: C16_17  and  C17_18 
REMARK   15  A    between atoms: C17_18  and  C18_19 
REMARK   16  A    between atoms: C18_19  and  C19_20 
REMARK   17  A    between atoms: C19_20  and  C20_21 
REMARK   18  A    between atoms: C20_21  and  C21_22 
ROOT
HETATM    1  C11 MC3 X 301      10.949  20.429  21.053  1.00 74.30     0.258 C 
HETATM    2  O11 MC3 X 301      10.089  21.206  20.757  1.00 71.30    -0.265 OA
ENDROOT
BRANCH   1   3
HETATM    3  O3  MC3 X 301      11.176  20.068  22.314  1.00 84.33    -0.321 OA
BRANCH   3   4
HETATM    4  C3  MC3 X 301      12.137  19.005  22.514  1.00 88.26     0.185 C 
BRANCH   4   5
HETATM    5  C2  MC3 X 301      13.071  19.366  23.649  1.00 84.83     0.042 C 
BRANCH   5   6
HETATM    6  C1  MC3 X 301      14.009  20.506  23.326  1.00 87.52     0.185 C 
BRANCH   6   7
HETATM    7  O3P MC3 X 301      15.316  20.199  23.889  1.00 93.34    -0.317 OA
BRANCH   7   8
HETATM    8  P   MC3 X 301      16.644  20.538  23.050  1.00 99.76     0.329 P 
BRANCH   8   9
HETATM    9  O1P MC3 X 301      17.777  19.624  23.452  1.00 79.99    -0.328 OA
HETATM   10  H1P MC3 X 301      18.526  20.084  23.811  1.00  0.00     0.219 HD
ENDBRANCH   8   9
BRANCH   8  11
HETATM   11  O2P MC3 X 301      16.893  22.077  23.443  1.00 83.77    -0.328 OA
HETATM   12  H2P MC3 X 301      16.092  22.580  23.530  1.00  0.00     0.219 HD
ENDBRANCH   8  11
ENDBRANCH   7   8
ENDBRANCH   6   7
ENDBRANCH   5   6
ENDBRANCH   4   5
ENDBRANCH   3   4
ENDBRANCH   1   3
BRANCH   1  13
HETATM   13  C12 MC3 X 301      11.869  19.717  20.083  1.00 70.26     0.111 C 
BRANCH  13  14
HETATM   14  C13 MC3 X 301      12.890  20.598  19.420  1.00 68.05     0.010 C 
BRANCH  14  15
HETATM   15  C14 MC3 X 301      12.327  21.450  18.277  1.00 65.69     0.000 C 
BRANCH  15  16
HETATM   16  C15 MC3 X 301      13.374  21.879  17.253  1.00 64.07     0.000 C 
BRANCH  16  17
HETATM   17  C16 MC3 X 301      13.945  23.282  17.433  1.00 63.64     0.000 C 
BRANCH  17  18
HETATM   18  C17 MC3 X 301      15.257  23.330  18.198  1.00 65.61     0.000 C 
BRANCH  18  19
HETATM   19  C18 MC3 X 301      15.211  24.110  19.502  1.00 65.35     0.000 C 
BRANCH  19  20
HETATM   20  C19 MC3 X 301      14.886  23.275  20.724  1.00 59.74     0.000 C 
BRANCH  20  21
HETATM   21  C20 MC3 X 301      13.566  23.627  21.404  1.00 58.18     0.000 C 
BRANCH  21  22
HETATM   22  C21 MC3 X 301      12.804  24.755  20.744  1.00 54.24     0.000 C 
HETATM   23  C22 MC3 X 301      11.411  24.412  20.286  1.00 55.64     0.000 C 
ENDBRANCH  21  22
ENDBRANCH  20  21
ENDBRANCH  19  20
ENDBRANCH  18  19
ENDBRANCH  17  18
ENDBRANCH  16  17
ENDBRANCH  15  16
ENDBRANCH  14  15
ENDBRANCH  13  14
ENDBRANCH   1  13
TORSDOF 18
ENDMDL
MODEL 14
REMARK VINA RESULT:      -3.5     11.218     14.014
REMARK  18 active torsions:
REMARK  status: ('A' for Active; 'I' for Inactive)
REMARK    1  A    between atoms: P_1  and  O1P_2 
REMARK    2  A    between atoms: P_1  and  O2P_4 
REMARK    3  A    between atoms: P_1  and  O3P_6 
REMARK    4  A    between atoms: O3P_6  and  C1_7 
REMARK    5  A    between atoms: C1_7  and  C2_8 
REMARK    6  A    between atoms: C2_8  and  C3_9 
REMARK    7  A    between atoms: C3_9  and  O3_10 
REMARK    8  A    between atoms: O3_10  and  C11_11 
REMARK    9  A    between atoms: C11_11  and  C12_13 
REMARK   10  A    between atoms: C12_13  and  C13_14 
REMARK   11  A    between atoms: C13_14  and  C14_15 
REMARK   12  A    between atoms: C14_15  and  C15_16 
REMARK   13  A    between atoms: C15_16  and  C16_17 
REMARK   14  A    between atoms: C16_17  and  C17_18 
REMARK   15  A    between atoms: C17_18  and  C18_19 
REMARK   16  A    between atoms: C18_19  and  C19_20 
REMARK   17  A    between atoms: C19_20  and  C20_21 
REMARK   18  A    between atoms: C20_21  and  C21_22 
ROOT
HETATM    1  C11 MC3 X 301      19.908  40.356  14.539  1.00 74.30     0.258 C 
HETATM    2  O11 MC3 X 301      20.808  40.005  15.244  1.00 71.30    -0.265 OA
ENDROOT
BRANCH   1   3
HETATM    3  O3  MC3 X 301      20.108  40.798  13.299  1.00 84.33    -0.321 OA
BRANCH   3   4
HETATM    4  C3  MC3 X 301      21.223  41.700  13.112  1.00 88.26     0.185 C 
BRANCH   4   5
HETATM    5  C2  MC3 X 301      20.721  43.125  13.032  1.00 84.83     0.042 C 
BRANCH   5   6
HETATM    6  C1  MC3 X 301      21.398  44.064  14.005  1.00 87.52     0.185 C 
BRANCH   6   7
HETATM    7  O3P MC3 X 301      20.384  44.931  14.586  1.00 93.34    -0.317 OA
BRANCH   7   8
HETATM    8  P   MC3 X 301      18.834  44.519  14.492  1.00 99.76     0.329 P 
BRANCH   8   9
HETATM    9  O1P MC3 X 301      18.059  45.536  13.688  1.00 79.99    -0.328 OA
HETATM   10  H1P MC3 X 301      18.494  46.378  13.623  1.00  0.00     0.219 HD
ENDBRANCH   8   9
BRANCH   8  11
HETATM   11  O2P MC3 X 301      18.414  44.473  16.043  1.00 83.77    -0.328 OA
HETATM   12  H2P MC3 X 301      18.871  45.111  16.578  1.00  0.00     0.219 HD
ENDBRANCH   8  11
ENDBRANCH   7   8
ENDBRANCH   6   7
ENDBRANCH   5   6
ENDBRANCH   4   5
ENDBRANCH   3   4
ENDBRANCH   1   3
BRANCH   1  13
HETATM   13  C12 MC3 X 301      18.437  40.323  14.901  1.00 70.26     0.111 C 
BRANCH  13  14
HETATM   14  C13 MC3 X 301      17.522  40.937  13.880  1.00 68.05     0.010 C 
BRANCH  14  15
HETATM   15  C14 MC3 X 301      16.034  40.800  14.217  1.00 65.69     0.000 C 
BRANCH  15  16
HETATM   16  C15 MC3 X 301      15.293  39.792  13.342  1.00 64.07     0.000 C 
BRANCH  16  17
HETATM   17  C16 MC3 X 301      14.074  40.327  12.597  1.00 63.64     0.000 C 
BRANCH  17  18
HETATM   18  C17 MC3 X 301      14.105  41.824  12.340  1.00 65.61     0.000 C 
BRANCH  18  19
HETATM   19  C18 MC3 X 301      14.239  42.221  10.879  1.00 65.35     0.000 C 
BRANCH  19  20
HETATM   20  C19 MC3 X 301      14.472  41.063   9.931  1.00 59.74     0.000 C 
BRANCH  20  21
HETATM   21  C20 MC3 X 301      15.896  40.957   9.390  1.00 58.18     0.000 C 
BRANCH  21  22
HETATM   22  C21 MC3 X 301      16.702  42.233   9.499  1.00 54.24     0.000 C 
HETATM   23  C22 MC3 X 301      17.846  42.192  10.476  1.00 55.64     0.000 C 
ENDBRANCH  21  22
ENDBRANCH  20  21
ENDBRANCH  19  20
ENDBRANCH  18  19
ENDBRANCH  17  18
ENDBRANCH  16  17
ENDBRANCH  15  16
ENDBRANCH  14  15
ENDBRANCH  13  14
ENDBRANCH   1  13
TORSDOF 18
ENDMDL
MODEL 15
REMARK VINA RESULT:      -3.5     14.578     16.442
REMARK  18 active torsions:
REMARK  status: ('A' for Active; 'I' for Inactive)
REMARK    1  A    between atoms: P_1  and  O1P_2 
REMARK    2  A    between atoms: P_1  and  O2P_4 
REMARK    3  A    between atoms: P_1  and  O3P_6 
REMARK    4  A    between atoms: O3P_6  and  C1_7 
REMARK    5  A    between atoms: C1_7  and  C2_8 
REMARK    6  A    between atoms: C2_8  and  C3_9 
REMARK    7  A    between atoms: C3_9  and  O3_10 
REMARK    8  A    between atoms: O3_10  and  C11_11 
REMARK    9  A    between atoms: C11_11  and  C12_13 
REMARK   10  A    between atoms: C12_13  and  C13_14 
REMARK   11  A    between atoms: C13_14  and  C14_15 
REMARK   12  A    between atoms: C14_15  and  C15_16 
REMARK   13  A    between atoms: C15_16  and  C16_17 
REMARK   14  A    between atoms: C16_17  and  C17_18 
REMARK   15  A    between atoms: C17_18  and  C18_19 
REMARK   16  A    between atoms: C18_19  and  C19_20 
REMARK   17  A    between atoms: C19_20  and  C20_21 
REMARK   18  A    between atoms: C20_21  and  C21_22 
ROOT
HETATM    1  C11 MC3 X 301      17.108  37.912   7.775  1.00 74.30     0.258 C 
HETATM    2  O11 MC3 X 301      18.297  37.854   7.893  1.00 71.30    -0.265 OA
ENDROOT
BRANCH   1   3
HETATM    3  O3  MC3 X 301      16.526  38.478   6.720  1.00 84.33    -0.321 OA
BRANCH   3   4
HETATM    4  C3  MC3 X 301      16.127  37.588   5.652  1.00 88.26     0.185 C 
BRANCH   4   5
HETATM    5  C2  MC3 X 301      16.853  37.959   4.377  1.00 84.83     0.042 C 
BRANCH   5   6
HETATM    6  C1  MC3 X 301      17.341  39.390   4.349  1.00 87.52     0.185 C 
BRANCH   6   7
HETATM    7  O3P MC3 X 301      18.787  39.378   4.177  1.00 93.34    -0.317 OA
BRANCH   7   8
HETATM    8  P   MC3 X 301      19.735  39.892   5.368  1.00 99.76     0.329 P 
BRANCH   8   9
HETATM    9  O1P MC3 X 301      20.470  38.734   6.002  1.00 79.99    -0.328 OA
HETATM   10  H1P MC3 X 301      20.070  37.891   5.827  1.00  0.00     0.219 HD
ENDBRANCH   8   9
BRANCH   8  11
HETATM   11  O2P MC3 X 301      18.674  40.593   6.351  1.00 83.77    -0.328 OA
HETATM   12  H2P MC3 X 301      17.996  40.004   6.657  1.00  0.00     0.219 HD
ENDBRANCH   8  11
ENDBRANCH   7   8
ENDBRANCH   6   7
ENDBRANCH   5   6
ENDBRANCH   4   5
ENDBRANCH   3   4
ENDBRANCH   1   3
BRANCH   1  13
HETATM   13  C12 MC3 X 301      16.094  37.340   8.745  1.00 70.26     0.111 C 
BRANCH  13  14
HETATM   14  C13 MC3 X 301      15.212  38.358   9.408  1.00 68.05     0.010 C 
BRANCH  14  15
HETATM   15  C14 MC3 X 301      15.275  38.333  10.938  1.00 65.69     0.000 C 
BRANCH  15  16
HETATM   16  C15 MC3 X 301      13.906  38.300  11.612  1.00 64.07     0.000 C 
BRANCH  16  17
HETATM   17  C16 MC3 X 301      13.330  39.654  12.016  1.00 63.64     0.000 C 
BRANCH  17  18
HETATM   18  C17 MC3 X 301      14.291  40.532  12.800  1.00 65.61     0.000 C 
BRANCH  18  19
HETATM   19  C18 MC3 X 301      14.546  41.903  12.195  1.00 65.35     0.000 C 
BRANCH  19  20
HETATM   20  C19 MC3 X 301      14.317  41.984  10.699  1.00 59.74     0.000 C 
BRANCH  20  21
HETATM   21  C20 MC3 X 301      15.589  41.947   9.856  1.00 58.18     0.000 C 
BRANCH  21  22
HETATM   22  C21 MC3 X 301      16.871  42.046  10.654  1.00 54.24     0.000 C 
HETATM   23  C22 MC3 X 301      17.812  40.880  10.510  1.00 55.64     0.000 C 
ENDBRANCH  21  22
ENDBRANCH  20  21
ENDBRANCH  19  20
ENDBRANCH  18  19
ENDBRANCH  17  18
ENDBRANCH  16  17
ENDBRANCH  15  16
ENDBRANCH  14  15
ENDBRANCH  13  14
ENDBRANCH   1  13
TORSDOF 18
ENDMDL
MODEL 16
REMARK VINA RESULT:      -3.5     17.014     18.607
REMARK  18 active torsions:
REMARK  status: ('A' for Active; 'I' for Inactive)
REMARK    1  A    between atoms: P_1  and  O1P_2 
REMARK    2  A    between atoms: P_1  and  O2P_4 
REMARK    3  A    between atoms: P_1  and  O3P_6 
REMARK    4  A    between atoms: O3P_6  and  C1_7 
REMARK    5  A    between atoms: C1_7  and  C2_8 
REMARK    6  A    between atoms: C2_8  and  C3_9 
REMARK    7  A    between atoms: C3_9  and  O3_10 
REMARK    8  A    between atoms: O3_10  and  C11_11 
REMARK    9  A    between atoms: C11_11  and  C12_13 
REMARK   10  A    between atoms: C12_13  and  C13_14 
REMARK   11  A    between atoms: C13_14  and  C14_15 
REMARK   12  A    between atoms: C14_15  and  C15_16 
REMARK   13  A    between atoms: C15_16  and  C16_17 
REMARK   14  A    between atoms: C16_17  and  C17_18 
REMARK   15  A    between atoms: C17_18  and  C18_19 
REMARK   16  A    between atoms: C18_19  and  C19_20 
REMARK   17  A    between atoms: C19_20  and  C20_21 
REMARK   18  A    between atoms: C20_21  and  C21_22 
ROOT
HETATM    1  C11 MC3 X 301      17.885  37.518  38.632  1.00 74.30     0.258 C 
HETATM    2  O11 MC3 X 301      17.882  36.556  37.922  1.00 71.30    -0.265 OA
ENDROOT
BRANCH   1   3
HETATM    3  O3  MC3 X 301      16.855  37.824  39.418  1.00 84.33    -0.321 OA
BRANCH   3   4
HETATM    4  C3  MC3 X 301      16.140  39.039  39.097  1.00 88.26     0.185 C 
BRANCH   4   5
HETATM    5  C2  MC3 X 301      14.977  39.217  40.048  1.00 84.83     0.042 C 
BRANCH   5   6
HETATM    6  C1  MC3 X 301      15.297  38.842  41.477  1.00 87.52     0.185 C 
BRANCH   6   7
HETATM    7  O3P MC3 X 301      14.426  37.743  41.869  1.00 93.34    -0.317 OA
BRANCH   7   8
HETATM    8  P   MC3 X 301      14.203  37.419  43.426  1.00 99.76     0.329 P 
BRANCH   8   9
HETATM    9  O1P MC3 X 301      14.660  36.016  43.751  1.00 79.99    -0.328 OA
HETATM   10  H1P MC3 X 301      14.503  35.396  43.050  1.00  0.00     0.219 HD
ENDBRANCH   8   9
BRANCH   8  11
HETATM   11  O2P MC3 X 301      12.617  37.628  43.579  1.00 83.77    -0.328 OA
HETATM   12  H2P MC3 X 301      12.138  37.492  42.770  1.00  0.00     0.219 HD
ENDBRANCH   8  11
ENDBRANCH   7   8
ENDBRANCH   6   7
ENDBRANCH   5   6
ENDBRANCH   4   5
ENDBRANCH   3   4
ENDBRANCH   1   3
BRANCH   1  13
HETATM   13  C12 MC3 X 301      19.030  38.499  38.787  1.00 70.26     0.111 C 
BRANCH  13  14
HETATM   14  C13 MC3 X 301      20.383  37.867  38.950  1.00 68.05     0.010 C 
BRANCH  14  15
HETATM   15  C14 MC3 X 301      21.532  38.707  38.382  1.00 65.69     0.000 C 
BRANCH  15  16
HETATM   16  C15 MC3 X 301      22.127  38.147  37.093  1.00 64.07     0.000 C 
BRANCH  16  17
HETATM   17  C16 MC3 X 301      22.899  39.141  36.230  1.00 63.64     0.000 C 
BRANCH  17  18
HETATM   18  C17 MC3 X 301      22.028  39.964  35.295  1.00 65.61     0.000 C 
BRANCH  18  19
HETATM   19  C18 MC3 X 301      22.271  41.464  35.348  1.00 65.35     0.000 C 
BRANCH  19  20
HETATM   20  C19 MC3 X 301      21.426  42.203  36.365  1.00 59.74     0.000 C 
BRANCH  20  21
HETATM   21  C20 MC3 X 301      20.134  41.493  36.758  1.00 58.18     0.000 C 
BRANCH  21  22
HETATM   22  C21 MC3 X 301      19.010  42.421  37.165  1.00 54.24     0.000 C 
HETATM   23  C22 MC3 X 301      17.624  41.846  37.045  1.00 55.64     0.000 C 
ENDBRANCH  21  22
ENDBRANCH  20  21
ENDBRANCH  19  20
ENDBRANCH  18  19
ENDBRANCH  17  18
ENDBRANCH  16  17
ENDBRANCH  15  16
ENDBRANCH  14  15
ENDBRANCH  13  14
ENDBRANCH   1  13
TORSDOF 18
ENDMDL
MODEL 17
REMARK VINA RESULT:      -3.4     15.261     17.362
REMARK  18 active torsions:
REMARK  status: ('A' for Active; 'I' for Inactive)
REMARK    1  A    between atoms: P_1  and  O1P_2 
REMARK    2  A    between atoms: P_1  and  O2P_4 
REMARK    3  A    between atoms: P_1  and  O3P_6 
REMARK    4  A    between atoms: O3P_6  and  C1_7 
REMARK    5  A    between atoms: C1_7  and  C2_8 
REMARK    6  A    between atoms: C2_8  and  C3_9 
REMARK    7  A    between atoms: C3_9  and  O3_10 
REMARK    8  A    between atoms: O3_10  and  C11_11 
REMARK    9  A    between atoms: C11_11  and  C12_13 
REMARK   10  A    between atoms: C12_13  and  C13_14 
REMARK   11  A    between atoms: C13_14  and  C14_15 
REMARK   12  A    between atoms: C14_15  and  C15_16 
REMARK   13  A    between atoms: C15_16  and  C16_17 
REMARK   14  A    between atoms: C16_17  and  C17_18 
REMARK   15  A    between atoms: C17_18  and  C18_19 
REMARK   16  A    between atoms: C18_19  and  C19_20 
REMARK   17  A    between atoms: C19_20  and  C20_21 
REMARK   18  A    between atoms: C20_21  and  C21_22 
ROOT
HETATM    1  C11 MC3 X 301      10.813  21.023  20.804  1.00 74.30     0.258 C 
HETATM    2  O11 MC3 X 301       9.846  21.722  20.722  1.00 71.30    -0.265 OA
ENDROOT
BRANCH   1   3
HETATM    3  O3  MC3 X 301      11.191  20.465  21.952  1.00 84.33    -0.321 OA
BRANCH   3   4
HETATM    4  C3  MC3 X 301      12.415  19.695  21.920  1.00 88.26     0.185 C 
BRANCH   4   5
HETATM    5  C2  MC3 X 301      13.312  20.111  23.066  1.00 84.83     0.042 C 
BRANCH   5   6
HETATM    6  C1  MC3 X 301      13.993  21.444  22.854  1.00 87.52     0.185 C 
BRANCH   6   7
HETATM    7  O3P MC3 X 301      15.380  21.323  23.278  1.00 93.34    -0.317 OA
BRANCH   7   8
HETATM    8  P   MC3 X 301      16.414  22.513  22.969  1.00 99.76     0.329 P 
BRANCH   8   9
HETATM    9  O1P MC3 X 301      17.837  22.005  22.998  1.00 79.99    -0.328 OA
HETATM   10  H1P MC3 X 301      18.208  21.871  22.134  1.00  0.00     0.219 HD
ENDBRANCH   8   9
BRANCH   8  11
HETATM   11  O2P MC3 X 301      16.080  23.551  24.151  1.00 83.77    -0.328 OA
HETATM   12  H2P MC3 X 301      15.453  24.219  23.902  1.00  0.00     0.219 HD
ENDBRANCH   8  11
ENDBRANCH   7   8
ENDBRANCH   6   7
ENDBRANCH   5   6
ENDBRANCH   4   5
ENDBRANCH   3   4
ENDBRANCH   1   3
BRANCH   1  13
HETATM   13  C12 MC3 X 301      11.721  20.631  19.656  1.00 70.26     0.111 C 
BRANCH  13  14
HETATM   14  C13 MC3 X 301      12.397  21.781  18.965  1.00 68.05     0.010 C 
BRANCH  14  15
HETATM   15  C14 MC3 X 301      13.828  21.478  18.511  1.00 65.69     0.000 C 
BRANCH  15  16
HETATM   16  C15 MC3 X 301      14.900  22.182  19.339  1.00 64.07     0.000 C 
BRANCH  16  17
HETATM   17  C16 MC3 X 301      15.750  23.208  18.595  1.00 63.64     0.000 C 
BRANCH  17  18
HETATM   18  C17 MC3 X 301      15.602  23.162  17.083  1.00 65.61     0.000 C 
BRANCH  18  19
HETATM   19  C18 MC3 X 301      16.809  22.615  16.338  1.00 65.35     0.000 C 
BRANCH  19  20
HETATM   20  C19 MC3 X 301      16.598  21.249  15.715  1.00 59.74     0.000 C 
BRANCH  20  21
HETATM   21  C20 MC3 X 301      17.304  20.104  16.437  1.00 58.18     0.000 C 
BRANCH  21  22
HETATM   22  C21 MC3 X 301      18.561  20.510  17.175  1.00 54.24     0.000 C 
HETATM   23  C22 MC3 X 301      19.847  19.988  16.593  1.00 55.64     0.000 C 
ENDBRANCH  21  22
ENDBRANCH  20  21
ENDBRANCH  19  20
ENDBRANCH  18  19
ENDBRANCH  17  18
ENDBRANCH  16  17
ENDBRANCH  15  16
ENDBRANCH  14  15
ENDBRANCH  13  14
ENDBRANCH   1  13
TORSDOF 18
ENDMDL
MODEL 18
REMARK VINA RESULT:      -3.4      6.882     10.558
REMARK  18 active torsions:
REMARK  status: ('A' for Active; 'I' for Inactive)
REMARK    1  A    between atoms: P_1  and  O1P_2 
REMARK    2  A    between atoms: P_1  and  O2P_4 
REMARK    3  A    between atoms: P_1  and  O3P_6 
REMARK    4  A    between atoms: O3P_6  and  C1_7 
REMARK    5  A    between atoms: C1_7  and  C2_8 
REMARK    6  A    between atoms: C2_8  and  C3_9 
REMARK    7  A    between atoms: C3_9  and  O3_10 
REMARK    8  A    between atoms: O3_10  and  C11_11 
REMARK    9  A    between atoms: C11_11  and  C12_13 
REMARK   10  A    between atoms: C12_13  and  C13_14 
REMARK   11  A    between atoms: C13_14  and  C14_15 
REMARK   12  A    between atoms: C14_15  and  C15_16 
REMARK   13  A    between atoms: C15_16  and  C16_17 
REMARK   14  A    between atoms: C16_17  and  C17_18 
REMARK   15  A    between atoms: C17_18  and  C18_19 
REMARK   16  A    between atoms: C18_19  and  C19_20 
REMARK   17  A    between atoms: C19_20  and  C20_21 
REMARK   18  A    between atoms: C20_21  and  C21_22 
ROOT
HETATM    1  C11 MC3 X 301      21.583  40.596  19.378  1.00 74.30     0.258 C 
HETATM    2  O11 MC3 X 301      22.582  40.791  18.750  1.00 71.30    -0.265 OA
ENDROOT
BRANCH   1   3
HETATM    3  O3  MC3 X 301      20.759  41.583  19.725  1.00 84.33    -0.321 OA
BRANCH   3   4
HETATM    4  C3  MC3 X 301      21.379  42.797  20.209  1.00 88.26     0.185 C 
BRANCH   4   5
HETATM    5  C2  MC3 X 301      20.330  43.873  20.386  1.00 84.83     0.042 C 
BRANCH   5   6
HETATM    6  C1  MC3 X 301      20.251  44.842  19.228  1.00 87.52     0.185 C 
BRANCH   6   7
HETATM    7  O3P MC3 X 301      19.046  44.550  18.466  1.00 93.34    -0.317 OA
BRANCH   7   8
HETATM    8  P   MC3 X 301      19.143  43.671  17.125  1.00 99.76     0.329 P 
BRANCH   8   9
HETATM    9  O1P MC3 X 301      18.232  44.227  16.055  1.00 79.99    -0.328 OA
HETATM   10  H1P MC3 X 301      17.989  45.133  16.200  1.00  0.00     0.219 HD
ENDBRANCH   8   9
BRANCH   8  11
HETATM   11  O2P MC3 X 301      18.699  42.220  17.654  1.00 83.77    -0.328 OA
HETATM   12  H2P MC3 X 301      17.973  42.245  18.266  1.00  0.00     0.219 HD
ENDBRANCH   8  11
ENDBRANCH   7   8
ENDBRANCH   6   7
ENDBRANCH   5   6
ENDBRANCH   4   5
ENDBRANCH   3   4
ENDBRANCH   1   3
BRANCH   1  13
HETATM   13  C12 MC3 X 301      21.077  39.244  19.837  1.00 70.26     0.111 C 
BRANCH  13  14
HETATM   14  C13 MC3 X 301      22.107  38.151  19.834  1.00 68.05     0.010 C 
BRANCH  14  15
HETATM   15  C14 MC3 X 301      21.606  36.824  20.415  1.00 65.69     0.000 C 
BRANCH  15  16
HETATM   16  C15 MC3 X 301      22.276  36.434  21.729  1.00 64.07     0.000 C 
BRANCH  16  17
HETATM   17  C16 MC3 X 301      23.309  37.420  22.268  1.00 63.64     0.000 C 
BRANCH  17  18
HETATM   18  C17 MC3 X 301      24.264  36.826  23.290  1.00 65.61     0.000 C 
BRANCH  18  19
HETATM   19  C18 MC3 X 301      25.697  36.664  22.810  1.00 65.35     0.000 C 
BRANCH  19  20
HETATM   20  C19 MC3 X 301      26.130  35.229  22.592  1.00 59.74     0.000 C 
BRANCH  20  21
HETATM   21  C20 MC3 X 301      26.219  34.804  21.128  1.00 58.18     0.000 C 
BRANCH  21  22
HETATM   22  C21 MC3 X 301      26.287  33.308  20.915  1.00 54.24     0.000 C 
HETATM   23  C22 MC3 X 301      27.563  32.802  20.296  1.00 55.64     0.000 C 
ENDBRANCH  21  22
ENDBRANCH  20  21
ENDBRANCH  19  20
ENDBRANCH  18  19
ENDBRANCH  17  18
ENDBRANCH  16  17
ENDBRANCH  15  16
ENDBRANCH  14  15
ENDBRANCH  13  14
ENDBRANCH   1  13
TORSDOF 18
ENDMDL
MODEL 19
REMARK VINA RESULT:      -3.4     20.868     25.598
REMARK  18 active torsions:
REMARK  status: ('A' for Active; 'I' for Inactive)
REMARK    1  A    between atoms: P_1  and  O1P_2 
REMARK    2  A    between atoms: P_1  and  O2P_4 
REMARK    3  A    between atoms: P_1  and  O3P_6 
REMARK    4  A    between atoms: O3P_6  and  C1_7 
REMARK    5  A    between atoms: C1_7  and  C2_8 
REMARK    6  A    between atoms: C2_8  and  C3_9 
REMARK    7  A    between atoms: C3_9  and  O3_10 
REMARK    8  A    between atoms: O3_10  and  C11_11 
REMARK    9  A    between atoms: C11_11  and  C12_13 
REMARK   10  A    between atoms: C12_13  and  C13_14 
REMARK   11  A    between atoms: C13_14  and  C14_15 
REMARK   12  A    between atoms: C14_15  and  C15_16 
REMARK   13  A    between atoms: C15_16  and  C16_17 
REMARK   14  A    between atoms: C16_17  and  C17_18 
REMARK   15  A    between atoms: C17_18  and  C18_19 
REMARK   16  A    between atoms: C18_19  and  C19_20 
REMARK   17  A    between atoms: C19_20  and  C20_21 
REMARK   18  A    between atoms: C20_21  and  C21_22 
ROOT
HETATM    1  C11 MC3 X 301      18.247  12.210  30.410  1.00 74.30     0.258 C 
HETATM    2  O11 MC3 X 301      18.535  11.375  31.216  1.00 71.30    -0.265 OA
ENDROOT
BRANCH   1   3
HETATM    3  O3  MC3 X 301      19.051  13.234  30.130  1.00 84.33    -0.321 OA
BRANCH   3   4
HETATM    4  C3  MC3 X 301      18.752  13.975  28.925  1.00 88.26     0.185 C 
BRANCH   4   5
HETATM    5  C2  MC3 X 301      20.021  14.585  28.370  1.00 84.83     0.042 C 
BRANCH   5   6
HETATM    6  C1  MC3 X 301      19.942  16.083  28.180  1.00 87.52     0.185 C 
BRANCH   6   7
HETATM    7  O3P MC3 X 301      20.569  16.725  29.326  1.00 93.34    -0.317 OA
BRANCH   7   8
HETATM    8  P   MC3 X 301      22.065  17.298  29.198  1.00 99.76     0.329 P 
BRANCH   8   9
HETATM    9  O1P MC3 X 301      23.007  16.535  30.100  1.00 79.99    -0.328 OA
HETATM   10  H1P MC3 X 301      22.689  16.447  30.991  1.00  0.00     0.219 HD
ENDBRANCH   8   9
BRANCH   8  11
HETATM   11  O2P MC3 X 301      21.865  18.833  29.632  1.00 83.77    -0.328 OA
HETATM   12  H2P MC3 X 301      22.103  19.452  28.952  1.00  0.00     0.219 HD
ENDBRANCH   8  11
ENDBRANCH   7   8
ENDBRANCH   6   7
ENDBRANCH   5   6
ENDBRANCH   4   5
ENDBRANCH   3   4
ENDBRANCH   1   3
BRANCH   1  13
HETATM   13  C12 MC3 X 301      16.987  12.230  29.569  1.00 70.26     0.111 C 
BRANCH  13  14
HETATM   14  C13 MC3 X 301      15.708  12.334  30.351  1.00 68.05     0.010 C 
BRANCH  14  15
HETATM   15  C14 MC3 X 301      14.501  12.768  29.513  1.00 65.69     0.000 C 
BRANCH  15  16
HETATM   16  C15 MC3 X 301      14.875  13.463  28.207  1.00 64.07     0.000 C 
BRANCH  16  17
HETATM   17  C16 MC3 X 301      14.008  13.120  26.999  1.00 63.64     0.000 C 
BRANCH  17  18
HETATM   18  C17 MC3 X 301      12.977  12.035  27.258  1.00 65.61     0.000 C 
BRANCH  18  19
HETATM   19  C18 MC3 X 301      12.993  10.884  26.265  1.00 65.35     0.000 C 
BRANCH  19  20
HETATM   20  C19 MC3 X 301      12.976   9.507  26.897  1.00 59.74     0.000 C 
BRANCH  20  21
HETATM   21  C20 MC3 X 301      12.940   9.505  28.423  1.00 58.18     0.000 C 
BRANCH  21  22
HETATM   22  C21 MC3 X 301      11.599   9.132  29.016  1.00 54.24     0.000 C 
HETATM   23  C22 MC3 X 301      11.009  10.144  29.962  1.00 55.64     0.000 C 
ENDBRANCH  21  22
ENDBRANCH  20  21
ENDBRANCH  19  20
ENDBRANCH  18  19
ENDBRANCH  17  18
ENDBRANCH  16  17
ENDBRANCH  15  16
ENDBRANCH  14  15
ENDBRANCH  13  14
ENDBRANCH   1  13
TORSDOF 18
ENDMDL
MODEL 20
REMARK VINA RESULT:      -3.4      7.644     14.408
REMARK  18 active torsions:
REMARK  status: ('A' for Active; 'I' for Inactive)
REMARK    1  A    between atoms: P_1  and  O1P_2 
REMARK    2  A    between atoms: P_1  and  O2P_4 
REMARK    3  A    between atoms: P_1  and  O3P_6 
REMARK    4  A    between atoms: O3P_6  and  C1_7 
REMARK    5  A    between atoms: C1_7  and  C2_8 
REMARK    6  A    between atoms: C2_8  and  C3_9 
REMARK    7  A    between atoms: C3_9  and  O3_10 
REMARK    8  A    between atoms: O3_10  and  C11_11 
REMARK    9  A    between atoms: C11_11  and  C12_13 
REMARK   10  A    between atoms: C12_13  and  C13_14 
REMARK   11  A    between atoms: C13_14  and  C14_15 
REMARK   12  A    between atoms: C14_15  and  C15_16 
REMARK   13  A    between atoms: C15_16  and  C16_17 
REMARK   14  A    between atoms: C16_17  and  C17_18 
REMARK   15  A    between atoms: C17_18  and  C18_19 
REMARK   16  A    between atoms: C18_19  and  C19_20 
REMARK   17  A    between atoms: C19_20  and  C20_21 
REMARK   18  A    between atoms: C20_21  and  C21_22 
ROOT
HETATM    1  C11 MC3 X 301      19.677  27.525  20.275  1.00 74.30     0.258 C 
HETATM    2  O11 MC3 X 301      20.048  27.126  21.340  1.00 71.30    -0.265 OA
ENDROOT
BRANCH   1   3
HETATM    3  O3  MC3 X 301      19.590  28.823  19.994  1.00 84.33    -0.321 OA
BRANCH   3   4
HETATM    4  C3  MC3 X 301      19.586  29.726  21.124  1.00 88.26     0.185 C 
BRANCH   4   5
HETATM    5  C2  MC3 X 301      20.691  30.748  20.967  1.00 84.83     0.042 C 
BRANCH   5   6
HETATM    6  C1  MC3 X 301      22.036  30.272  21.467  1.00 87.52     0.185 C 
BRANCH   6   7
HETATM    7  O3P MC3 X 301      22.795  29.768  20.332  1.00 93.34    -0.317 OA
BRANCH   7   8
HETATM    8  P   MC3 X 301      23.444  28.300  20.396  1.00 99.76     0.329 P 
BRANCH   8   9
HETATM    9  O1P MC3 X 301      23.007  27.576  21.648  1.00 79.99    -0.328 OA
HETATM   10  H1P MC3 X 301      23.305  26.676  21.688  1.00  0.00     0.219 HD
ENDBRANCH   8   9
BRANCH   8  11
HETATM   11  O2P MC3 X 301      25.016  28.636  20.366  1.00 83.77    -0.328 OA
HETATM   12  H2P MC3 X 301      25.339  28.860  19.502  1.00  0.00     0.219 HD
ENDBRANCH   8  11
ENDBRANCH   7   8
ENDBRANCH   6   7
ENDBRANCH   5   6
ENDBRANCH   4   5
ENDBRANCH   3   4
ENDBRANCH   1   3
BRANCH   1  13
HETATM   13  C12 MC3 X 301      19.294  26.659  19.092  1.00 70.26     0.111 C 
BRANCH  13  14
HETATM   14  C13 MC3 X 301      18.276  25.596  19.393  1.00 68.05     0.010 C 
BRANCH  14  15
HETATM   15  C14 MC3 X 301      18.877  24.204  19.611  1.00 65.69     0.000 C 
BRANCH  15  16
HETATM   16  C15 MC3 X 301      17.862  23.069  19.505  1.00 64.07     0.000 C 
BRANCH  16  17
HETATM   17  C16 MC3 X 301      18.254  21.908  18.596  1.00 63.64     0.000 C 
BRANCH  17  18
HETATM   18  C17 MC3 X 301      17.347  21.725  17.390  1.00 65.61     0.000 C 
BRANCH  18  19
HETATM   19  C18 MC3 X 301      17.680  20.528  16.514  1.00 65.35     0.000 C 
BRANCH  19  20
HETATM   20  C19 MC3 X 301      18.990  19.846  16.851  1.00 59.74     0.000 C 
BRANCH  20  21
HETATM   21  C20 MC3 X 301      20.159  20.226  15.947  1.00 58.18     0.000 C 
BRANCH  21  22
HETATM   22  C21 MC3 X 301      21.013  19.058  15.505  1.00 54.24     0.000 C 
HETATM   23  C22 MC3 X 301      22.004  18.561  16.523  1.00 55.64     0.000 C 
ENDBRANCH  21  22
ENDBRANCH  20  21
ENDBRANCH  19  20
ENDBRANCH  18  19
ENDBRANCH  17  18
ENDBRANCH  16  17
ENDBRANCH  15  16
ENDBRANCH  14  15
ENDBRANCH  13  14
ENDBRANCH   1  13
TORSDOF 18
ENDMDL
