MODEL 1
REMARK VINA RESULT:      -9.8      0.000      0.000
REMARK  Name = 5280637
REMARK                            x       y       z     vdW  Elec       q    Type
REMARK                         _______ _______ _______ _____ _____    ______ ____
ROOT
ATOM     13  C   LIG    1      166.147 173.042 169.824  0.00  0.00    +0.131 A 
ATOM     14  C   LIG    1      166.433 173.884 170.898  0.00  0.00    +0.092 A 
ATOM     15  C   LIG    1      167.727 174.376 171.078  0.00  0.00    +0.135 A 
ATOM     16  C   LIG    1      168.731 174.019 170.176  0.00  0.00    +0.105 A 
ATOM     17  C   LIG    1      170.104 174.519 170.340  0.00  0.00    +0.197 A 
ATOM     18  C   LIG    1      171.085 174.079 169.327  0.00  0.00    +0.098 A 
ATOM     19  C   LIG    1      170.686 173.270 168.333  0.00  0.00    +0.139 A 
ATOM     30  O   LIG    1      169.393 172.793 168.185  0.00  0.00    -0.454 OA
ATOM     31  O   LIG    1      170.424 175.258 171.260  0.00  0.00    -0.287 OA
ATOM     32  C   LIG    1      168.446 173.177 169.101  0.00  0.00    +0.146 A 
ATOM     35  C   LIG    1      167.153 172.686 168.924  0.00  0.00    +0.093 A 
ENDROOT
BRANCH  19  20
ATOM     20  C   LIG    1      171.624 172.790 167.297  0.00  0.00    +0.021 A 
ATOM     21  C   LIG    1      171.267 172.844 165.949  0.00  0.00    +0.015 A 
ATOM     22  C   LIG    1      172.152 172.391 164.971  0.00  0.00    +0.050 A 
ATOM     23  C   LIG    1      173.398 171.883 165.340  0.00  0.00    +0.158 A 
ATOM     24  C   LIG    1      173.757 171.827 166.686  0.00  0.00    +0.159 A 
ATOM     29  C   LIG    1      172.872 172.281 167.664  0.00  0.00    +0.060 A 
BRANCH  24  25
ATOM     25  O   LIG    1      174.973 171.335 167.057  0.00  0.00    -0.503 OA
ATOM     26  H   LIG    1      174.864 170.847 167.891  0.00  0.00    +0.292 HD
ENDBRANCH  24  25
BRANCH  23  27
ATOM     27  O   LIG    1      174.253 171.442 164.375  0.00  0.00    -0.503 OA
ATOM     28  H   LIG    1      174.353 170.478 164.457  0.00  0.00    +0.292 HD
ENDBRANCH  23  27
ENDBRANCH  19  20
BRANCH  15  33
ATOM     33  O   LIG    1      167.955 175.195 172.142  0.00  0.00    -0.506 OA
ATOM     34  H   LIG    1      168.801 175.655 172.042  0.00  0.00    +0.292 HD
ENDBRANCH  15  33
BRANCH  13  12
ATOM     12  O   LIG    1      164.881 172.563 169.652  0.00  0.00    -0.461 OA
BRANCH  12   2
ATOM      1  O   LIG    1      162.878 173.725 169.939  0.00  0.00    -0.331 OA
ATOM      2  C   LIG    1      163.944 173.444 169.035  0.00  0.00    +0.339 C 
ATOM      3  C   LIG    1      163.412 172.757 167.776  0.00  0.00    +0.214 C 
ATOM      4  C   LIG    1      162.288 173.570 167.132  0.00  0.00    +0.180 C 
ATOM      5  C   LIG    1      161.245 173.990 168.167  0.00  0.00    +0.177 C 
ATOM     36  C   LIG    1      161.915 174.626 169.387  0.00  0.00    +0.179 C 
BRANCH   5   6
ATOM      6  O   LIG    1      160.348 174.928 167.579  0.00  0.00    -0.386 OA
ATOM      7  H   LIG    1      160.418 174.845 166.613  0.00  0.00    +0.210 HD
ENDBRANCH   5   6
BRANCH   4   8
ATOM      8  O   LIG    1      161.634 172.775 166.141  0.00  0.00    -0.386 OA
ATOM      9  H   LIG    1      162.233 172.713 165.377  0.00  0.00    +0.210 HD
ENDBRANCH   4   8
BRANCH   3  10
ATOM     10  O   LIG    1      164.489 172.622 166.850  0.00  0.00    -0.383 OA
ATOM     11  H   LIG    1      164.186 172.064 166.114  0.00  0.00    +0.210 HD
ENDBRANCH   3  10
BRANCH  36  37
ATOM     37  C   LIG    1      160.904 174.946 170.484  0.00  0.00    +0.190 C 
BRANCH  37  38
ATOM     38  O   LIG    1      159.904 173.943 170.481  0.00  0.00    -0.392 OA
ATOM     39  H   LIG    1      160.097 173.335 169.747  0.00  0.00    +0.210 HD
ENDBRANCH  37  38
ENDBRANCH  36  37
ENDBRANCH  12   2
ENDBRANCH  13  12
TORSDOF 11
ENDMDL
MODEL 2
REMARK VINA RESULT:      -9.2      1.465      2.406
REMARK  Name = 5280637
REMARK                            x       y       z     vdW  Elec       q    Type
REMARK                         _______ _______ _______ _____ _____    ______ ____
ROOT
ATOM     13  C   LIG    1      165.956 174.128 169.015  0.00  0.00    +0.131 A 
ATOM     14  C   LIG    1      166.208 174.407 170.359  0.00  0.00    +0.092 A 
ATOM     15  C   LIG    1      167.500 174.279 170.871  0.00  0.00    +0.135 A 
ATOM     16  C   LIG    1      168.537 173.871 170.030  0.00  0.00    +0.105 A 
ATOM     17  C   LIG    1      169.909 173.726 170.541  0.00  0.00    +0.197 A 
ATOM     18  C   LIG    1      170.927 173.290 169.563  0.00  0.00    +0.098 A 
ATOM     19  C   LIG    1      170.562 173.058 168.293  0.00  0.00    +0.139 A 
ATOM     30  O   LIG    1      169.267 173.188 167.815  0.00  0.00    -0.454 OA
ATOM     31  O   LIG    1      170.198 173.950 171.708  0.00  0.00    -0.287 OA
ATOM     32  C   LIG    1      168.287 173.593 168.686  0.00  0.00    +0.146 A 
ATOM     35  C   LIG    1      166.995 173.721 168.177  0.00  0.00    +0.093 A 
ENDROOT
BRANCH  19  20
ATOM     20  C   LIG    1      171.534 172.613 167.274  0.00  0.00    +0.021 A 
ATOM     21  C   LIG    1      171.185 172.616 165.922  0.00  0.00    +0.015 A 
ATOM     22  C   LIG    1      172.103 172.194 164.960  0.00  0.00    +0.050 A 
ATOM     23  C   LIG    1      173.373 171.769 165.348  0.00  0.00    +0.158 A 
ATOM     24  C   LIG    1      173.725 171.763 166.698  0.00  0.00    +0.159 A 
ATOM     29  C   LIG    1      172.807 172.185 167.660  0.00  0.00    +0.060 A 
BRANCH  24  25
ATOM     25  O   LIG    1      174.964 171.351 167.087  0.00  0.00    -0.503 OA
ATOM     26  H   LIG    1      175.619 171.735 166.481  0.00  0.00    +0.292 HD
ENDBRANCH  24  25
BRANCH  23  27
ATOM     27  O   LIG    1      174.260 171.358 164.399  0.00  0.00    -0.503 OA
ATOM     28  H   LIG    1      174.925 170.782 164.815  0.00  0.00    +0.292 HD
ENDBRANCH  23  27
ENDBRANCH  19  20
BRANCH  15  33
ATOM     33  O   LIG    1      167.694 174.562 172.189  0.00  0.00    -0.506 OA
ATOM     34  H   LIG    1      168.013 173.779 172.662  0.00  0.00    +0.292 HD
ENDBRANCH  15  33
BRANCH  13  12
ATOM     12  O   LIG    1      164.691 174.254 168.519  0.00  0.00    -0.461 OA
BRANCH  12   2
ATOM      1  O   LIG    1      164.133 172.004 168.259  0.00  0.00    -0.331 OA
ATOM      2  C   LIG    1      163.761 173.233 168.877  0.00  0.00    +0.339 C 
ATOM      3  C   LIG    1      162.375 173.673 168.404  0.00  0.00    +0.214 C 
ATOM      4  C   LIG    1      161.339 172.568 168.613  0.00  0.00    +0.180 C 
ATOM      5  C   LIG    1      161.844 171.228 168.079  0.00  0.00    +0.177 C 
ATOM     36  C   LIG    1      163.253 170.931 168.599  0.00  0.00    +0.179 C 
BRANCH   5   6
ATOM      6  O   LIG    1      160.960 170.191 168.496  0.00  0.00    -0.386 OA
ATOM      7  H   LIG    1      161.094 170.047 169.448  0.00  0.00    +0.210 HD
ENDBRANCH   5   6
BRANCH   4   8
ATOM      8  O   LIG    1      160.140 172.901 167.912  0.00  0.00    -0.386 OA
ATOM      9  H   LIG    1      159.392 172.677 168.492  0.00  0.00    +0.210 HD
ENDBRANCH   4   8
BRANCH   3  10
ATOM     10  O   LIG    1      161.993 174.828 169.150  0.00  0.00    -0.383 OA
ATOM     11  H   LIG    1      161.496 175.418 168.558  0.00  0.00    +0.210 HD
ENDBRANCH   3  10
BRANCH  36  37
ATOM     37  C   LIG    1      163.823 169.656 167.986  0.00  0.00    +0.190 C 
BRANCH  37  38
ATOM     38  O   LIG    1      163.352 169.546 166.655  0.00  0.00    -0.392 OA
ATOM     39  H   LIG    1      164.116 169.349 166.086  0.00  0.00    +0.210 HD
ENDBRANCH  37  38
ENDBRANCH  36  37
ENDBRANCH  12   2
ENDBRANCH  13  12
TORSDOF 11
ENDMDL
MODEL 3
REMARK VINA RESULT:      -9.0      1.787      2.718
REMARK  Name = 5280637
REMARK                            x       y       z     vdW  Elec       q    Type
REMARK                         _______ _______ _______ _____ _____    ______ ____
ROOT
ATOM     13  C   LIG    1      166.708 173.881 170.266  0.00  0.00    +0.131 A 
ATOM     14  C   LIG    1      167.251 174.399 171.442  0.00  0.00    +0.092 A 
ATOM     15  C   LIG    1      168.635 174.462 171.608  0.00  0.00    +0.135 A 
ATOM     16  C   LIG    1      169.472 174.003 170.588  0.00  0.00    +0.105 A 
ATOM     17  C   LIG    1      170.935 174.055 170.734  0.00  0.00    +0.197 A 
ATOM     18  C   LIG    1      171.723 173.545 169.593  0.00  0.00    +0.098 A 
ATOM     19  C   LIG    1      171.084 173.076 168.510  0.00  0.00    +0.139 A 
ATOM     30  O   LIG    1      169.705 173.021 168.379  0.00  0.00    -0.454 OA
ATOM     31  O   LIG    1      171.476 174.493 171.739  0.00  0.00    -0.287 OA
ATOM     32  C   LIG    1      168.931 173.486 169.412  0.00  0.00    +0.146 A 
ATOM     35  C   LIG    1      167.548 173.423 169.249  0.00  0.00    +0.093 A 
ENDROOT
BRANCH  19  20
ATOM     20  C   LIG    1      171.819 172.545 167.344  0.00  0.00    +0.021 A 
ATOM     21  C   LIG    1      173.206 172.690 167.264  0.00  0.00    +0.015 A 
ATOM     22  C   LIG    1      173.900 172.190 166.162  0.00  0.00    +0.050 A 
ATOM     23  C   LIG    1      173.209 171.544 165.137  0.00  0.00    +0.158 A 
ATOM     24  C   LIG    1      171.824 171.399 165.214  0.00  0.00    +0.159 A 
ATOM     29  C   LIG    1      171.130 171.898 166.316  0.00  0.00    +0.060 A 
BRANCH  24  25
ATOM     25  O   LIG    1      171.139 170.767 164.219  0.00  0.00    -0.503 OA
ATOM     26  H   LIG    1      170.309 171.250 164.064  0.00  0.00    +0.292 HD
ENDBRANCH  24  25
BRANCH  23  27
ATOM     27  O   LIG    1      173.898 171.061 164.066  0.00  0.00    -0.503 OA
ATOM     28  H   LIG    1      174.519 170.377 164.370  0.00  0.00    +0.292 HD
ENDBRANCH  23  27
ENDBRANCH  19  20
BRANCH  15  33
ATOM     33  O   LIG    1      169.115 174.975 172.775  0.00  0.00    -0.506 OA
ATOM     34  H   LIG    1      169.643 175.770 172.606  0.00  0.00    +0.292 HD
ENDBRANCH  15  33
BRANCH  13  12
ATOM     12  O   LIG    1      165.354 173.821 170.110  0.00  0.00    -0.461 OA
BRANCH  12   2
ATOM      1  O   LIG    1      164.079 173.037 168.320  0.00  0.00    -0.331 OA
ATOM      2  C   LIG    1      164.837 172.658 169.466  0.00  0.00    +0.339 C 
ATOM      3  C   LIG    1      163.955 171.918 170.472  0.00  0.00    +0.214 C 
ATOM      4  C   LIG    1      163.238 170.735 169.818  0.00  0.00    +0.180 C 
ATOM      5  C   LIG    1      162.571 171.149 168.506  0.00  0.00    +0.177 C 
ATOM     36  C   LIG    1      163.553 171.912 167.614  0.00  0.00    +0.179 C 
BRANCH   5   6
ATOM      6  O   LIG    1      162.118 169.985 167.820  0.00  0.00    -0.386 OA
ATOM      7  H   LIG    1      161.584 169.460 168.441  0.00  0.00    +0.210 HD
ENDBRANCH   5   6
BRANCH   4   8
ATOM      8  O   LIG    1      162.222 170.250 170.698  0.00  0.00    -0.386 OA
ATOM      9  H   LIG    1      161.422 170.778 170.536  0.00  0.00    +0.210 HD
ENDBRANCH   4   8
BRANCH   3  10
ATOM     10  O   LIG    1      164.784 171.441 171.531  0.00  0.00    -0.383 OA
ATOM     11  H   LIG    1      165.109 170.558 171.285  0.00  0.00    +0.210 HD
ENDBRANCH   3  10
BRANCH  36  37
ATOM     37  C   LIG    1      162.877 172.437 166.351  0.00  0.00    +0.190 C 
BRANCH  37  38
ATOM     38  O   LIG    1      161.542 172.787 166.667  0.00  0.00    -0.392 OA
ATOM     39  H   LIG    1      161.443 172.732 167.633  0.00  0.00    +0.210 HD
ENDBRANCH  37  38
ENDBRANCH  36  37
ENDBRANCH  12   2
ENDBRANCH  13  12
TORSDOF 11
ENDMDL
MODEL 4
REMARK VINA RESULT:      -8.8      1.643      9.038
REMARK  Name = 5280637
REMARK                            x       y       z     vdW  Elec       q    Type
REMARK                         _______ _______ _______ _____ _____    ______ ____
ROOT
ATOM     13  C   LIG    1      169.722 173.879 169.421  0.00  0.00    +0.131 A 
ATOM     14  C   LIG    1      169.899 173.439 170.733  0.00  0.00    +0.092 A 
ATOM     15  C   LIG    1      168.792 173.103 171.514  0.00  0.00    +0.135 A 
ATOM     16  C   LIG    1      167.509 173.210 170.974  0.00  0.00    +0.105 A 
ATOM     17  C   LIG    1      166.324 172.865 171.773  0.00  0.00    +0.197 A 
ATOM     18  C   LIG    1      165.017 173.014 171.101  0.00  0.00    +0.098 A 
ATOM     19  C   LIG    1      164.977 173.442 169.830  0.00  0.00    +0.139 A 
ATOM     30  O   LIG    1      166.095 173.775 169.081  0.00  0.00    -0.454 OA
ATOM     31  O   LIG    1      166.406 172.476 172.930  0.00  0.00    -0.287 OA
ATOM     32  C   LIG    1      167.332 173.649 169.663  0.00  0.00    +0.146 A 
ATOM     35  C   LIG    1      168.439 173.985 168.884  0.00  0.00    +0.093 A 
ENDROOT
BRANCH  19  20
ATOM     20  C   LIG    1      163.699 173.619 169.109  0.00  0.00    +0.021 A 
ATOM     21  C   LIG    1      162.688 174.411 169.658  0.00  0.00    +0.015 A 
ATOM     22  C   LIG    1      161.482 174.577 168.979  0.00  0.00    +0.050 A 
ATOM     23  C   LIG    1      161.282 173.951 167.748  0.00  0.00    +0.158 A 
ATOM     24  C   LIG    1      162.290 173.159 167.198  0.00  0.00    +0.159 A 
ATOM     29  C   LIG    1      163.497 172.993 167.877  0.00  0.00    +0.060 A 
BRANCH  24  25
ATOM     25  O   LIG    1      162.106 172.544 165.995  0.00  0.00    -0.503 OA
ATOM     26  H   LIG    1      162.828 172.812 165.402  0.00  0.00    +0.292 HD
ENDBRANCH  24  25
BRANCH  23  27
ATOM     27  O   LIG    1      160.099 174.120 167.095  0.00  0.00    -0.503 OA
ATOM     28  H   LIG    1      159.380 174.168 167.749  0.00  0.00    +0.292 HD
ENDBRANCH  23  27
ENDBRANCH  19  20
BRANCH  15  33
ATOM     33  O   LIG    1      169.018 172.679 172.789  0.00  0.00    -0.506 OA
ATOM     34  H   LIG    1      168.356 173.049 173.393  0.00  0.00    +0.292 HD
ENDBRANCH  15  33
BRANCH  13  12
ATOM     12  O   LIG    1      170.807 174.206 168.661  0.00  0.00    -0.461 OA
BRANCH  12   2
ATOM      1  O   LIG    1      171.867 172.293 167.851  0.00  0.00    -0.331 OA
ATOM      2  C   LIG    1      171.043 173.403 167.506  0.00  0.00    +0.339 C 
ATOM      3  C   LIG    1      171.733 174.278 166.459  0.00  0.00    +0.214 C 
ATOM      4  C   LIG    1      172.159 173.456 165.241  0.00  0.00    +0.180 C 
ATOM      5  C   LIG    1      172.902 172.188 165.662  0.00  0.00    +0.177 C 
ATOM     36  C   LIG    1      172.121 171.432 166.739  0.00  0.00    +0.179 C 
BRANCH   5   6
ATOM      6  O   LIG    1      173.076 171.345 164.526  0.00  0.00    -0.386 OA
ATOM      7  H   LIG    1      172.722 171.811 163.749  0.00  0.00    +0.210 HD
ENDBRANCH   5   6
BRANCH   4   8
ATOM      8  O   LIG    1      173.037 174.235 164.426  0.00  0.00    -0.386 OA
ATOM      9  H   LIG    1      173.422 174.926 164.992  0.00  0.00    +0.210 HD
ENDBRANCH   4   8
BRANCH   3  10
ATOM     10  O   LIG    1      170.817 175.292 166.048  0.00  0.00    -0.383 OA
ATOM     11  H   LIG    1      169.995 175.179 166.555  0.00  0.00    +0.210 HD
ENDBRANCH   3  10
BRANCH  36  37
ATOM     37  C   LIG    1      172.899 170.227 167.258  0.00  0.00    +0.190 C 
BRANCH  37  38
ATOM     38  O   LIG    1      174.086 170.688 167.875  0.00  0.00    -0.392 OA
ATOM     39  H   LIG    1      174.541 169.917 168.256  0.00  0.00    +0.210 HD
ENDBRANCH  37  38
ENDBRANCH  36  37
ENDBRANCH  12   2
ENDBRANCH  13  12
TORSDOF 11
ENDMDL
MODEL 5
REMARK VINA RESULT:      -8.7      1.736      2.221
REMARK  Name = 5280637
REMARK                            x       y       z     vdW  Elec       q    Type
REMARK                         _______ _______ _______ _____ _____    ______ ____
ROOT
ATOM     13  C   LIG    1      165.655 174.140 168.873  0.00  0.00    +0.131 A 
ATOM     14  C   LIG    1      165.836 174.388 170.234  0.00  0.00    +0.092 A 
ATOM     15  C   LIG    1      167.104 174.270 170.806  0.00  0.00    +0.135 A 
ATOM     16  C   LIG    1      168.188 173.902 170.006  0.00  0.00    +0.105 A 
ATOM     17  C   LIG    1      169.536 173.768 170.580  0.00  0.00    +0.197 A 
ATOM     18  C   LIG    1      170.608 173.376 169.643  0.00  0.00    +0.098 A 
ATOM     19  C   LIG    1      170.310 173.171 168.351  0.00  0.00    +0.139 A 
ATOM     30  O   LIG    1      169.037 173.290 167.814  0.00  0.00    -0.454 OA
ATOM     31  O   LIG    1      169.764 173.967 171.765  0.00  0.00    -0.287 OA
ATOM     32  C   LIG    1      168.008 173.654 168.646  0.00  0.00    +0.146 A 
ATOM     35  C   LIG    1      166.741 173.772 168.077  0.00  0.00    +0.093 A 
ENDROOT
BRANCH  19  20
ATOM     20  C   LIG    1      171.339 172.769 167.370  0.00  0.00    +0.021 A 
ATOM     21  C   LIG    1      171.098 172.914 166.002  0.00  0.00    +0.015 A 
ATOM     22  C   LIG    1      172.070 172.533 165.076  0.00  0.00    +0.050 A 
ATOM     23  C   LIG    1      173.285 172.007 165.516  0.00  0.00    +0.158 A 
ATOM     24  C   LIG    1      173.527 171.861 166.882  0.00  0.00    +0.159 A 
ATOM     29  C   LIG    1      172.556 172.241 167.808  0.00  0.00    +0.060 A 
BRANCH  24  25
ATOM     25  O   LIG    1      174.711 171.350 167.322  0.00  0.00    -0.503 OA
ATOM     26  H   LIG    1      175.329 172.087 167.464  0.00  0.00    +0.292 HD
ENDBRANCH  24  25
BRANCH  23  27
ATOM     27  O   LIG    1      174.225 171.638 164.602  0.00  0.00    -0.503 OA
ATOM     28  H   LIG    1      175.053 171.427 165.066  0.00  0.00    +0.292 HD
ENDBRANCH  23  27
ENDBRANCH  19  20
BRANCH  15  33
ATOM     33  O   LIG    1      167.228 174.522 172.139  0.00  0.00    -0.506 OA
ATOM     34  H   LIG    1      167.856 175.244 172.291  0.00  0.00    +0.292 HD
ENDBRANCH  15  33
BRANCH  13  12
ATOM     12  O   LIG    1      164.413 174.256 168.320  0.00  0.00    -0.461 OA
BRANCH  12   2
ATOM      1  O   LIG    1      163.895 172.410 169.649  0.00  0.00    -0.331 OA
ATOM      2  C   LIG    1      163.537 173.141 168.479  0.00  0.00    +0.339 C 
ATOM      3  C   LIG    1      163.666 172.260 167.236  0.00  0.00    +0.214 C 
ATOM      4  C   LIG    1      162.871 170.963 167.390  0.00  0.00    +0.180 C 
ATOM      5  C   LIG    1      163.163 170.290 168.731  0.00  0.00    +0.177 C 
ATOM     36  C   LIG    1      163.036 171.292 169.880  0.00  0.00    +0.179 C 
BRANCH   5   6
ATOM      6  O   LIG    1      162.242 169.221 168.933  0.00  0.00    -0.386 OA
ATOM      7  H   LIG    1      161.570 169.268 168.231  0.00  0.00    +0.210 HD
ENDBRANCH   5   6
BRANCH   4   8
ATOM      8  O   LIG    1      163.237 170.055 166.349  0.00  0.00    -0.386 OA
ATOM      9  H   LIG    1      164.121 169.709 166.564  0.00  0.00    +0.210 HD
ENDBRANCH   4   8
BRANCH   3  10
ATOM     10  O   LIG    1      163.168 172.991 166.116  0.00  0.00    -0.383 OA
ATOM     11  H   LIG    1      163.778 172.853 165.371  0.00  0.00    +0.210 HD
ENDBRANCH   3  10
BRANCH  36  37
ATOM     37  C   LIG    1      163.437 170.672 171.216  0.00  0.00    +0.190 C 
BRANCH  37  38
ATOM     38  O   LIG    1      162.296 170.063 171.791  0.00  0.00    -0.392 OA
ATOM     39  H   LIG    1      161.840 170.736 172.326  0.00  0.00    +0.210 HD
ENDBRANCH  37  38
ENDBRANCH  36  37
ENDBRANCH  12   2
ENDBRANCH  13  12
TORSDOF 11
ENDMDL
MODEL 6
REMARK VINA RESULT:      -8.6      1.438      1.919
REMARK  Name = 5280637
REMARK                            x       y       z     vdW  Elec       q    Type
REMARK                         _______ _______ _______ _____ _____    ______ ____
ROOT
ATOM     13  C   LIG    1      165.565 173.411 171.266  0.00  0.00    +0.131 A 
ATOM     14  C   LIG    1      165.846 174.396 172.213  0.00  0.00    +0.092 A 
ATOM     15  C   LIG    1      167.129 174.937 172.302  0.00  0.00    +0.135 A 
ATOM     16  C   LIG    1      168.129 174.486 171.438  0.00  0.00    +0.105 A 
ATOM     17  C   LIG    1      169.491 175.036 171.509  0.00  0.00    +0.197 A 
ATOM     18  C   LIG    1      170.468 174.487 170.546  0.00  0.00    +0.098 A 
ATOM     19  C   LIG    1      170.075 173.543 169.676  0.00  0.00    +0.139 A 
ATOM     30  O   LIG    1      168.792 173.021 169.617  0.00  0.00    -0.454 OA
ATOM     31  O   LIG    1      169.806 175.898 172.317  0.00  0.00    -0.287 OA
ATOM     32  C   LIG    1      167.849 173.502 170.490  0.00  0.00    +0.146 A 
ATOM     35  C   LIG    1      166.566 172.962 170.403  0.00  0.00    +0.093 A 
ENDROOT
BRANCH  19  20
ATOM     20  C   LIG    1      171.009 172.951 168.697  0.00  0.00    +0.021 A 
ATOM     21  C   LIG    1      172.377 172.902 168.974  0.00  0.00    +0.015 A 
ATOM     22  C   LIG    1      173.259 172.345 168.049  0.00  0.00    +0.050 A 
ATOM     23  C   LIG    1      172.776 171.835 166.844  0.00  0.00    +0.158 A 
ATOM     24  C   LIG    1      171.410 171.884 166.564  0.00  0.00    +0.159 A 
ATOM     29  C   LIG    1      170.528 172.441 167.489  0.00  0.00    +0.060 A 
BRANCH  24  25
ATOM     25  O   LIG    1      170.927 171.387 165.390  0.00  0.00    -0.503 OA
ATOM     26  H   LIG    1      170.280 172.019 165.033  0.00  0.00    +0.292 HD
ENDBRANCH  24  25
BRANCH  23  27
ATOM     27  O   LIG    1      173.648 171.294 165.948  0.00  0.00    -0.503 OA
ATOM     28  H   LIG    1      173.145 170.889 165.220  0.00  0.00    +0.292 HD
ENDBRANCH  23  27
ENDBRANCH  19  20
BRANCH  15  33
ATOM     33  O   LIG    1      167.353 175.896 173.244  0.00  0.00    -0.506 OA
ATOM     34  H   LIG    1      168.244 175.808 173.614  0.00  0.00    +0.292 HD
ENDBRANCH  15  33
BRANCH  13  12
ATOM     12  O   LIG    1      164.309 172.885 171.183  0.00  0.00    -0.461 OA
BRANCH  12   2
ATOM      1  O   LIG    1      162.507 174.352 170.974  0.00  0.00    -0.331 OA
ATOM      2  C   LIG    1      163.414 173.512 170.265  0.00  0.00    +0.339 C 
ATOM      3  C   LIG    1      162.656 172.411 169.522  0.00  0.00    +0.214 C 
ATOM      4  C   LIG    1      161.566 172.996 168.624  0.00  0.00    +0.180 C 
ATOM      5  C   LIG    1      160.713 174.015 169.379  0.00  0.00    +0.177 C 
ATOM     36  C   LIG    1      161.597 175.031 170.106  0.00  0.00    +0.179 C 
BRANCH   5   6
ATOM      6  O   LIG    1      159.868 174.699 168.458  0.00  0.00    -0.386 OA
ATOM      7  H   LIG    1      159.955 174.265 167.592  0.00  0.00    +0.210 HD
ENDBRANCH   5   6
BRANCH   4   8
ATOM      8  O   LIG    1      160.707 171.946 168.173  0.00  0.00    -0.386 OA
ATOM      9  H   LIG    1      160.790 171.212 168.806  0.00  0.00    +0.210 HD
ENDBRANCH   4   8
BRANCH   3  10
ATOM     10  O   LIG    1      163.589 171.685 168.723  0.00  0.00    -0.383 OA
ATOM     11  H   LIG    1      164.456 171.723 169.162  0.00  0.00    +0.210 HD
ENDBRANCH   3  10
BRANCH  36  37
ATOM     37  C   LIG    1      160.772 175.987 170.962  0.00  0.00    +0.190 C 
BRANCH  37  38
ATOM     38  O   LIG    1      159.449 175.490 171.043  0.00  0.00    -0.392 OA
ATOM     39  H   LIG    1      158.864 176.240 171.249  0.00  0.00    +0.210 HD
ENDBRANCH  37  38
ENDBRANCH  36  37
ENDBRANCH  12   2
ENDBRANCH  13  12
TORSDOF 11
ENDMDL
MODEL 7
REMARK VINA RESULT:      -8.4      1.426      2.393
REMARK  Name = 5280637
REMARK                            x       y       z     vdW  Elec       q    Type
REMARK                         _______ _______ _______ _____ _____    ______ ____
ROOT
ATOM     13  C   LIG    1      166.184 173.356 171.043  0.00  0.00    +0.131 A 
ATOM     14  C   LIG    1      166.490 174.356 171.967  0.00  0.00    +0.092 A 
ATOM     15  C   LIG    1      167.747 174.961 171.954  0.00  0.00    +0.135 A 
ATOM     16  C   LIG    1      168.696 174.559 171.012  0.00  0.00    +0.105 A 
ATOM     17  C   LIG    1      170.030 175.176 170.975  0.00  0.00    +0.197 A 
ATOM     18  C   LIG    1      170.953 174.675 169.936  0.00  0.00    +0.098 A 
ATOM     19  C   LIG    1      170.540 173.711 169.099  0.00  0.00    +0.139 A 
ATOM     30  O   LIG    1      169.284 173.125 169.141  0.00  0.00    -0.454 OA
ATOM     31  O   LIG    1      170.365 176.055 171.757  0.00  0.00    -0.287 OA
ATOM     32  C   LIG    1      168.391 173.560 170.088  0.00  0.00    +0.146 A 
ATOM     35  C   LIG    1      167.134 172.956 170.102  0.00  0.00    +0.093 A 
ENDROOT
BRANCH  19  20
ATOM     20  C   LIG    1      171.422 173.166 168.046  0.00  0.00    +0.021 A 
ATOM     21  C   LIG    1      171.250 173.555 166.716  0.00  0.00    +0.015 A 
ATOM     22  C   LIG    1      172.082 173.039 165.723  0.00  0.00    +0.050 A 
ATOM     23  C   LIG    1      173.088 172.133 166.057  0.00  0.00    +0.158 A 
ATOM     24  C   LIG    1      173.261 171.741 167.384  0.00  0.00    +0.159 A 
ATOM     29  C   LIG    1      172.429 172.257 168.378  0.00  0.00    +0.060 A 
BRANCH  24  25
ATOM     25  O   LIG    1      174.242 170.857 167.722  0.00  0.00    -0.503 OA
ATOM     26  H   LIG    1      173.996 169.982 167.378  0.00  0.00    +0.292 HD
ENDBRANCH  24  25
BRANCH  23  27
ATOM     27  O   LIG    1      173.893 171.635 165.077  0.00  0.00    -0.503 OA
ATOM     28  H   LIG    1      174.514 172.328 164.794  0.00  0.00    +0.292 HD
ENDBRANCH  23  27
ENDBRANCH  19  20
BRANCH  15  33
ATOM     33  O   LIG    1      167.997 175.931 172.877  0.00  0.00    -0.506 OA
ATOM     34  H   LIG    1      168.152 176.783 172.442  0.00  0.00    +0.292 HD
ENDBRANCH  15  33
BRANCH  13  12
ATOM     12  O   LIG    1      164.954 172.767 171.060  0.00  0.00    -0.461 OA
BRANCH  12   2
ATOM      1  O   LIG    1      164.811 173.351 168.805  0.00  0.00    -0.331 OA
ATOM      2  C   LIG    1      164.400 172.410 169.794  0.00  0.00    +0.339 C 
ATOM      3  C   LIG    1      162.877 172.407 169.931  0.00  0.00    +0.214 C 
ATOM      4  C   LIG    1      162.197 172.181 168.580  0.00  0.00    +0.180 C 
ATOM      5  C   LIG    1      162.780 173.101 167.507  0.00  0.00    +0.177 C 
ATOM     36  C   LIG    1      164.308 173.035 167.506  0.00  0.00    +0.179 C 
BRANCH   5   6
ATOM      6  O   LIG    1      162.289 172.703 166.229  0.00  0.00    -0.386 OA
ATOM      7  H   LIG    1      163.001 172.225 165.770  0.00  0.00    +0.210 HD
ENDBRANCH   5   6
BRANCH   4   8
ATOM      8  O   LIG    1      160.802 172.464 168.697  0.00  0.00    -0.386 OA
ATOM      9  H   LIG    1      160.554 172.324 169.627  0.00  0.00    +0.210 HD
ENDBRANCH   4   8
BRANCH   3  10
ATOM     10  O   LIG    1      162.510 171.359 170.827  0.00  0.00    -0.383 OA
ATOM     11  H   LIG    1      162.308 170.568 170.299  0.00  0.00    +0.210 HD
ENDBRANCH   3  10
BRANCH  36  37
ATOM     37  C   LIG    1      164.915 174.032 166.523  0.00  0.00    +0.190 C 
BRANCH  37  38
ATOM     38  O   LIG    1      166.266 173.674 166.295  0.00  0.00    -0.392 OA
ATOM     39  H   LIG    1      166.380 172.752 166.583  0.00  0.00    +0.210 HD
ENDBRANCH  37  38
ENDBRANCH  36  37
ENDBRANCH  12   2
ENDBRANCH  13  12
TORSDOF 11
ENDMDL
MODEL 8
REMARK VINA RESULT:      -8.3      5.040      9.506
REMARK  Name = 5280637
REMARK                            x       y       z     vdW  Elec       q    Type
REMARK                         _______ _______ _______ _____ _____    ______ ____
ROOT
ATOM     13  C   LIG    1      170.995 175.010 170.761  0.00  0.00    +0.131 A 
ATOM     14  C   LIG    1      170.386 173.944 171.425  0.00  0.00    +0.092 A 
ATOM     15  C   LIG    1      169.609 174.177 172.561  0.00  0.00    +0.135 A 
ATOM     16  C   LIG    1      169.445 175.483 173.027  0.00  0.00    +0.105 A 
ATOM     17  C   LIG    1      168.633 175.760 174.221  0.00  0.00    +0.197 A 
ATOM     18  C   LIG    1      168.526 177.178 174.623  0.00  0.00    +0.098 A 
ATOM     19  C   LIG    1      169.153 178.116 173.898  0.00  0.00    +0.139 A 
ATOM     30  O   LIG    1      169.925 177.852 172.777  0.00  0.00    -0.454 OA
ATOM     31  O   LIG    1      168.075 174.873 174.853  0.00  0.00    -0.287 OA
ATOM     32  C   LIG    1      170.052 176.549 172.363  0.00  0.00    +0.146 A 
ATOM     35  C   LIG    1      170.828 176.314 171.230  0.00  0.00    +0.093 A 
ENDROOT
BRANCH  19  20
ATOM     20  C   LIG    1      169.089 179.548 174.257  0.00  0.00    +0.021 A 
ATOM     21  C   LIG    1      168.066 180.018 175.083  0.00  0.00    +0.015 A 
ATOM     22  C   LIG    1      168.004 181.370 175.421  0.00  0.00    +0.050 A 
ATOM     23  C   LIG    1      168.966 182.255 174.935  0.00  0.00    +0.158 A 
ATOM     24  C   LIG    1      169.989 181.788 174.108  0.00  0.00    +0.159 A 
ATOM     29  C   LIG    1      170.050 180.437 173.770  0.00  0.00    +0.060 A 
BRANCH  24  25
ATOM     25  O   LIG    1      170.935 182.644 173.629  0.00  0.00    -0.503 OA
ATOM     26  H   LIG    1      171.727 182.129 173.402  0.00  0.00    +0.292 HD
ENDBRANCH  24  25
BRANCH  23  27
ATOM     27  O   LIG    1      168.895 183.573 175.271  0.00  0.00    -0.503 OA
ATOM     28  H   LIG    1      169.796 183.924 175.373  0.00  0.00    +0.292 HD
ENDBRANCH  23  27
ENDBRANCH  19  20
BRANCH  15  33
ATOM     33  O   LIG    1      169.038 173.103 173.173  0.00  0.00    -0.506 OA
ATOM     34  H   LIG    1      168.362 173.391 173.805  0.00  0.00    +0.292 HD
ENDBRANCH  15  33
BRANCH  13  12
ATOM     12  O   LIG    1      171.754 174.776 169.652  0.00  0.00    -0.461 OA
BRANCH  12   2
ATOM      1  O   LIG    1      172.421 173.073 168.205  0.00  0.00    -0.331 OA
ATOM      2  C   LIG    1      171.302 173.747 168.774  0.00  0.00    +0.339 C 
ATOM      3  C   LIG    1      170.456 174.399 167.681  0.00  0.00    +0.214 C 
ATOM      4  C   LIG    1      170.054 173.385 166.609  0.00  0.00    +0.180 C 
ATOM      5  C   LIG    1      171.258 172.570 166.139  0.00  0.00    +0.177 C 
ATOM     36  C   LIG    1      172.035 172.009 167.332  0.00  0.00    +0.179 C 
BRANCH   5   6
ATOM      6  O   LIG    1      170.808 171.493 165.321  0.00  0.00    -0.386 OA
ATOM      7  H   LIG    1      170.895 170.671 165.833  0.00  0.00    +0.210 HD
ENDBRANCH   5   6
BRANCH   4   8
ATOM      8  O   LIG    1      169.517 174.075 165.479  0.00  0.00    -0.386 OA
ATOM      9  H   LIG    1      168.580 173.823 165.403  0.00  0.00    +0.210 HD
ENDBRANCH   4   8
BRANCH   3  10
ATOM     10  O   LIG    1      169.281 174.940 168.285  0.00  0.00    -0.383 OA
ATOM     11  H   LIG    1      169.217 174.585 169.188  0.00  0.00    +0.210 HD
ENDBRANCH   3  10
BRANCH  36  37
ATOM     37  C   LIG    1      173.306 171.291 166.891  0.00  0.00    +0.190 C 
BRANCH  37  38
ATOM     38  O   LIG    1      173.948 170.765 168.038  0.00  0.00    -0.392 OA
ATOM     39  H   LIG    1      173.264 170.608 168.713  0.00  0.00    +0.210 HD
ENDBRANCH  37  38
ENDBRANCH  36  37
ENDBRANCH  12   2
ENDBRANCH  13  12
TORSDOF 11
ENDMDL
MODEL 9
REMARK VINA RESULT:      -8.1      3.913      7.135
REMARK  Name = 5280637
REMARK                            x       y       z     vdW  Elec       q    Type
REMARK                         _______ _______ _______ _____ _____    ______ ____
ROOT
ATOM     13  C   LIG    1      169.634 176.018 172.627  0.00  0.00    +0.131 A 
ATOM     14  C   LIG    1      168.319 175.558 172.695  0.00  0.00    +0.092 A 
ATOM     15  C   LIG    1      167.832 174.679 171.727  0.00  0.00    +0.135 A 
ATOM     16  C   LIG    1      168.671 174.263 170.691  0.00  0.00    +0.105 A 
ATOM     17  C   LIG    1      168.186 173.338 169.655  0.00  0.00    +0.197 A 
ATOM     18  C   LIG    1      169.159 172.963 168.608  0.00  0.00    +0.098 A 
ATOM     19  C   LIG    1      170.401 173.468 168.654  0.00  0.00    +0.139 A 
ATOM     30  O   LIG    1      170.853 174.346 169.627  0.00  0.00    -0.454 OA
ATOM     31  O   LIG    1      167.044 172.900 169.653  0.00  0.00    -0.287 OA
ATOM     32  C   LIG    1      169.986 174.721 170.622  0.00  0.00    +0.146 A 
ATOM     35  C   LIG    1      170.470 175.600 171.590  0.00  0.00    +0.093 A 
ENDROOT
BRANCH  19  20
ATOM     20  C   LIG    1      171.413 173.135 167.629  0.00  0.00    +0.021 A 
ATOM     21  C   LIG    1      171.236 173.551 166.308  0.00  0.00    +0.015 A 
ATOM     22  C   LIG    1      172.190 173.236 165.341  0.00  0.00    +0.050 A 
ATOM     23  C   LIG    1      173.325 172.505 165.693  0.00  0.00    +0.158 A 
ATOM     24  C   LIG    1      173.504 172.088 167.012  0.00  0.00    +0.159 A 
ATOM     29  C   LIG    1      172.550 172.403 167.979  0.00  0.00    +0.060 A 
BRANCH  24  25
ATOM     25  O   LIG    1      174.610 171.376 167.367  0.00  0.00    -0.503 OA
ATOM     26  H   LIG    1      174.495 170.460 167.062  0.00  0.00    +0.292 HD
ENDBRANCH  24  25
BRANCH  23  27
ATOM     27  O   LIG    1      174.250 172.203 164.739  0.00  0.00    -0.503 OA
ATOM     28  H   LIG    1      174.524 173.023 164.293  0.00  0.00    +0.292 HD
ENDBRANCH  23  27
ENDBRANCH  19  20
BRANCH  15  33
ATOM     33  O   LIG    1      166.541 174.260 171.838  0.00  0.00    -0.506 OA
ATOM     34  H   LIG    1      166.396 173.459 171.312  0.00  0.00    +0.292 HD
ENDBRANCH  15  33
BRANCH  13  12
ATOM     12  O   LIG    1      170.105 176.878 173.576  0.00  0.00    -0.461 OA
BRANCH  12   2
ATOM      1  O   LIG    1      169.787 179.189 173.557  0.00  0.00    -0.331 OA
ATOM      2  C   LIG    1      169.234 177.940 173.963  0.00  0.00    +0.339 C 
ATOM      3  C   LIG    1      169.080 177.890 175.483  0.00  0.00    +0.214 C 
ATOM      4  C   LIG    1      168.281 179.087 176.000  0.00  0.00    +0.180 C 
ATOM      5  C   LIG    1      168.806 180.398 175.414  0.00  0.00    +0.177 C 
ATOM     36  C   LIG    1      168.948 180.295 173.894  0.00  0.00    +0.179 C 
BRANCH   5   6
ATOM      6  O   LIG    1      167.902 181.453 175.733  0.00  0.00    -0.386 OA
ATOM      7  H   LIG    1      168.209 182.258 175.282  0.00  0.00    +0.210 HD
ENDBRANCH   5   6
BRANCH   4   8
ATOM      8  O   LIG    1      168.399 179.159 177.422  0.00  0.00    -0.386 OA
ATOM      9  H   LIG    1      167.950 178.378 177.790  0.00  0.00    +0.210 HD
ENDBRANCH   4   8
BRANCH   3  10
ATOM     10  O   LIG    1      168.400 176.683 175.826  0.00  0.00    -0.383 OA
ATOM     11  H   LIG    1      169.054 175.965 175.850  0.00  0.00    +0.210 HD
ENDBRANCH   3  10
BRANCH  36  37
ATOM     37  C   LIG    1      169.581 181.550 173.301  0.00  0.00    +0.190 C 
BRANCH  37  38
ATOM     38  O   LIG    1      168.547 182.447 172.937  0.00  0.00    -0.392 OA
ATOM     39  H   LIG    1      168.554 183.180 173.575  0.00  0.00    +0.210 HD
ENDBRANCH  37  38
ENDBRANCH  36  37
ENDBRANCH  12   2
ENDBRANCH  13  12
TORSDOF 11
ENDMDL
MODEL 10
REMARK VINA RESULT:      -8.0      4.690      9.090
REMARK  Name = 5280637
REMARK                            x       y       z     vdW  Elec       q    Type
REMARK                         _______ _______ _______ _____ _____    ______ ____
ROOT
ATOM     13  C   LIG    1      171.544 174.102 170.573  0.00  0.00    +0.131 A 
ATOM     14  C   LIG    1      170.429 173.285 170.761  0.00  0.00    +0.092 A 
ATOM     15  C   LIG    1      169.342 173.743 171.507  0.00  0.00    +0.135 A 
ATOM     16  C   LIG    1      169.378 175.024 172.062  0.00  0.00    +0.105 A 
ATOM     17  C   LIG    1      168.249 175.534 172.854  0.00  0.00    +0.197 A 
ATOM     18  C   LIG    1      168.394 176.903 173.392  0.00  0.00    +0.098 A 
ATOM     19  C   LIG    1      169.515 177.594 173.136  0.00  0.00    +0.139 A 
ATOM     30  O   LIG    1      170.582 177.108 172.396  0.00  0.00    -0.454 OA
ATOM     31  O   LIG    1      167.243 174.870 173.060  0.00  0.00    -0.287 OA
ATOM     32  C   LIG    1      170.492 175.842 171.874  0.00  0.00    +0.146 A 
ATOM     35  C   LIG    1      171.578 175.382 171.129  0.00  0.00    +0.093 A 
ENDROOT
BRANCH  19  20
ATOM     20  C   LIG    1      169.720 178.963 173.655  0.00  0.00    +0.021 A 
ATOM     21  C   LIG    1      170.746 179.221 174.565  0.00  0.00    +0.015 A 
ATOM     22  C   LIG    1      170.938 180.513 175.056  0.00  0.00    +0.050 A 
ATOM     23  C   LIG    1      170.104 181.549 174.637  0.00  0.00    +0.158 A 
ATOM     24  C   LIG    1      169.077 181.293 173.728  0.00  0.00    +0.159 A 
ATOM     29  C   LIG    1      168.885 180.002 173.237  0.00  0.00    +0.060 A 
BRANCH  24  25
ATOM     25  O   LIG    1      168.257 182.299 173.311  0.00  0.00    -0.503 OA
ATOM     26  H   LIG    1      168.393 182.429 172.357  0.00  0.00    +0.292 HD
ENDBRANCH  24  25
BRANCH  23  27
ATOM     27  O   LIG    1      170.301 182.806 175.124  0.00  0.00    -0.503 OA
ATOM     28  H   LIG    1      171.251 183.013 175.093  0.00  0.00    +0.292 HD
ENDBRANCH  23  27
ENDBRANCH  19  20
BRANCH  15  33
ATOM     33  O   LIG    1      168.278 172.907 171.662  0.00  0.00    -0.506 OA
ATOM     34  H   LIG    1      167.876 172.704 170.804  0.00  0.00    +0.292 HD
ENDBRANCH  15  33
BRANCH  13  12
ATOM     12  O   LIG    1      172.605 173.649 169.844  0.00  0.00    -0.461 OA
BRANCH  12   2
ATOM      1  O   LIG    1      171.110 173.996 168.086  0.00  0.00    -0.331 OA
ATOM      2  C   LIG    1      172.392 173.485 168.443  0.00  0.00    +0.339 C 
ATOM      3  C   LIG    1      172.480 171.991 168.127  0.00  0.00    +0.214 C 
ATOM      4  C   LIG    1      172.115 171.709 166.669  0.00  0.00    +0.180 C 
ATOM      5  C   LIG    1      170.813 172.408 166.279  0.00  0.00    +0.177 C 
ATOM     36  C   LIG    1      170.845 173.883 166.687  0.00  0.00    +0.179 C 
BRANCH   5   6
ATOM      6  O   LIG    1      170.630 172.313 164.869  0.00  0.00    -0.386 OA
ATOM      7  H   LIG    1      170.815 173.186 164.483  0.00  0.00    +0.210 HD
ENDBRANCH   5   6
BRANCH   4   8
ATOM      8  O   LIG    1      171.934 170.303 166.488  0.00  0.00    -0.386 OA
ATOM      9  H   LIG    1      171.148 170.043 166.999  0.00  0.00    +0.210 HD
ENDBRANCH   4   8
BRANCH   3  10
ATOM     10  O   LIG    1      173.818 171.559 168.372  0.00  0.00    -0.383 OA
ATOM     11  H   LIG    1      174.335 172.330 168.664  0.00  0.00    +0.210 HD
ENDBRANCH   3  10
BRANCH  36  37
ATOM     37  C   LIG    1      169.512 174.573 166.414  0.00  0.00    +0.190 C 
BRANCH  37  38
ATOM     38  O   LIG    1      169.761 175.939 166.139  0.00  0.00    -0.392 OA
ATOM     39  H   LIG    1      168.948 176.434 166.341  0.00  0.00    +0.210 HD
ENDBRANCH  37  38
ENDBRANCH  36  37
ENDBRANCH  12   2
ENDBRANCH  13  12
TORSDOF 11
ENDMDL
