MODEL 1
REMARK VINA RESULT:      -9.7      0.000      0.000
REMARK  Name = 439533
REMARK                            x       y       z     vdW  Elec       q    Type
REMARK                         _______ _______ _______ _____ _____    ______ ____
ROOT
ATOM      1  O   LIG    1      -24.923 -12.417 -24.345  0.00  0.00    -0.480 OA
ATOM      2  C   LIG    1      -24.014 -13.397 -24.048  0.00  0.00    +0.139 A 
ATOM      3  C   LIG    1      -22.895 -13.482 -24.879  0.00  0.00    +0.092 A 
ATOM      4  C   LIG    1      -21.924 -14.457 -24.645  0.00  0.00    +0.124 A 
ATOM      5  C   LIG    1      -22.064 -15.340 -23.575  0.00  0.00    +0.091 A 
ATOM      6  C   LIG    1      -23.169 -15.249 -22.730  0.00  0.00    +0.134 A 
ATOM     11  C   LIG    1      -24.138 -14.269 -22.965  0.00  0.00    +0.103 A 
ATOM     12  C   LIG    1      -25.291 -14.124 -22.053  0.00  0.00    +0.202 C 
ATOM     13  C   LIG    1      -26.173 -12.920 -22.301  0.00  0.00    +0.230 C 
ATOM     16  O   LIG    1      -25.483 -14.922 -21.143  0.00  0.00    -0.289 OA
ATOM     17  C   LIG    1      -26.233 -12.656 -23.806  0.00  0.00    +0.240 C 
ENDROOT
BRANCH  17  18
ATOM     18  C   LIG    1      -27.081 -11.442 -24.131  0.00  0.00    -0.001 A 
ATOM     19  C   LIG    1      -27.383 -11.140 -25.458  0.00  0.00    +0.011 A 
ATOM     20  C   LIG    1      -28.163 -10.023 -25.757  0.00  0.00    +0.049 A 
ATOM     21  C   LIG    1      -28.642  -9.212 -24.727  0.00  0.00    +0.158 A 
ATOM     22  C   LIG    1      -28.339  -9.516 -23.400  0.00  0.00    +0.159 A 
ATOM     27  C   LIG    1      -27.558 -10.633 -23.102  0.00  0.00    +0.056 A 
BRANCH  22  23
ATOM     23  O   LIG    1      -28.799  -8.730 -22.388  0.00  0.00    -0.503 OA
ATOM     24  H   LIG    1      -29.105  -9.308 -21.667  0.00  0.00    +0.292 HD
ENDBRANCH  22  23
BRANCH  21  25
ATOM     25  O   LIG    1      -29.402  -8.123 -25.032  0.00  0.00    -0.503 OA
ATOM     26  H   LIG    1      -30.324  -8.298 -24.774  0.00  0.00    +0.292 HD
ENDBRANCH  21  25
ENDBRANCH  17  18
BRANCH   6   7
ATOM      7  O   LIG    1      -23.245 -16.125 -21.690  0.00  0.00    -0.506 OA
ATOM      8  H   LIG    1      -22.995 -15.694 -20.859  0.00  0.00    +0.292 HD
ENDBRANCH   6   7
BRANCH   4   9
ATOM      9  O   LIG    1      -20.840 -14.545 -25.463  0.00  0.00    -0.507 OA
ATOM     10  H   LIG    1      -20.858 -15.404 -25.920  0.00  0.00    +0.292 HD
ENDBRANCH   4   9
BRANCH  13  14
ATOM     14  O   LIG    1      -27.467 -13.211 -21.804  0.00  0.00    -0.380 OA
ATOM     15  H   LIG    1      -27.661 -12.572 -21.097  0.00  0.00    +0.211 HD
ENDBRANCH  13  14
TORSDOF 6
ENDMDL
MODEL 2
REMARK VINA RESULT:      -9.7      1.418      6.641
REMARK  Name = 439533
REMARK                            x       y       z     vdW  Elec       q    Type
REMARK                         _______ _______ _______ _____ _____    ______ ____
ROOT
ATOM      1  O   LIG    1      -25.841 -11.998 -24.612  0.00  0.00    -0.480 OA
ATOM      2  C   LIG    1      -26.812 -11.086 -24.297  0.00  0.00    +0.139 A 
ATOM      3  C   LIG    1      -27.391 -10.398 -25.365  0.00  0.00    +0.092 A 
ATOM      4  C   LIG    1      -28.387  -9.449 -25.127  0.00  0.00    +0.124 A 
ATOM      5  C   LIG    1      -28.810  -9.193 -23.823  0.00  0.00    +0.091 A 
ATOM      6  C   LIG    1      -28.249  -9.889 -22.754  0.00  0.00    +0.134 A 
ATOM     11  C   LIG    1      -27.256 -10.842 -22.995  0.00  0.00    +0.103 A 
ATOM     12  C   LIG    1      -26.684 -11.625 -21.882  0.00  0.00    +0.202 C 
ATOM     13  C   LIG    1      -25.752 -12.748 -22.284  0.00  0.00    +0.230 C 
ATOM     16  O   LIG    1      -26.982 -11.382 -20.718  0.00  0.00    -0.289 OA
ATOM     17  C   LIG    1      -24.964 -12.314 -23.520  0.00  0.00    +0.240 C 
ENDROOT
BRANCH  17  18
ATOM     18  C   LIG    1      -24.024 -13.404 -23.999  0.00  0.00    -0.001 A 
ATOM     19  C   LIG    1      -24.540 -14.610 -24.469  0.00  0.00    +0.011 A 
ATOM     20  C   LIG    1      -23.676 -15.612 -24.909  0.00  0.00    +0.049 A 
ATOM     21  C   LIG    1      -22.296 -15.405 -24.880  0.00  0.00    +0.158 A 
ATOM     22  C   LIG    1      -21.781 -14.197 -24.409  0.00  0.00    +0.159 A 
ATOM     27  C   LIG    1      -22.647 -13.195 -23.968  0.00  0.00    +0.056 A 
BRANCH  22  23
ATOM     23  O   LIG    1      -20.437 -13.985 -24.375  0.00  0.00    -0.503 OA
ATOM     24  H   LIG    1      -20.045 -14.374 -25.176  0.00  0.00    +0.292 HD
ENDBRANCH  22  23
BRANCH  21  25
ATOM     25  O   LIG    1      -21.462 -16.391 -25.312  0.00  0.00    -0.503 OA
ATOM     26  H   LIG    1      -21.965 -17.221 -25.389  0.00  0.00    +0.292 HD
ENDBRANCH  21  25
ENDBRANCH  17  18
BRANCH   6   7
ATOM      7  O   LIG    1      -28.715  -9.612 -21.504  0.00  0.00    -0.506 OA
ATOM      8  H   LIG    1      -29.642  -9.878 -21.416  0.00  0.00    +0.292 HD
ENDBRANCH   6   7
BRANCH   4   9
ATOM      9  O   LIG    1      -28.943  -8.771 -26.168  0.00  0.00    -0.507 OA
ATOM     10  H   LIG    1      -28.630  -9.163 -27.002  0.00  0.00    +0.292 HD
ENDBRANCH   4   9
BRANCH  13  14
ATOM     14  O   LIG    1      -24.870 -12.997 -21.204  0.00  0.00    -0.380 OA
ATOM     15  H   LIG    1      -25.287 -12.648 -20.397  0.00  0.00    +0.211 HD
ENDBRANCH  13  14
TORSDOF 6
ENDMDL
MODEL 3
REMARK VINA RESULT:      -9.6      1.797      2.606
REMARK  Name = 439533
REMARK                            x       y       z     vdW  Elec       q    Type
REMARK                         _______ _______ _______ _____ _____    ______ ____
ROOT
ATOM      1  O   LIG    1      -25.147 -13.641 -24.440  0.00  0.00    -0.480 OA
ATOM      2  C   LIG    1      -24.084 -14.501 -24.504  0.00  0.00    +0.139 A 
ATOM      3  C   LIG    1      -24.356 -15.797 -24.948  0.00  0.00    +0.092 A 
ATOM      4  C   LIG    1      -23.326 -16.735 -25.037  0.00  0.00    +0.124 A 
ATOM      5  C   LIG    1      -22.023 -16.377 -24.693  0.00  0.00    +0.091 A 
ATOM      6  C   LIG    1      -21.741 -15.080 -24.268  0.00  0.00    +0.134 A 
ATOM     11  C   LIG    1      -22.773 -14.142 -24.182  0.00  0.00    +0.103 A 
ATOM     12  C   LIG    1      -22.487 -12.750 -23.781  0.00  0.00    +0.202 C 
ATOM     13  C   LIG    1      -23.646 -11.784 -23.899  0.00  0.00    +0.230 C 
ATOM     16  O   LIG    1      -21.368 -12.416 -23.408  0.00  0.00    -0.289 OA
ATOM     17  C   LIG    1      -24.940 -12.525 -23.560  0.00  0.00    +0.240 C 
ENDROOT
BRANCH  17  18
ATOM     18  C   LIG    1      -26.153 -11.624 -23.684  0.00  0.00    -0.001 A 
ATOM     19  C   LIG    1      -26.770 -11.454 -24.922  0.00  0.00    +0.011 A 
ATOM     20  C   LIG    1      -27.886 -10.625 -25.035  0.00  0.00    +0.049 A 
ATOM     21  C   LIG    1      -28.384  -9.969 -23.909  0.00  0.00    +0.158 A 
ATOM     22  C   LIG    1      -27.765 -10.140 -22.671  0.00  0.00    +0.159 A 
ATOM     27  C   LIG    1      -26.648 -10.969 -22.558  0.00  0.00    +0.056 A 
BRANCH  22  23
ATOM     23  O   LIG    1      -28.242  -9.503 -21.566  0.00  0.00    -0.503 OA
ATOM     24  H   LIG    1      -29.072  -9.934 -21.298  0.00  0.00    +0.292 HD
ENDBRANCH  22  23
BRANCH  21  25
ATOM     25  O   LIG    1      -29.473  -9.161 -24.033  0.00  0.00    -0.503 OA
ATOM     26  H   LIG    1      -29.408  -8.439 -23.384  0.00  0.00    +0.292 HD
ENDBRANCH  21  25
ENDBRANCH  17  18
BRANCH   6   7
ATOM      7  O   LIG    1      -20.447 -14.781 -23.963  0.00  0.00    -0.506 OA
ATOM      8  H   LIG    1      -20.399 -14.250 -23.154  0.00  0.00    +0.292 HD
ENDBRANCH   6   7
BRANCH   4   9
ATOM      9  O   LIG    1      -23.595 -18.001 -25.460  0.00  0.00    -0.507 OA
ATOM     10  H   LIG    1      -23.524 -18.032 -26.430  0.00  0.00    +0.292 HD
ENDBRANCH   4   9
BRANCH  13  14
ATOM     14  O   LIG    1      -23.434 -10.726 -22.981  0.00  0.00    -0.380 OA
ATOM     15  H   LIG    1      -22.496 -10.472 -23.037  0.00  0.00    +0.211 HD
ENDBRANCH  13  14
TORSDOF 6
ENDMDL
MODEL 4
REMARK VINA RESULT:      -9.4      9.529     11.721
REMARK  Name = 439533
REMARK                            x       y       z     vdW  Elec       q    Type
REMARK                         _______ _______ _______ _____ _____    ______ ____
ROOT
ATOM      1  O   LIG    1      -34.068  -5.161 -20.978  0.00  0.00    -0.480 OA
ATOM      2  C   LIG    1      -32.899  -5.586 -20.407  0.00  0.00    +0.139 A 
ATOM      3  C   LIG    1      -31.860  -4.655 -20.345  0.00  0.00    +0.092 A 
ATOM      4  C   LIG    1      -30.635  -5.013 -19.782  0.00  0.00    +0.124 A 
ATOM      5  C   LIG    1      -30.448  -6.297 -19.271  0.00  0.00    +0.091 A 
ATOM      6  C   LIG    1      -31.486  -7.226 -19.313  0.00  0.00    +0.134 A 
ATOM     11  C   LIG    1      -32.714  -6.864 -19.874  0.00  0.00    +0.103 A 
ATOM     12  C   LIG    1      -33.842  -7.817 -19.884  0.00  0.00    +0.202 C 
ATOM     13  C   LIG    1      -35.168  -7.256 -20.350  0.00  0.00    +0.230 C 
ATOM     16  O   LIG    1      -33.697  -8.974 -19.506  0.00  0.00    -0.289 OA
ATOM     17  C   LIG    1      -34.906  -6.227 -21.450  0.00  0.00    +0.240 C 
ENDROOT
BRANCH  17  18
ATOM     18  C   LIG    1      -36.193  -5.599 -21.951  0.00  0.00    -0.001 A 
ATOM     19  C   LIG    1      -37.302  -5.522 -21.110  0.00  0.00    +0.011 A 
ATOM     20  C   LIG    1      -38.485  -4.945 -21.571  0.00  0.00    +0.049 A 
ATOM     21  C   LIG    1      -38.556  -4.444 -22.871  0.00  0.00    +0.158 A 
ATOM     22  C   LIG    1      -37.446  -4.522 -23.711  0.00  0.00    +0.159 A 
ATOM     27  C   LIG    1      -36.262  -5.100 -23.250  0.00  0.00    +0.056 A 
BRANCH  22  23
ATOM     23  O   LIG    1      -37.504  -4.037 -24.982  0.00  0.00    -0.503 OA
ATOM     24  H   LIG    1      -37.632  -3.074 -24.937  0.00  0.00    +0.292 HD
ENDBRANCH  22  23
BRANCH  21  25
ATOM     25  O   LIG    1      -39.717  -3.883 -23.310  0.00  0.00    -0.503 OA
ATOM     26  H   LIG    1      -40.455  -4.222 -22.773  0.00  0.00    +0.292 HD
ENDBRANCH  21  25
ENDBRANCH  17  18
BRANCH   6   7
ATOM      7  O   LIG    1      -31.255  -8.459 -18.783  0.00  0.00    -0.506 OA
ATOM      8  H   LIG    1      -31.899  -9.102 -19.115  0.00  0.00    +0.292 HD
ENDBRANCH   6   7
BRANCH   4   9
ATOM      9  O   LIG    1      -29.620  -4.107 -19.732  0.00  0.00    -0.507 OA
ATOM     10  H   LIG    1      -28.989  -4.300 -20.447  0.00  0.00    +0.292 HD
ENDBRANCH   4   9
BRANCH  13  14
ATOM     14  O   LIG    1      -35.946  -8.326 -20.857  0.00  0.00    -0.380 OA
ATOM     15  H   LIG    1      -35.971  -8.238 -21.825  0.00  0.00    +0.211 HD
ENDBRANCH  13  14
TORSDOF 6
ENDMDL
MODEL 5
REMARK VINA RESULT:      -9.2      7.730     11.175
REMARK  Name = 439533
REMARK                            x       y       z     vdW  Elec       q    Type
REMARK                         _______ _______ _______ _____ _____    ______ ____
ROOT
ATOM      1  O   LIG    1      -33.035  -6.932 -19.880  0.00  0.00    -0.480 OA
ATOM      2  C   LIG    1      -31.715  -7.126 -19.571  0.00  0.00    +0.139 A 
ATOM      3  C   LIG    1      -31.129  -8.300 -20.048  0.00  0.00    +0.092 A 
ATOM      4  C   LIG    1      -29.789  -8.574 -19.771  0.00  0.00    +0.124 A 
ATOM      5  C   LIG    1      -29.031  -7.671 -19.026  0.00  0.00    +0.091 A 
ATOM      6  C   LIG    1      -29.604  -6.488 -18.563  0.00  0.00    +0.134 A 
ATOM     11  C   LIG    1      -30.945  -6.214 -18.845  0.00  0.00    +0.103 A 
ATOM     12  C   LIG    1      -31.559  -4.945 -18.405  0.00  0.00    +0.202 C 
ATOM     13  C   LIG    1      -32.956  -4.681 -18.921  0.00  0.00    +0.230 C 
ATOM     16  O   LIG    1      -30.945  -4.159 -17.693  0.00  0.00    -0.289 OA
ATOM     17  C   LIG    1      -33.707  -6.010 -19.008  0.00  0.00    +0.240 C 
ENDROOT
BRANCH  17  18
ATOM     18  C   LIG    1      -35.114  -5.827 -19.546  0.00  0.00    -0.001 A 
ATOM     19  C   LIG    1      -35.306  -5.399 -20.858  0.00  0.00    +0.011 A 
ATOM     20  C   LIG    1      -36.599  -5.230 -21.352  0.00  0.00    +0.049 A 
ATOM     21  C   LIG    1      -37.698  -5.493 -20.533  0.00  0.00    +0.158 A 
ATOM     22  C   LIG    1      -37.504  -5.921 -19.220  0.00  0.00    +0.159 A 
ATOM     27  C   LIG    1      -36.209  -6.089 -18.727  0.00  0.00    +0.056 A 
BRANCH  22  23
ATOM     23  O   LIG    1      -38.568  -6.179 -18.412  0.00  0.00    -0.503 OA
ATOM     24  H   LIG    1      -38.861  -7.093 -18.573  0.00  0.00    +0.292 HD
ENDBRANCH  22  23
BRANCH  21  25
ATOM     25  O   LIG    1      -38.956  -5.324 -21.027  0.00  0.00    -0.503 OA
ATOM     26  H   LIG    1      -38.981  -4.511 -21.560  0.00  0.00    +0.292 HD
ENDBRANCH  21  25
ENDBRANCH  17  18
BRANCH   6   7
ATOM      7  O   LIG    1      -28.812  -5.634 -17.857  0.00  0.00    -0.506 OA
ATOM      8  H   LIG    1      -28.334  -6.107 -17.159  0.00  0.00    +0.292 HD
ENDBRANCH   6   7
BRANCH   4   9
ATOM      9  O   LIG    1      -29.222  -9.724 -20.228  0.00  0.00    -0.507 OA
ATOM     10  H   LIG    1      -28.355  -9.516 -20.616  0.00  0.00    +0.292 HD
ENDBRANCH   4   9
BRANCH  13  14
ATOM     14  O   LIG    1      -33.606  -3.811 -18.011  0.00  0.00    -0.380 OA
ATOM     15  H   LIG    1      -33.366  -2.900 -18.253  0.00  0.00    +0.211 HD
ENDBRANCH  13  14
TORSDOF 6
ENDMDL
MODEL 6
REMARK VINA RESULT:      -9.2      8.365     12.824
REMARK  Name = 439533
REMARK                            x       y       z     vdW  Elec       q    Type
REMARK                         _______ _______ _______ _____ _____    ______ ____
ROOT
ATOM      1  O   LIG    1      -34.066  -5.854 -21.521  0.00  0.00    -0.480 OA
ATOM      2  C   LIG    1      -35.331  -5.479 -21.885  0.00  0.00    +0.139 A 
ATOM      3  C   LIG    1      -35.468  -4.883 -23.140  0.00  0.00    +0.092 A 
ATOM      4  C   LIG    1      -36.725  -4.469 -23.583  0.00  0.00    +0.124 A 
ATOM      5  C   LIG    1      -37.847  -4.657 -22.777  0.00  0.00    +0.091 A 
ATOM      6  C   LIG    1      -37.721  -5.267 -21.530  0.00  0.00    +0.134 A 
ATOM     11  C   LIG    1      -36.461  -5.685 -21.091  0.00  0.00    +0.103 A 
ATOM     12  C   LIG    1      -36.313  -6.378 -19.795  0.00  0.00    +0.202 C 
ATOM     13  C   LIG    1      -34.938  -6.942 -19.509  0.00  0.00    +0.230 C 
ATOM     16  O   LIG    1      -37.263  -6.502 -19.031  0.00  0.00    -0.289 OA
ATOM     17  C   LIG    1      -33.888  -6.003 -20.104  0.00  0.00    +0.240 C 
ENDROOT
BRANCH  17  18
ATOM     18  C   LIG    1      -32.480  -6.520 -19.879  0.00  0.00    -0.001 A 
ATOM     19  C   LIG    1      -32.224  -7.888 -19.937  0.00  0.00    +0.011 A 
ATOM     20  C   LIG    1      -30.929  -8.363 -19.730  0.00  0.00    +0.049 A 
ATOM     21  C   LIG    1      -29.892  -7.467 -19.468  0.00  0.00    +0.158 A 
ATOM     22  C   LIG    1      -30.150  -6.098 -19.410  0.00  0.00    +0.159 A 
ATOM     27  C   LIG    1      -31.446  -5.624 -19.617  0.00  0.00    +0.056 A 
BRANCH  22  23
ATOM     23  O   LIG    1      -29.146  -5.214 -19.154  0.00  0.00    -0.503 OA
ATOM     24  H   LIG    1      -29.116  -5.055 -18.195  0.00  0.00    +0.292 HD
ENDBRANCH  22  23
BRANCH  21  25
ATOM     25  O   LIG    1      -28.631  -7.943 -19.267  0.00  0.00    -0.503 OA
ATOM     26  H   LIG    1      -28.502  -8.106 -18.316  0.00  0.00    +0.292 HD
ENDBRANCH  21  25
ENDBRANCH  17  18
BRANCH   6   7
ATOM      7  O   LIG    1      -38.852  -5.443 -20.793  0.00  0.00    -0.506 OA
ATOM      8  H   LIG    1      -39.257  -4.589 -20.576  0.00  0.00    +0.292 HD
ENDBRANCH   6   7
BRANCH   4   9
ATOM      9  O   LIG    1      -36.855  -3.879 -24.803  0.00  0.00    -0.507 OA
ATOM     10  H   LIG    1      -35.971  -3.749 -25.187  0.00  0.00    +0.292 HD
ENDBRANCH   4   9
BRANCH  13  14
ATOM     14  O   LIG    1      -34.779  -7.026 -18.104  0.00  0.00    -0.380 OA
ATOM     15  H   LIG    1      -33.829  -6.942 -17.911  0.00  0.00    +0.211 HD
ENDBRANCH  13  14
TORSDOF 6
ENDMDL
MODEL 7
REMARK VINA RESULT:      -9.1      5.825     10.537
REMARK  Name = 439533
REMARK                            x       y       z     vdW  Elec       q    Type
REMARK                         _______ _______ _______ _____ _____    ______ ____
ROOT
ATOM      1  O   LIG    1      -31.263  -8.375 -19.178  0.00  0.00    -0.480 OA
ATOM      2  C   LIG    1      -32.394  -7.603 -19.175  0.00  0.00    +0.139 A 
ATOM      3  C   LIG    1      -32.253  -6.293 -18.712  0.00  0.00    +0.092 A 
ATOM      4  C   LIG    1      -33.360  -5.444 -18.673  0.00  0.00    +0.124 A 
ATOM      5  C   LIG    1      -34.606  -5.899 -19.106  0.00  0.00    +0.091 A 
ATOM      6  C   LIG    1      -34.749  -7.199 -19.587  0.00  0.00    +0.134 A 
ATOM     11  C   LIG    1      -33.638  -8.046 -19.628  0.00  0.00    +0.103 A 
ATOM     12  C   LIG    1      -33.759  -9.411 -20.179  0.00  0.00    +0.202 C 
ATOM     13  C   LIG    1      -32.458 -10.168 -20.340  0.00  0.00    +0.230 C 
ATOM     16  O   LIG    1      -34.847  -9.868 -20.507  0.00  0.00    -0.289 OA
ATOM     17  C   LIG    1      -31.523  -9.787 -19.192  0.00  0.00    +0.240 C 
ENDROOT
BRANCH  17  18
ATOM     18  C   LIG    1      -30.183 -10.490 -19.301  0.00  0.00    -0.001 A 
ATOM     19  C   LIG    1      -29.239 -10.048 -20.226  0.00  0.00    +0.011 A 
ATOM     20  C   LIG    1      -28.008 -10.694 -20.326  0.00  0.00    +0.049 A 
ATOM     21  C   LIG    1      -27.721 -11.780 -19.499  0.00  0.00    +0.158 A 
ATOM     22  C   LIG    1      -28.667 -12.222 -18.574  0.00  0.00    +0.159 A 
ATOM     27  C   LIG    1      -29.900 -11.575 -18.475  0.00  0.00    +0.056 A 
BRANCH  22  23
ATOM     23  O   LIG    1      -28.399 -13.282 -17.762  0.00  0.00    -0.503 OA
ATOM     24  H   LIG    1      -27.440 -13.310 -17.602  0.00  0.00    +0.292 HD
ENDBRANCH  22  23
BRANCH  21  25
ATOM     25  O   LIG    1      -26.516 -12.404 -19.607  0.00  0.00    -0.503 OA
ATOM     26  H   LIG    1      -26.127 -12.196 -20.475  0.00  0.00    +0.292 HD
ENDBRANCH  21  25
ENDBRANCH  17  18
BRANCH   6   7
ATOM      7  O   LIG    1      -35.984  -7.583 -20.014  0.00  0.00    -0.506 OA
ATOM      8  H   LIG    1      -36.344  -8.278 -19.442  0.00  0.00    +0.292 HD
ENDBRANCH   6   7
BRANCH   4   9
ATOM      9  O   LIG    1      -33.223  -4.171 -18.211  0.00  0.00    -0.507 OA
ATOM     10  H   LIG    1      -32.909  -3.603 -18.936  0.00  0.00    +0.292 HD
ENDBRANCH   4   9
BRANCH  13  14
ATOM     14  O   LIG    1      -32.746 -11.554 -20.296  0.00  0.00    -0.380 OA
ATOM     15  H   LIG    1      -32.892 -11.794 -19.365  0.00  0.00    +0.211 HD
ENDBRANCH  13  14
TORSDOF 6
ENDMDL
MODEL 8
REMARK VINA RESULT:      -9.1      4.257      6.562
REMARK  Name = 439533
REMARK                            x       y       z     vdW  Elec       q    Type
REMARK                         _______ _______ _______ _____ _____    ______ ____
ROOT
ATOM      1  O   LIG    1      -29.986 -11.254 -19.825  0.00  0.00    -0.480 OA
ATOM      2  C   LIG    1      -28.842 -11.928 -20.158  0.00  0.00    +0.139 A 
ATOM      3  C   LIG    1      -28.632 -13.154 -19.524  0.00  0.00    +0.092 A 
ATOM      4  C   LIG    1      -27.488 -13.900 -19.807  0.00  0.00    +0.124 A 
ATOM      5  C   LIG    1      -26.555 -13.427 -20.731  0.00  0.00    +0.091 A 
ATOM      6  C   LIG    1      -26.767 -12.212 -21.381  0.00  0.00    +0.134 A 
ATOM     11  C   LIG    1      -27.916 -11.469 -21.099  0.00  0.00    +0.103 A 
ATOM     12  C   LIG    1      -28.183 -10.204 -21.812  0.00  0.00    +0.202 C 
ATOM     13  C   LIG    1      -29.539  -9.583 -21.557  0.00  0.00    +0.230 C 
ATOM     16  O   LIG    1      -27.357  -9.724 -22.580  0.00  0.00    -0.289 OA
ATOM     17  C   LIG    1      -29.934  -9.846 -20.103  0.00  0.00    +0.240 C 
ENDROOT
BRANCH  17  18
ATOM     18  C   LIG    1      -31.300  -9.273 -19.779  0.00  0.00    -0.001 A 
ATOM     19  C   LIG    1      -32.445 -10.039 -19.996  0.00  0.00    +0.011 A 
ATOM     20  C   LIG    1      -33.701  -9.511 -19.698  0.00  0.00    +0.049 A 
ATOM     21  C   LIG    1      -33.810  -8.220 -19.182  0.00  0.00    +0.158 A 
ATOM     22  C   LIG    1      -32.664  -7.455 -18.966  0.00  0.00    +0.159 A 
ATOM     27  C   LIG    1      -31.407  -7.983 -19.265  0.00  0.00    +0.056 A 
BRANCH  22  23
ATOM     23  O   LIG    1      -32.759  -6.192 -18.464  0.00  0.00    -0.503 OA
ATOM     24  H   LIG    1      -31.877  -5.783 -18.497  0.00  0.00    +0.292 HD
ENDBRANCH  22  23
BRANCH  21  25
ATOM     25  O   LIG    1      -35.043  -7.715 -18.896  0.00  0.00    -0.503 OA
ATOM     26  H   LIG    1      -34.969  -7.107 -18.140  0.00  0.00    +0.292 HD
ENDBRANCH  21  25
ENDBRANCH  17  18
BRANCH   6   7
ATOM      7  O   LIG    1      -25.833 -11.808 -22.287  0.00  0.00    -0.506 OA
ATOM      8  H   LIG    1      -26.075 -10.952 -22.670  0.00  0.00    +0.292 HD
ENDBRANCH   6   7
BRANCH   4   9
ATOM      9  O   LIG    1      -27.280 -15.090 -19.180  0.00  0.00    -0.507 OA
ATOM     10  H   LIG    1      -26.738 -15.659 -19.753  0.00  0.00    +0.292 HD
ENDBRANCH   4   9
BRANCH  13  14
ATOM     14  O   LIG    1      -29.437  -8.189 -21.791  0.00  0.00    -0.380 OA
ATOM     15  H   LIG    1      -29.351  -8.058 -22.751  0.00  0.00    +0.211 HD
ENDBRANCH  13  14
TORSDOF 6
ENDMDL
MODEL 9
REMARK VINA RESULT:      -8.8      4.059      6.820
REMARK  Name = 439533
REMARK                            x       y       z     vdW  Elec       q    Type
REMARK                         _______ _______ _______ _____ _____    ______ ____
ROOT
ATOM      1  O   LIG    1      -23.772 -17.173 -25.872  0.00  0.00    -0.480 OA
ATOM      2  C   LIG    1      -23.449 -17.966 -26.940  0.00  0.00    +0.139 A 
ATOM      3  C   LIG    1      -24.318 -19.023 -27.218  0.00  0.00    +0.092 A 
ATOM      4  C   LIG    1      -24.056 -19.880 -28.288  0.00  0.00    +0.124 A 
ATOM      5  C   LIG    1      -22.930 -19.677 -29.086  0.00  0.00    +0.091 A 
ATOM      6  C   LIG    1      -22.068 -18.613 -28.826  0.00  0.00    +0.134 A 
ATOM     11  C   LIG    1      -22.335 -17.754 -27.756  0.00  0.00    +0.103 A 
ATOM     12  C   LIG    1      -21.461 -16.593 -27.493  0.00  0.00    +0.202 C 
ATOM     13  C   LIG    1      -21.949 -15.636 -26.427  0.00  0.00    +0.230 C 
ATOM     16  O   LIG    1      -20.429 -16.421 -28.130  0.00  0.00    -0.289 OA
ATOM     17  C   LIG    1      -22.661 -16.437 -25.336  0.00  0.00    +0.240 C 
ENDROOT
BRANCH  17  18
ATOM     18  C   LIG    1      -23.204 -15.538 -24.242  0.00  0.00    -0.001 A 
ATOM     19  C   LIG    1      -22.634 -15.570 -22.970  0.00  0.00    +0.011 A 
ATOM     20  C   LIG    1      -23.133 -14.743 -21.964  0.00  0.00    +0.049 A 
ATOM     21  C   LIG    1      -24.200 -13.885 -22.232  0.00  0.00    +0.158 A 
ATOM     22  C   LIG    1      -24.769 -13.854 -23.505  0.00  0.00    +0.159 A 
ATOM     27  C   LIG    1      -24.269 -14.682 -24.511  0.00  0.00    +0.056 A 
BRANCH  22  23
ATOM     23  O   LIG    1      -25.811 -13.021 -23.778  0.00  0.00    -0.503 OA
ATOM     24  H   LIG    1      -26.074 -12.580 -22.952  0.00  0.00    +0.292 HD
ENDBRANCH  22  23
BRANCH  21  25
ATOM     25  O   LIG    1      -24.679 -13.083 -21.241  0.00  0.00    -0.503 OA
ATOM     26  H   LIG    1      -24.434 -13.463 -20.379  0.00  0.00    +0.292 HD
ENDBRANCH  21  25
ENDBRANCH  17  18
BRANCH   6   7
ATOM      7  O   LIG    1      -20.995 -18.451 -29.649  0.00  0.00    -0.506 OA
ATOM      8  H   LIG    1      -20.974 -19.145 -30.326  0.00  0.00    +0.292 HD
ENDBRANCH   6   7
BRANCH   4   9
ATOM      9  O   LIG    1      -24.899 -20.916 -28.551  0.00  0.00    -0.507 OA
ATOM     10  H   LIG    1      -25.788 -20.562 -28.727  0.00  0.00    +0.292 HD
ENDBRANCH   4   9
BRANCH  13  14
ATOM     14  O   LIG    1      -20.824 -14.967 -25.886  0.00  0.00    -0.380 OA
ATOM     15  H   LIG    1      -20.853 -15.078 -24.920  0.00  0.00    +0.211 HD
ENDBRANCH  13  14
TORSDOF 6
ENDMDL
