REMARK VINA RESULT:      -7.8      6.677     10.686
REMARK  Name = 5320623
REMARK  11 active torsions:
REMARK  status: ('A' for Active; 'I' for Inactive)
REMARK    1  A    between atoms: O_2  and  C_16
REMARK    2  A    between atoms: O_2  and  C_18
REMARK    3  A    between atoms: O_3  and  C_12
REMARK    4  A    between atoms: O_4  and  C_13
REMARK    5  A    between atoms: O_5  and  C_14
REMARK    6  A    between atoms: O_6  and  C_17
REMARK    7  A    between atoms: O_8  and  C_20
REMARK    8  A    between atoms: O_9  and  C_23
REMARK    9  A    between atoms: O_11  and  C_32
REMARK   10  A    between atoms: C_15  and  C_17
REMARK   11  A    between atoms: C_25  and  C_27
REMARK                            x       y       z     vdW  Elec       q    Type
REMARK                         _______ _______ _______ _____ _____    ______ ____
ROOT
ATOM      7  O   UNL     1     179.711 188.121 170.352  0.00  0.00    +0.000 OA
ATOM     10  O   UNL     1     182.069 189.286 167.239  0.00  0.00    +0.000 OA
ATOM     18  C   UNL     1     182.475 185.796 170.836  0.00  0.00    +0.000 A 
ATOM     19  C   UNL     1     181.266 186.469 171.008  0.00  0.00    +0.000 A 
ATOM     20  C   UNL     1     183.330 186.147 169.789  0.00  0.00    +0.000 A 
ATOM     21  C   UNL     1     180.912 187.495 170.132  0.00  0.00    +0.000 A 
ATOM     22  C   UNL     1     181.767 187.845 169.087  0.00  0.00    +0.000 A 
ATOM     23  C   UNL     1     182.978 187.173 168.911  0.00  0.00    +0.000 A 
ATOM     24  C   UNL     1     181.369 188.930 168.178  0.00  0.00    +0.000 A 
ATOM     25  C   UNL     1     179.338 189.151 169.501  0.00  0.00    +0.000 A 
ATOM     26  C   UNL     1     180.070 189.573 168.458  0.00  0.00    +0.000 A 
ENDROOT
BRANCH  25  27
ATOM     27  C   UNL     1     178.027 189.749 169.824  0.00  0.00    +0.000 A 
ATOM     28  C   UNL     1     177.813 190.341 171.071  0.00  0.00    +0.000 A 
ATOM     29  C   UNL     1     176.993 189.723 168.884  0.00  0.00    +0.000 A 
ATOM     30  C   UNL     1     176.574 190.906 171.375  0.00  0.00    +0.000 A 
ATOM     31  C   UNL     1     175.755 190.288 169.188  0.00  0.00    +0.000 A 
ATOM     32  C   UNL     1     175.545 190.878 170.434  0.00  0.00    +0.000 A 
BRANCH  32  11
ATOM     11  O   UNL     1     174.336 191.429 170.731  0.00  0.00    +0.000 OA
ATOM     39  H   UNL     1     174.328 192.353 170.427  0.00  0.00    +0.000 HD
ENDBRANCH  32  11
ENDBRANCH  25  27
BRANCH  20   8
ATOM      8  O   UNL     1     184.510 185.482 169.628  0.00  0.00    +0.000 OA
ATOM     37  H   UNL     1     184.878 185.291 170.508  0.00  0.00    +0.000 HD
ENDBRANCH  20   8
BRANCH  23   9
ATOM      9  O   UNL     1     183.840 187.487 167.903  0.00  0.00    +0.000 OA
ATOM     38  H   UNL     1     184.753 187.276 168.152  0.00  0.00    +0.000 HD
ENDBRANCH  23   9
BRANCH  18   2
ATOM      2  O   UNL     1     182.811 184.793 171.699  0.00  0.00    +0.000 OA
BRANCH   2  16
ATOM      1  O   UNL     1     184.842 185.428 172.659  0.00  0.00    +0.000 OA
ATOM     12  C   UNL     1     184.083 184.321 175.199  0.00  0.00    +0.000 C 
ATOM     13  C   UNL     1     185.520 184.736 174.881  0.00  0.00    +0.000 C 
ATOM     14  C   UNL     1     183.290 184.050 173.920  0.00  0.00    +0.000 C 
ATOM     15  C   UNL     1     185.545 185.848 173.829  0.00  0.00    +0.000 C 
ATOM     16  C   UNL     1     183.459 185.184 172.909  0.00  0.00    +0.000 C 
BRANCH  12   3
ATOM      3  O   UNL     1     184.131 183.133 175.990  0.00  0.00    +0.000 OA
ATOM     33  H   UNL     1     183.358 183.145 176.580  0.00  0.00    +0.000 HD
ENDBRANCH  12   3
BRANCH  13   4
ATOM      4  O   UNL     1     186.152 185.199 176.071  0.00  0.00    +0.000 OA
ATOM     34  H   UNL     1     186.818 184.540 176.334  0.00  0.00    +0.000 HD
ENDBRANCH  13   4
BRANCH  14   5
ATOM      5  O   UNL     1     181.903 183.939 174.239  0.00  0.00    +0.000 OA
ATOM     35  H   UNL     1     181.703 183.001 174.396  0.00  0.00    +0.000 HD
ENDBRANCH  14   5
BRANCH  15  17
ATOM     17  C   UNL     1     186.969 186.197 173.409  0.00  0.00    +0.000 C 
BRANCH  17   6
ATOM      6  O   UNL     1     187.437 187.251 174.230  0.00  0.00    +0.000 OA
ATOM     36  H   UNL     1     187.850 186.851 175.015  0.00  0.00    +0.000 HD
ENDBRANCH  17   6
ENDBRANCH  15  17
ENDBRANCH   2  16
ENDBRANCH  18   2
TORSDOF 11
