REMARK VINA RESULT:      -8.2      0.000      0.000
REMARK  Name = 5320623
REMARK  11 active torsions:
REMARK  status: ('A' for Active; 'I' for Inactive)
REMARK    1  A    between atoms: O_2  and  C_16
REMARK    2  A    between atoms: O_2  and  C_18
REMARK    3  A    between atoms: O_3  and  C_12
REMARK    4  A    between atoms: O_4  and  C_13
REMARK    5  A    between atoms: O_5  and  C_14
REMARK    6  A    between atoms: O_6  and  C_17
REMARK    7  A    between atoms: O_8  and  C_20
REMARK    8  A    between atoms: O_9  and  C_23
REMARK    9  A    between atoms: O_11  and  C_32
REMARK   10  A    between atoms: C_15  and  C_17
REMARK   11  A    between atoms: C_25  and  C_27
REMARK                            x       y       z     vdW  Elec       q    Type
REMARK                         _______ _______ _______ _____ _____    ______ ____
ROOT
ATOM      7  O   UNL     1     189.203 182.424 168.694  0.00  0.00    +0.000 OA
ATOM     10  O   UNL     1     190.170 185.385 166.068  0.00  0.00    +0.000 OA
ATOM     18  C   UNL     1     187.305 185.150 170.194  0.00  0.00    +0.000 A 
ATOM     19  C   UNL     1     187.854 183.888 169.964  0.00  0.00    +0.000 A 
ATOM     20  C   UNL     1     187.595 186.208 169.330  0.00  0.00    +0.000 A 
ATOM     21  C   UNL     1     188.694 183.686 168.869  0.00  0.00    +0.000 A 
ATOM     22  C   UNL     1     188.983 184.744 168.007  0.00  0.00    +0.000 A 
ATOM     23  C   UNL     1     188.436 186.009 168.234  0.00  0.00    +0.000 A 
ATOM     24  C   UNL     1     189.872 184.503 166.861  0.00  0.00    +0.000 A 
ATOM     25  C   UNL     1     190.035 182.192 167.609  0.00  0.00    +0.000 A 
ATOM     26  C   UNL     1     190.391 183.128 166.716  0.00  0.00    +0.000 A 
ENDROOT
BRANCH  25  27
ATOM     27  C   UNL     1     190.531 180.804 167.520  0.00  0.00    +0.000 A 
ATOM     28  C   UNL     1     191.583 180.488 166.658  0.00  0.00    +0.000 A 
ATOM     29  C   UNL     1     189.947 179.799 168.297  0.00  0.00    +0.000 A 
ATOM     30  C   UNL     1     192.051 179.177 166.574  0.00  0.00    +0.000 A 
ATOM     31  C   UNL     1     190.415 178.488 168.213  0.00  0.00    +0.000 A 
ATOM     32  C   UNL     1     191.466 178.176 167.350  0.00  0.00    +0.000 A 
BRANCH  32  11
ATOM     11  O   UNL     1     191.923 176.896 167.268  0.00  0.00    +0.000 OA
ATOM     39  H   UNL     1     192.490 176.814 166.483  0.00  0.00    +0.000 HD
ENDBRANCH  32  11
ENDBRANCH  25  27
BRANCH  20   8
ATOM      8  O   UNL     1     187.055 187.439 169.563  0.00  0.00    +0.000 OA
ATOM     37  H   UNL     1     186.584 187.724 168.761  0.00  0.00    +0.000 HD
ENDBRANCH  20   8
BRANCH  23   9
ATOM      9  O   UNL     1     188.694 187.066 167.414  0.00  0.00    +0.000 OA
ATOM     38  H   UNL     1     188.163 187.010 166.604  0.00  0.00    +0.000 HD
ENDBRANCH  23   9
BRANCH  18   2
ATOM      2  O   UNL     1     186.484 185.337 171.268  0.00  0.00    +0.000 OA
BRANCH   2  16
ATOM      1  O   UNL     1     185.121 183.913 172.518  0.00  0.00    +0.000 OA
ATOM     12  C   UNL     1     187.030 183.833 174.664  0.00  0.00    +0.000 C 
ATOM     13  C   UNL     1     185.597 183.323 174.821  0.00  0.00    +0.000 C 
ATOM     14  C   UNL     1     187.138 184.833 173.511  0.00  0.00    +0.000 C 
ATOM     15  C   UNL     1     185.036 182.856 173.475  0.00  0.00    +0.000 C 
ATOM     16  C   UNL     1     186.467 184.298 172.246  0.00  0.00    +0.000 C 
BRANCH  12   3
ATOM      3  O   UNL     1     187.407 184.471 175.885  0.00  0.00    +0.000 OA
ATOM     33  H   UNL     1     187.767 183.785 176.472  0.00  0.00    +0.000 HD
ENDBRANCH  12   3
BRANCH  13   4
ATOM      4  O   UNL     1     185.582 182.234 175.740  0.00  0.00    +0.000 OA
ATOM     34  H   UNL     1     186.436 181.773 175.674  0.00  0.00    +0.000 HD
ENDBRANCH  13   4
BRANCH  14   5
ATOM      5  O   UNL     1     188.514 185.072 173.221  0.00  0.00    +0.000 OA
ATOM     35  H   UNL     1     189.023 184.948 174.040  0.00  0.00    +0.000 HD
ENDBRANCH  14   5
BRANCH  15  17
ATOM     17  C   UNL     1     183.569 182.452 173.583  0.00  0.00    +0.000 C 
BRANCH  17   6
ATOM      6  O   UNL     1     183.502 181.089 173.958  0.00  0.00    +0.000 OA
ATOM     36  H   UNL     1     183.989 180.576 173.290  0.00  0.00    +0.000 HD
ENDBRANCH  17   6
ENDBRANCH  15  17
ENDBRANCH   2  16
ENDBRANCH  18   2
TORSDOF 11
