REMARK VINA RESULT:      -8.0      4.273      8.154
REMARK  Name = 5320623
REMARK  11 active torsions:
REMARK  status: ('A' for Active; 'I' for Inactive)
REMARK    1  A    between atoms: O_2  and  C_16
REMARK    2  A    between atoms: O_2  and  C_18
REMARK    3  A    between atoms: O_3  and  C_12
REMARK    4  A    between atoms: O_4  and  C_13
REMARK    5  A    between atoms: O_5  and  C_14
REMARK    6  A    between atoms: O_6  and  C_17
REMARK    7  A    between atoms: O_8  and  C_20
REMARK    8  A    between atoms: O_9  and  C_23
REMARK    9  A    between atoms: O_11  and  C_32
REMARK   10  A    between atoms: C_15  and  C_17
REMARK   11  A    between atoms: C_25  and  C_27
REMARK                            x       y       z     vdW  Elec       q    Type
REMARK                         _______ _______ _______ _____ _____    ______ ____
ROOT
ATOM      7  O   UNL     1     182.778 179.221 172.375  0.00  0.00    +0.000 OA
ATOM     10  O   UNL     1     179.049 180.862 172.344  0.00  0.00    +0.000 OA
ATOM     18  C   UNL     1     183.617 182.552 173.589  0.00  0.00    +0.000 A 
ATOM     19  C   UNL     1     183.735 181.226 173.174  0.00  0.00    +0.000 A 
ATOM     20  C   UNL     1     182.368 183.173 173.604  0.00  0.00    +0.000 A 
ATOM     21  C   UNL     1     182.600 180.521 172.772  0.00  0.00    +0.000 A 
ATOM     22  C   UNL     1     181.352 181.144 172.788  0.00  0.00    +0.000 A 
ATOM     23  C   UNL     1     181.230 182.472 173.203  0.00  0.00    +0.000 A 
ATOM     24  C   UNL     1     180.173 180.378 172.359  0.00  0.00    +0.000 A 
ATOM     25  C   UNL     1     181.666 178.493 171.978  0.00  0.00    +0.000 A 
ATOM     26  C   UNL     1     180.416 178.982 171.943  0.00  0.00    +0.000 A 
ENDROOT
BRANCH  25  27
ATOM     27  C   UNL     1     181.971 177.109 171.565  0.00  0.00    +0.000 A 
ATOM     28  C   UNL     1     182.991 176.860 170.643  0.00  0.00    +0.000 A 
ATOM     29  C   UNL     1     181.239 176.042 172.092  0.00  0.00    +0.000 A 
ATOM     30  C   UNL     1     183.278 175.552 170.253  0.00  0.00    +0.000 A 
ATOM     31  C   UNL     1     181.526 174.734 171.701  0.00  0.00    +0.000 A 
ATOM     32  C   UNL     1     182.545 174.489 170.781  0.00  0.00    +0.000 A 
BRANCH  32  11
ATOM     11  O   UNL     1     182.826 173.213 170.400  0.00  0.00    +0.000 OA
ATOM     39  H   UNL     1     183.767 173.034 170.567  0.00  0.00    +0.000 HD
ENDBRANCH  32  11
ENDBRANCH  25  27
BRANCH  20   8
ATOM      8  O   UNL     1     182.262 184.472 174.011  0.00  0.00    +0.000 OA
ATOM     37  H   UNL     1     182.949 184.640 174.679  0.00  0.00    +0.000 HD
ENDBRANCH  20   8
BRANCH  23   9
ATOM      9  O   UNL     1     180.028 183.112 173.232  0.00  0.00    +0.000 OA
ATOM     38  H   UNL     1     179.335 182.528 173.578  0.00  0.00    +0.000 HD
ENDBRANCH  23   9
BRANCH  18   2
ATOM      2  O   UNL     1     184.735 183.232 173.980  0.00  0.00    +0.000 OA
BRANCH   2  16
ATOM      1  O   UNL     1     186.074 183.886 172.184  0.00  0.00    +0.000 OA
ATOM     12  C   UNL     1     186.352 186.540 173.250  0.00  0.00    +0.000 C 
ATOM     13  C   UNL     1     187.230 186.017 172.113  0.00  0.00    +0.000 C 
ATOM     14  C   UNL     1     185.759 185.390 174.066  0.00  0.00    +0.000 C 
ATOM     15  C   UNL     1     186.497 184.936 171.313  0.00  0.00    +0.000 C 
ATOM     16  C   UNL     1     185.133 184.330 173.160  0.00  0.00    +0.000 C 
BRANCH  12   3
ATOM      3  O   UNL     1     187.164 187.355 174.096  0.00  0.00    +0.000 OA
ATOM     33  H   UNL     1     186.766 187.341 174.983  0.00  0.00    +0.000 HD
ENDBRANCH  12   3
BRANCH  13   4
ATOM      4  O   UNL     1     187.571 187.095 171.246  0.00  0.00    +0.000 OA
ATOM     34  H   UNL     1     188.147 187.705 171.738  0.00  0.00    +0.000 HD
ENDBRANCH  13   4
BRANCH  14   5
ATOM      5  O   UNL     1     184.743 185.898 174.929  0.00  0.00    +0.000 OA
ATOM     35  H   UNL     1     184.782 185.405 175.766  0.00  0.00    +0.000 HD
ENDBRANCH  14   5
BRANCH  15  17
ATOM     17  C   UNL     1     187.394 184.316 170.247  0.00  0.00    +0.000 C 
BRANCH  17   6
ATOM      6  O   UNL     1     188.736 184.668 170.524  0.00  0.00    +0.000 OA
ATOM     36  H   UNL     1     188.971 184.278 171.383  0.00  0.00    +0.000 HD
ENDBRANCH  17   6
ENDBRANCH  15  17
ENDBRANCH   2  16
ENDBRANCH  18   2
TORSDOF 11
