MODEL 1
REMARK VINA RESULT:      -7.6      0.000      0.000
REMARK  13 active torsions:
REMARK  status: ('A' for Active; 'I' for Inactive)
REMARK    1  A    between atoms: C_2  and  O_12 
REMARK    2  A    between atoms: C_3  and  O_10 
REMARK    3  A    between atoms: C_4  and  O_8 
REMARK    4  A    between atoms: C_5  and  O_6 
REMARK    5  A    between atoms: C_22  and  C_23 
REMARK    6  A    between atoms: O_12  and  C_13 
REMARK    7  A    between atoms: C_13  and  C_14 
REMARK    8  A    between atoms: C_15  and  C_16 
REMARK    9  A    between atoms: C_23  and  O_24 
REMARK   10  A    between atoms: O_24  and  C_25 
REMARK   11  A    between atoms: C_26  and  O_34 
REMARK   12  A    between atoms: C_27  and  O_32 
REMARK   13  A    between atoms: C_28  and  O_30 
ROOT
ATOM      1  O   LIG     1       6.402  43.440  20.852  0.00  0.00    -0.341 OA
ATOM      2  C   LIG     1       5.459  43.636  19.800  0.00  0.00     0.282 C 
ATOM      3  C   LIG     1       5.837  44.859  18.963  0.00  0.00     0.201 C 
ATOM      4  C   LIG     1       7.276  44.764  18.458  0.00  0.00     0.179 C 
ATOM      5  C   LIG     1       8.236  44.395  19.587  0.00  0.00     0.177 C 
ATOM      6  C   LIG     1       7.720  43.182  20.365  0.00  0.00     0.178 C 
ENDROOT
BRANCH   6   7
ATOM      7  C   LIG     1       8.602  42.866  21.570  0.00  0.00     0.197 C 
BRANCH   7   8
ATOM      8  O   LIG     1       9.266  44.052  21.965  0.00  0.00    -0.346 OA
BRANCH   8   9
ATOM      9  C   LIG     1       8.714  44.593  23.160  0.00  0.00     0.281 C 
ATOM     10  O   LIG     1       8.983  45.994  23.290  0.00  0.00    -0.346 OA
ATOM     11  C   LIG     1      10.363  46.298  23.479  0.00  0.00     0.197 C 
ATOM     12  C   LIG     1      10.887  45.646  24.752  0.00  0.00     0.171 C 
ATOM     13  C   LIG     1      10.684  44.130  24.704  0.00  0.00     0.178 C 
ATOM     14  C   LIG     1       9.223  43.804  24.376  0.00  0.00     0.201 C 
BRANCH  12  15
ATOM     15  O   LIG     1      12.266  45.942  24.930  0.00  0.00    -0.387 OA
ATOM     16  H   LIG     1      12.325  46.786  25.410  0.00  0.00     0.210 HD
ENDBRANCH  12  15
BRANCH  13  17
ATOM     17  O   LIG     1      11.534  43.572  23.704  0.00  0.00    -0.386 OA
ATOM     18  H   LIG     1      11.619  44.230  22.992  0.00  0.00     0.210 HD
ENDBRANCH  13  17
BRANCH  14  19
ATOM     19  O   LIG     1       8.403  44.138  25.494  0.00  0.00    -0.384 OA
ATOM     20  H   LIG     1       7.711  44.751  25.195  0.00  0.00     0.210 HD
ENDBRANCH  14  19
ENDBRANCH   8   9
ENDBRANCH   7   8
ENDBRANCH   6   7
BRANCH   5  21
ATOM     21  O   LIG     1       9.517  44.093  19.039  0.00  0.00    -0.386 OA
ATOM     22  H   LIG     1      10.075  44.885  19.127  0.00  0.00     0.210 HD
ENDBRANCH   5  21
BRANCH   2  23
ATOM     23  O   LIG     1       4.163  43.862  20.351  0.00  0.00    -0.345 OA
BRANCH  23  24
ATOM     24  C   LIG     1       3.273  42.806  20.029  0.00  0.00     0.190 C 
BRANCH  24  25
ATOM     25  C   LIG     1       2.959  42.043  21.275  0.00  0.00     0.001 C 
ATOM     26  C   LIG     1       3.210  42.510  22.508  0.00  0.00     0.006 C 
BRANCH  26  27
ATOM     27  C   LIG     1       2.906  41.801  23.763  0.00  0.00    -0.025 A 
ATOM     28  C   LIG     1       3.425  42.278  24.956  0.00  0.00     0.008 A 
ATOM     29  C   LIG     1       3.136  41.607  26.143  0.00  0.00     0.001 A 
ATOM     30  C   LIG     1       2.333  40.467  26.124  0.00  0.00     0.000 A 
ATOM     31  C   LIG     1       1.817  39.998  24.916  0.00  0.00     0.001 A 
ATOM     32  C   LIG     1       2.106  40.670  23.727  0.00  0.00     0.008 A 
ENDBRANCH  26  27
ENDBRANCH  24  25
ENDBRANCH  23  24
ENDBRANCH   2  23
BRANCH   4  33
ATOM     33  O   LIG     1       7.679  46.030  17.931  0.00  0.00    -0.386 OA
ATOM     34  H   LIG     1       7.397  46.712  18.564  0.00  0.00     0.210 HD
ENDBRANCH   4  33
BRANCH   3  35
ATOM     35  O   LIG     1       4.946  44.931  17.850  0.00  0.00    -0.384 OA
ATOM     36  H   LIG     1       5.479  44.933  17.037  0.00  0.00     0.210 HD
ENDBRANCH   3  35
TORSDOF 13
ENDMDL
MODEL 2
REMARK VINA RESULT:      -7.5      1.435      2.320
REMARK  13 active torsions:
REMARK  status: ('A' for Active; 'I' for Inactive)
REMARK    1  A    between atoms: C_2  and  O_12 
REMARK    2  A    between atoms: C_3  and  O_10 
REMARK    3  A    between atoms: C_4  and  O_8 
REMARK    4  A    between atoms: C_5  and  O_6 
REMARK    5  A    between atoms: C_22  and  C_23 
REMARK    6  A    between atoms: O_12  and  C_13 
REMARK    7  A    between atoms: C_13  and  C_14 
REMARK    8  A    between atoms: C_15  and  C_16 
REMARK    9  A    between atoms: C_23  and  O_24 
REMARK   10  A    between atoms: O_24  and  C_25 
REMARK   11  A    between atoms: C_26  and  O_34 
REMARK   12  A    between atoms: C_27  and  O_32 
REMARK   13  A    between atoms: C_28  and  O_30 
ROOT
ATOM      1  O   LIG     1       7.074  43.928  20.994  0.00  0.00    -0.341 OA
ATOM      2  C   LIG     1       6.765  43.749  19.614  0.00  0.00     0.282 C 
ATOM      3  C   LIG     1       6.543  45.101  18.935  0.00  0.00     0.201 C 
ATOM      4  C   LIG     1       7.728  46.038  19.159  0.00  0.00     0.179 C 
ATOM      5  C   LIG     1       8.131  46.080  20.632  0.00  0.00     0.177 C 
ATOM      6  C   LIG     1       8.282  44.664  21.194  0.00  0.00     0.178 C 
ENDROOT
BRANCH   6   7
ATOM      7  C   LIG     1       8.569  44.678  22.693  0.00  0.00     0.197 C 
BRANCH   7   8
ATOM      8  O   LIG     1       9.881  45.173  22.895  0.00  0.00    -0.346 OA
BRANCH   8   9
ATOM      9  C   LIG     1      10.855  44.138  22.809  0.00  0.00     0.281 C 
ATOM     10  O   LIG     1      10.590  43.073  23.729  0.00  0.00    -0.346 OA
ATOM     11  C   LIG     1      10.728  43.449  25.098  0.00  0.00     0.197 C 
ATOM     12  C   LIG     1      12.149  43.914  25.386  0.00  0.00     0.171 C 
ATOM     13  C   LIG     1      12.527  45.085  24.478  0.00  0.00     0.178 C 
ATOM     14  C   LIG     1      12.260  44.725  23.013  0.00  0.00     0.201 C 
BRANCH  12  15
ATOM     15  O   LIG     1      12.279  44.298  26.748  0.00  0.00    -0.387 OA
ATOM     16  H   LIG     1      12.701  45.174  26.767  0.00  0.00     0.210 HD
ENDBRANCH  12  15
BRANCH  13  17
ATOM     17  O   LIG     1      11.754  46.229  24.837  0.00  0.00    -0.386 OA
ATOM     18  H   LIG     1      11.045  46.322  24.177  0.00  0.00     0.210 HD
ENDBRANCH  13  17
BRANCH  14  19
ATOM     19  O   LIG     1      13.210  43.752  22.585  0.00  0.00    -0.384 OA
ATOM     20  H   LIG     1      13.764  44.146  21.891  0.00  0.00     0.210 HD
ENDBRANCH  14  19
ENDBRANCH   8   9
ENDBRANCH   7   8
ENDBRANCH   6   7
BRANCH   5  21
ATOM     21  O   LIG     1       9.369  46.774  20.765  0.00  0.00    -0.386 OA
ATOM     22  H   LIG     1       9.933  46.526  20.012  0.00  0.00     0.210 HD
ENDBRANCH   5  21
BRANCH   2  23
ATOM     23  O   LIG     1       5.566  42.988  19.483  0.00  0.00    -0.345 OA
BRANCH  23  24
ATOM     24  C   LIG     1       4.496  43.582  20.200  0.00  0.00     0.190 C 
BRANCH  24  25
ATOM     25  C   LIG     1       3.985  42.600  21.204  0.00  0.00     0.001 C 
ATOM     26  C   LIG     1       3.517  42.955  22.411  0.00  0.00     0.006 C 
BRANCH  26  27
ATOM     27  C   LIG     1       2.991  42.026  23.425  0.00  0.00    -0.025 A 
ATOM     28  C   LIG     1       2.130  41.012  23.037  0.00  0.00     0.008 A 
ATOM     29  C   LIG     1       1.633  40.132  23.998  0.00  0.00     0.001 A 
ATOM     30  C   LIG     1       2.002  40.278  25.335  0.00  0.00     0.000 A 
ATOM     31  C   LIG     1       2.868  41.304  25.712  0.00  0.00     0.001 A 
ATOM     32  C   LIG     1       3.366  42.184  24.750  0.00  0.00     0.008 A 
ENDBRANCH  26  27
ENDBRANCH  24  25
ENDBRANCH  23  24
ENDBRANCH   2  23
BRANCH   4  33
ATOM     33  O   LIG     1       7.370  47.363  18.762  0.00  0.00    -0.386 OA
ATOM     34  H   LIG     1       6.413  47.461  18.906  0.00  0.00     0.210 HD
ENDBRANCH   4  33
BRANCH   3  35
ATOM     35  O   LIG     1       6.374  44.876  17.535  0.00  0.00    -0.384 OA
ATOM     36  H   LIG     1       6.977  44.162  17.270  0.00  0.00     0.210 HD
ENDBRANCH   3  35
TORSDOF 13
ENDMDL
MODEL 3
REMARK VINA RESULT:      -7.5      1.326      1.925
REMARK  13 active torsions:
REMARK  status: ('A' for Active; 'I' for Inactive)
REMARK    1  A    between atoms: C_2  and  O_12 
REMARK    2  A    between atoms: C_3  and  O_10 
REMARK    3  A    between atoms: C_4  and  O_8 
REMARK    4  A    between atoms: C_5  and  O_6 
REMARK    5  A    between atoms: C_22  and  C_23 
REMARK    6  A    between atoms: O_12  and  C_13 
REMARK    7  A    between atoms: C_13  and  C_14 
REMARK    8  A    between atoms: C_15  and  C_16 
REMARK    9  A    between atoms: C_23  and  O_24 
REMARK   10  A    between atoms: O_24  and  C_25 
REMARK   11  A    between atoms: C_26  and  O_34 
REMARK   12  A    between atoms: C_27  and  O_32 
REMARK   13  A    between atoms: C_28  and  O_30 
ROOT
ATOM      1  O   LIG     1       7.383  43.532  20.270  0.00  0.00    -0.341 OA
ATOM      2  C   LIG     1       6.260  44.057  19.567  0.00  0.00     0.282 C 
ATOM      3  C   LIG     1       6.290  45.586  19.575  0.00  0.00     0.201 C 
ATOM      4  C   LIG     1       7.621  46.119  19.046  0.00  0.00     0.179 C 
ATOM      5  C   LIG     1       8.803  45.415  19.711  0.00  0.00     0.177 C 
ATOM      6  C   LIG     1       8.626  43.895  19.667  0.00  0.00     0.178 C 
ENDROOT
BRANCH   6   7
ATOM      7  C   LIG     1       9.736  43.175  20.427  0.00  0.00     0.197 C 
BRANCH   7   8
ATOM      8  O   LIG     1      10.294  44.073  21.369  0.00  0.00    -0.346 OA
BRANCH   8   9
ATOM      9  C   LIG     1      10.388  43.490  22.664  0.00  0.00     0.281 C 
ATOM     10  O   LIG     1       9.107  43.101  23.172  0.00  0.00    -0.346 OA
ATOM     11  C   LIG     1       8.238  44.198  23.442  0.00  0.00     0.197 C 
ATOM     12  C   LIG     1       8.847  45.120  24.490  0.00  0.00     0.171 C 
ATOM     13  C   LIG     1      10.213  45.631  24.030  0.00  0.00     0.178 C 
ATOM     14  C   LIG     1      11.106  44.455  23.621  0.00  0.00     0.201 C 
BRANCH  12  15
ATOM     15  O   LIG     1       7.982  46.218  24.747  0.00  0.00    -0.387 OA
ATOM     16  H   LIG     1       8.153  46.520  25.656  0.00  0.00     0.210 HD
ENDBRANCH  12  15
BRANCH  13  17
ATOM     17  O   LIG     1      10.038  46.508  22.918  0.00  0.00    -0.386 OA
ATOM     18  H   LIG     1      10.791  47.124  22.910  0.00  0.00     0.210 HD
ENDBRANCH  13  17
BRANCH  14  19
ATOM     19  O   LIG     1      11.484  43.722  24.783  0.00  0.00    -0.384 OA
ATOM     20  H   LIG     1      10.797  43.060  24.967  0.00  0.00     0.210 HD
ENDBRANCH  14  19
ENDBRANCH   8   9
ENDBRANCH   7   8
ENDBRANCH   6   7
BRANCH   5  21
ATOM     21  O   LIG     1      10.006  45.770  19.033  0.00  0.00    -0.386 OA
ATOM     22  H   LIG     1       9.775  46.383  18.314  0.00  0.00     0.210 HD
ENDBRANCH   5  21
BRANCH   2  23
ATOM     23  O   LIG     1       5.054  43.638  20.203  0.00  0.00    -0.345 OA
BRANCH  23  24
ATOM     24  C   LIG     1       4.880  44.279  21.456  0.00  0.00     0.190 C 
BRANCH  24  25
ATOM     25  C   LIG     1       4.492  43.254  22.473  0.00  0.00     0.001 C 
ATOM     26  C   LIG     1       3.221  42.900  22.715  0.00  0.00     0.006 C 
BRANCH  26  27
ATOM     27  C   LIG     1       2.793  41.886  23.694  0.00  0.00    -0.025 A 
ATOM     28  C   LIG     1       3.198  42.003  25.014  0.00  0.00     0.008 A 
ATOM     29  C   LIG     1       2.793  41.044  25.941  0.00  0.00     0.001 A 
ATOM     30  C   LIG     1       1.988  39.978  25.536  0.00  0.00     0.000 A 
ATOM     31  C   LIG     1       1.588  39.873  24.205  0.00  0.00     0.001 A 
ATOM     32  C   LIG     1       1.994  40.834  23.277  0.00  0.00     0.008 A 
ENDBRANCH  26  27
ENDBRANCH  24  25
ENDBRANCH  23  24
ENDBRANCH   2  23
BRANCH   4  33
ATOM     33  O   LIG     1       7.722  47.515  19.330  0.00  0.00    -0.386 OA
ATOM     34  H   LIG     1       6.845  47.907  19.175  0.00  0.00     0.210 HD
ENDBRANCH   4  33
BRANCH   3  35
ATOM     35  O   LIG     1       5.228  46.059  18.747  0.00  0.00    -0.384 OA
ATOM     36  H   LIG     1       4.438  46.166  19.304  0.00  0.00     0.210 HD
ENDBRANCH   3  35
TORSDOF 13
ENDMDL
MODEL 4
REMARK VINA RESULT:      -7.5      2.336      3.054
REMARK  13 active torsions:
REMARK  status: ('A' for Active; 'I' for Inactive)
REMARK    1  A    between atoms: C_2  and  O_12 
REMARK    2  A    between atoms: C_3  and  O_10 
REMARK    3  A    between atoms: C_4  and  O_8 
REMARK    4  A    between atoms: C_5  and  O_6 
REMARK    5  A    between atoms: C_22  and  C_23 
REMARK    6  A    between atoms: O_12  and  C_13 
REMARK    7  A    between atoms: C_13  and  C_14 
REMARK    8  A    between atoms: C_15  and  C_16 
REMARK    9  A    between atoms: C_23  and  O_24 
REMARK   10  A    between atoms: O_24  and  C_25 
REMARK   11  A    between atoms: C_26  and  O_34 
REMARK   12  A    between atoms: C_27  and  O_32 
REMARK   13  A    between atoms: C_28  and  O_30 
ROOT
ATOM      1  O   LIG     1       7.062  44.149  21.240  0.00  0.00    -0.341 OA
ATOM      2  C   LIG     1       6.149  44.281  20.153  0.00  0.00     0.282 C 
ATOM      3  C   LIG     1       6.138  45.720  19.636  0.00  0.00     0.201 C 
ATOM      4  C   LIG     1       7.548  46.197  19.287  0.00  0.00     0.179 C 
ATOM      5  C   LIG     1       8.531  45.892  20.416  0.00  0.00     0.177 C 
ATOM      6  C   LIG     1       8.410  44.433  20.863  0.00  0.00     0.178 C 
ENDROOT
BRANCH   6   7
ATOM      7  C   LIG     1       9.299  44.135  22.067  0.00  0.00     0.197 C 
BRANCH   7   8
ATOM      8  O   LIG     1      10.647  44.100  21.634  0.00  0.00    -0.346 OA
BRANCH   8   9
ATOM      9  C   LIG     1      11.336  42.964  22.146  0.00  0.00     0.281 C 
ATOM     10  O   LIG     1      12.643  43.301  22.626  0.00  0.00    -0.346 OA
ATOM     11  C   LIG     1      13.543  43.712  21.600  0.00  0.00     0.197 C 
ATOM     12  C   LIG     1      13.740  42.598  20.580  0.00  0.00     0.171 C 
ATOM     13  C   LIG     1      12.400  42.183  19.970  0.00  0.00     0.178 C 
ATOM     14  C   LIG     1      11.392  41.861  21.079  0.00  0.00     0.201 C 
BRANCH  12  15
ATOM     15  O   LIG     1      14.628  43.016  19.553  0.00  0.00    -0.387 OA
ATOM     16  H   LIG     1      14.453  42.466  18.771  0.00  0.00     0.210 HD
ENDBRANCH  12  15
BRANCH  13  17
ATOM     17  O   LIG     1      11.899  43.248  19.164  0.00  0.00    -0.386 OA
ATOM     18  H   LIG     1      12.571  43.447  18.490  0.00  0.00     0.210 HD
ENDBRANCH  13  17
BRANCH  14  19
ATOM     19  O   LIG     1      11.769  40.645  21.721  0.00  0.00    -0.384 OA
ATOM     20  H   LIG     1      12.077  40.021  21.042  0.00  0.00     0.210 HD
ENDBRANCH  14  19
ENDBRANCH   8   9
ENDBRANCH   7   8
ENDBRANCH   6   7
BRANCH   5  21
ATOM     21  O   LIG     1       9.860  46.139  19.964  0.00  0.00    -0.386 OA
ATOM     22  H   LIG     1      10.399  46.381  20.737  0.00  0.00     0.210 HD
ENDBRANCH   5  21
BRANCH   2  23
ATOM     23  O   LIG     1       4.830  43.960  20.589  0.00  0.00    -0.345 OA
BRANCH  23  24
ATOM     24  C   LIG     1       4.482  44.682  21.760  0.00  0.00     0.190 C 
BRANCH  24  25
ATOM     25  C   LIG     1       4.125  43.710  22.837  0.00  0.00     0.001 C 
ATOM     26  C   LIG     1       3.123  42.823  22.728  0.00  0.00     0.006 C 
BRANCH  26  27
ATOM     27  C   LIG     1       2.745  41.838  23.756  0.00  0.00    -0.025 A 
ATOM     28  C   LIG     1       3.171  42.022  25.062  0.00  0.00     0.008 A 
ATOM     29  C   LIG     1       2.812  41.089  26.035  0.00  0.00     0.001 A 
ATOM     30  C   LIG     1       2.034  39.985  25.690  0.00  0.00     0.000 A 
ATOM     31  C   LIG     1       1.613  39.813  24.371  0.00  0.00     0.001 A 
ATOM     32  C   LIG     1       1.971  40.746  23.398  0.00  0.00     0.008 A 
ENDBRANCH  26  27
ENDBRANCH  24  25
ENDBRANCH  23  24
ENDBRANCH   2  23
BRANCH   4  33
ATOM     33  O   LIG     1       7.534  47.611  19.083  0.00  0.00    -0.386 OA
ATOM     34  H   LIG     1       6.630  47.859  18.826  0.00  0.00     0.210 HD
ENDBRANCH   4  33
BRANCH   3  35
ATOM     35  O   LIG     1       5.318  45.769  18.469  0.00  0.00    -0.384 OA
ATOM     36  H   LIG     1       5.097  46.699  18.295  0.00  0.00     0.210 HD
ENDBRANCH   3  35
TORSDOF 13
ENDMDL
MODEL 5
REMARK VINA RESULT:      -7.5      1.733      2.487
REMARK  13 active torsions:
REMARK  status: ('A' for Active; 'I' for Inactive)
REMARK    1  A    between atoms: C_2  and  O_12 
REMARK    2  A    between atoms: C_3  and  O_10 
REMARK    3  A    between atoms: C_4  and  O_8 
REMARK    4  A    between atoms: C_5  and  O_6 
REMARK    5  A    between atoms: C_22  and  C_23 
REMARK    6  A    between atoms: O_12  and  C_13 
REMARK    7  A    between atoms: C_13  and  C_14 
REMARK    8  A    between atoms: C_15  and  C_16 
REMARK    9  A    between atoms: C_23  and  O_24 
REMARK   10  A    between atoms: O_24  and  C_25 
REMARK   11  A    between atoms: C_26  and  O_34 
REMARK   12  A    between atoms: C_27  and  O_32 
REMARK   13  A    between atoms: C_28  and  O_30 
ROOT
ATOM      1  O   LIG     1       8.143  44.158  21.095  0.00  0.00    -0.341 OA
ATOM      2  C   LIG     1       7.404  44.893  20.123  0.00  0.00     0.282 C 
ATOM      3  C   LIG     1       8.351  45.660  19.199  0.00  0.00     0.201 C 
ATOM      4  C   LIG     1       9.393  44.733  18.574  0.00  0.00     0.179 C 
ATOM      5  C   LIG     1      10.050  43.847  19.631  0.00  0.00     0.177 C 
ATOM      6  C   LIG     1       8.993  43.171  20.508  0.00  0.00     0.178 C 
ENDROOT
BRANCH   6   7
ATOM      7  C   LIG     1       9.627  42.374  21.644  0.00  0.00     0.197 C 
BRANCH   7   8
ATOM      8  O   LIG     1       9.527  43.131  22.837  0.00  0.00    -0.346 OA
BRANCH   8   9
ATOM      9  C   LIG     1      10.750  43.132  23.566  0.00  0.00     0.281 C 
ATOM     10  O   LIG     1      10.557  43.497  24.937  0.00  0.00    -0.346 OA
ATOM     11  C   LIG     1      10.144  44.849  25.120  0.00  0.00     0.197 C 
ATOM     12  C   LIG     1      11.190  45.809  24.568  0.00  0.00     0.171 C 
ATOM     13  C   LIG     1      11.449  45.532  23.086  0.00  0.00     0.178 C 
ATOM     14  C   LIG     1      11.771  44.049  22.875  0.00  0.00     0.201 C 
BRANCH  12  15
ATOM     15  O   LIG     1      10.769  47.154  24.742  0.00  0.00    -0.387 OA
ATOM     16  H   LIG     1      10.059  47.157  25.407  0.00  0.00     0.210 HD
ENDBRANCH  12  15
BRANCH  13  17
ATOM     17  O   LIG     1      10.289  45.881  22.333  0.00  0.00    -0.386 OA
ATOM     18  H   LIG     1       9.781  45.065  22.183  0.00  0.00     0.210 HD
ENDBRANCH  13  17
BRANCH  14  19
ATOM     19  O   LIG     1      13.058  43.763  23.417  0.00  0.00    -0.384 OA
ATOM     20  H   LIG     1      13.334  42.884  23.108  0.00  0.00     0.210 HD
ENDBRANCH  14  19
ENDBRANCH   8   9
ENDBRANCH   7   8
ENDBRANCH   6   7
BRANCH   5  21
ATOM     21  O   LIG     1      10.838  42.849  18.988  0.00  0.00    -0.386 OA
ATOM     22  H   LIG     1      11.775  43.052  19.154  0.00  0.00     0.210 HD
ENDBRANCH   5  21
BRANCH   2  23
ATOM     23  O   LIG     1       6.560  45.840  20.773  0.00  0.00    -0.345 OA
BRANCH  23  24
ATOM     24  C   LIG     1       5.190  45.571  20.519  0.00  0.00     0.190 C 
BRANCH  24  25
ATOM     25  C   LIG     1       4.722  44.515  21.468  0.00  0.00     0.001 C 
ATOM     26  C   LIG     1       4.556  44.727  22.783  0.00  0.00     0.006 C 
BRANCH  26  27
ATOM     27  C   LIG     1       4.084  43.723  23.752  0.00  0.00    -0.025 A 
ATOM     28  C   LIG     1       4.447  43.842  25.084  0.00  0.00     0.008 A 
ATOM     29  C   LIG     1       4.000  42.891  26.001  0.00  0.00     0.001 A 
ATOM     30  C   LIG     1       3.197  41.833  25.575  0.00  0.00     0.000 A 
ATOM     31  C   LIG     1       2.840  41.727  24.231  0.00  0.00     0.001 A 
ATOM     32  C   LIG     1       3.287  42.678  23.313  0.00  0.00     0.008 A 
ENDBRANCH  26  27
ENDBRANCH  24  25
ENDBRANCH  23  24
ENDBRANCH   2  23
BRANCH   4  33
ATOM     33  O   LIG     1      10.415  45.515  17.955  0.00  0.00    -0.386 OA
ATOM     34  H   LIG     1      10.038  45.897  17.144  0.00  0.00     0.210 HD
ENDBRANCH   4  33
BRANCH   3  35
ATOM     35  O   LIG     1       7.574  46.265  18.165  0.00  0.00    -0.384 OA
ATOM     36  H   LIG     1       6.643  46.260  18.446  0.00  0.00     0.210 HD
ENDBRANCH   3  35
TORSDOF 13
ENDMDL
MODEL 6
REMARK VINA RESULT:      -7.4      1.764      3.052
REMARK  13 active torsions:
REMARK  status: ('A' for Active; 'I' for Inactive)
REMARK    1  A    between atoms: C_2  and  O_12 
REMARK    2  A    between atoms: C_3  and  O_10 
REMARK    3  A    between atoms: C_4  and  O_8 
REMARK    4  A    between atoms: C_5  and  O_6 
REMARK    5  A    between atoms: C_22  and  C_23 
REMARK    6  A    between atoms: O_12  and  C_13 
REMARK    7  A    between atoms: C_13  and  C_14 
REMARK    8  A    between atoms: C_15  and  C_16 
REMARK    9  A    between atoms: C_23  and  O_24 
REMARK   10  A    between atoms: O_24  and  C_25 
REMARK   11  A    between atoms: C_26  and  O_34 
REMARK   12  A    between atoms: C_27  and  O_32 
REMARK   13  A    between atoms: C_28  and  O_30 
ROOT
ATOM      1  O   LIG     1       6.143  43.393  20.745  0.00  0.00    -0.341 OA
ATOM      2  C   LIG     1       5.238  43.642  19.672  0.00  0.00     0.282 C 
ATOM      3  C   LIG     1       5.681  44.868  18.872  0.00  0.00     0.201 C 
ATOM      4  C   LIG     1       7.130  44.735  18.406  0.00  0.00     0.179 C 
ATOM      5  C   LIG     1       8.045  44.311  19.555  0.00  0.00     0.177 C 
ATOM      6  C   LIG     1       7.465  43.100  20.292  0.00  0.00     0.178 C 
ENDROOT
BRANCH   6   7
ATOM      7  C   LIG     1       8.301  42.730  21.514  0.00  0.00     0.197 C 
BRANCH   7   8
ATOM      8  O   LIG     1       7.424  42.416  22.580  0.00  0.00    -0.346 OA
BRANCH   8   9
ATOM      9  C   LIG     1       7.904  42.917  23.824  0.00  0.00     0.281 C 
ATOM     10  O   LIG     1       7.454  42.127  24.930  0.00  0.00    -0.346 OA
ATOM     11  C   LIG     1       6.046  42.193  25.148  0.00  0.00     0.197 C 
ATOM     12  C   LIG     1       5.615  43.624  25.445  0.00  0.00     0.171 C 
ATOM     13  C   LIG     1       6.015  44.556  24.300  0.00  0.00     0.178 C 
ATOM     14  C   LIG     1       7.506  44.392  23.982  0.00  0.00     0.201 C 
BRANCH  12  15
ATOM     15  O   LIG     1       4.211  43.687  25.649  0.00  0.00    -0.387 OA
ATOM     16  H   LIG     1       4.042  44.367  26.324  0.00  0.00     0.210 HD
ENDBRANCH  12  15
BRANCH  13  17
ATOM     17  O   LIG     1       5.243  44.239  23.143  0.00  0.00    -0.386 OA
ATOM     18  H   LIG     1       4.739  45.035  22.900  0.00  0.00     0.210 HD
ENDBRANCH  13  17
BRANCH  14  19
ATOM     19  O   LIG     1       8.278  44.945  25.045  0.00  0.00    -0.384 OA
ATOM     20  H   LIG     1       7.688  45.119  25.797  0.00  0.00     0.210 HD
ENDBRANCH  14  19
ENDBRANCH   8   9
ENDBRANCH   7   8
ENDBRANCH   6   7
BRANCH   5  21
ATOM     21  O   LIG     1       9.330  43.977  19.037  0.00  0.00    -0.386 OA
ATOM     22  H   LIG     1       9.302  43.050  18.740  0.00  0.00     0.210 HD
ENDBRANCH   5  21
BRANCH   2  23
ATOM     23  O   LIG     1       3.935  43.900  20.190  0.00  0.00    -0.345 OA
BRANCH  23  24
ATOM     24  C   LIG     1       3.099  42.759  20.080  0.00  0.00     0.190 C 
BRANCH  24  25
ATOM     25  C   LIG     1       2.793  42.252  21.452  0.00  0.00     0.001 C 
ATOM     26  C   LIG     1       2.523  40.965  21.719  0.00  0.00     0.006 C 
BRANCH  26  27
ATOM     27  C   LIG     1       2.231  40.418  23.056  0.00  0.00    -0.025 A 
ATOM     28  C   LIG     1       1.694  39.145  23.166  0.00  0.00     0.008 A 
ATOM     29  C   LIG     1       1.418  38.629  24.431  0.00  0.00     0.001 A 
ATOM     30  C   LIG     1       1.680  39.390  25.570  0.00  0.00     0.000 A 
ATOM     31  C   LIG     1       2.221  40.670  25.443  0.00  0.00     0.001 A 
ATOM     32  C   LIG     1       2.498  41.187  24.177  0.00  0.00     0.008 A 
ENDBRANCH  26  27
ENDBRANCH  24  25
ENDBRANCH  23  24
ENDBRANCH   2  23
BRANCH   4  33
ATOM     33  O   LIG     1       7.591  45.996  17.918  0.00  0.00    -0.386 OA
ATOM     34  H   LIG     1       7.501  45.984  16.950  0.00  0.00     0.210 HD
ENDBRANCH   4  33
BRANCH   3  35
ATOM     35  O   LIG     1       4.827  44.992  17.736  0.00  0.00    -0.384 OA
ATOM     36  H   LIG     1       5.364  44.852  16.938  0.00  0.00     0.210 HD
ENDBRANCH   3  35
TORSDOF 13
ENDMDL
MODEL 7
REMARK VINA RESULT:      -7.3      2.010      3.170
REMARK  13 active torsions:
REMARK  status: ('A' for Active; 'I' for Inactive)
REMARK    1  A    between atoms: C_2  and  O_12 
REMARK    2  A    between atoms: C_3  and  O_10 
REMARK    3  A    between atoms: C_4  and  O_8 
REMARK    4  A    between atoms: C_5  and  O_6 
REMARK    5  A    between atoms: C_22  and  C_23 
REMARK    6  A    between atoms: O_12  and  C_13 
REMARK    7  A    between atoms: C_13  and  C_14 
REMARK    8  A    between atoms: C_15  and  C_16 
REMARK    9  A    between atoms: C_23  and  O_24 
REMARK   10  A    between atoms: O_24  and  C_25 
REMARK   11  A    between atoms: C_26  and  O_34 
REMARK   12  A    between atoms: C_27  and  O_32 
REMARK   13  A    between atoms: C_28  and  O_30 
ROOT
ATOM      1  O   LIG     1       7.145  43.895  20.945  0.00  0.00    -0.341 OA
ATOM      2  C   LIG     1       6.768  43.736  19.579  0.00  0.00     0.282 C 
ATOM      3  C   LIG     1       6.517  45.098  18.931  0.00  0.00     0.201 C 
ATOM      4  C   LIG     1       7.715  46.030  19.110  0.00  0.00     0.179 C 
ATOM      5  C   LIG     1       8.189  46.050  20.563  0.00  0.00     0.177 C 
ATOM      6  C   LIG     1       8.364  44.625  21.097  0.00  0.00     0.178 C 
ENDROOT
BRANCH   6   7
ATOM      7  C   LIG     1       8.724  44.618  22.579  0.00  0.00     0.197 C 
BRANCH   7   8
ATOM      8  O   LIG     1       7.907  43.666  23.237  0.00  0.00    -0.346 OA
BRANCH   8   9
ATOM      9  C   LIG     1       7.213  44.238  24.340  0.00  0.00     0.281 C 
ATOM     10  O   LIG     1       7.933  44.081  25.568  0.00  0.00    -0.346 OA
ATOM     11  C   LIG     1       8.042  42.727  26.001  0.00  0.00     0.197 C 
ATOM     12  C   LIG     1       6.662  42.128  26.239  0.00  0.00     0.171 C 
ATOM     13  C   LIG     1       5.812  42.208  24.969  0.00  0.00     0.178 C 
ATOM     14  C   LIG     1       5.800  43.644  24.434  0.00  0.00     0.201 C 
BRANCH  12  15
ATOM     15  O   LIG     1       6.774  40.775  26.659  0.00  0.00    -0.387 OA
ATOM     16  H   LIG     1       5.877  40.400  26.687  0.00  0.00     0.210 HD
ENDBRANCH  12  15
BRANCH  13  17
ATOM     17  O   LIG     1       6.357  41.335  23.982  0.00  0.00    -0.386 OA
ATOM     18  H   LIG     1       7.157  40.929  24.359  0.00  0.00     0.210 HD
ENDBRANCH  13  17
BRANCH  14  19
ATOM     19  O   LIG     1       5.032  44.468  25.308  0.00  0.00    -0.384 OA
ATOM     20  H   LIG     1       5.087  45.385  24.994  0.00  0.00     0.210 HD
ENDBRANCH  14  19
ENDBRANCH   8   9
ENDBRANCH   7   8
ENDBRANCH   6   7
BRANCH   5  21
ATOM     21  O   LIG     1       9.434  46.739  20.644  0.00  0.00    -0.386 OA
ATOM     22  H   LIG     1       9.901  46.423  21.437  0.00  0.00     0.210 HD
ENDBRANCH   5  21
BRANCH   2  23
ATOM     23  O   LIG     1       5.563  42.979  19.497  0.00  0.00    -0.345 OA
BRANCH  23  24
ATOM     24  C   LIG     1       4.581  43.472  20.395  0.00  0.00     0.190 C 
BRANCH  24  25
ATOM     25  C   LIG     1       4.196  42.376  21.336  0.00  0.00     0.001 C 
ATOM     26  C   LIG     1       2.923  42.068  21.628  0.00  0.00     0.006 C 
BRANCH  26  27
ATOM     27  C   LIG     1       2.497  40.989  22.536  0.00  0.00    -0.025 A 
ATOM     28  C   LIG     1       2.258  39.724  22.024  0.00  0.00     0.008 A 
ATOM     29  C   LIG     1       1.856  38.704  22.885  0.00  0.00     0.001 A 
ATOM     30  C   LIG     1       1.695  38.961  24.247  0.00  0.00     0.000 A 
ATOM     31  C   LIG     1       1.939  40.240  24.748  0.00  0.00     0.001 A 
ATOM     32  C   LIG     1       2.343  41.261  23.887  0.00  0.00     0.008 A 
ENDBRANCH  26  27
ENDBRANCH  24  25
ENDBRANCH  23  24
ENDBRANCH   2  23
BRANCH   4  33
ATOM     33  O   LIG     1       7.340  47.361  18.750  0.00  0.00    -0.386 OA
ATOM     34  H   LIG     1       6.408  47.336  18.475  0.00  0.00     0.210 HD
ENDBRANCH   4  33
BRANCH   3  35
ATOM     35  O   LIG     1       6.279  44.894  17.539  0.00  0.00    -0.384 OA
ATOM     36  H   LIG     1       6.085  45.757  17.136  0.00  0.00     0.210 HD
ENDBRANCH   3  35
TORSDOF 13
ENDMDL
MODEL 8
REMARK VINA RESULT:      -7.2      2.628      4.522
REMARK  13 active torsions:
REMARK  status: ('A' for Active; 'I' for Inactive)
REMARK    1  A    between atoms: C_2  and  O_12 
REMARK    2  A    between atoms: C_3  and  O_10 
REMARK    3  A    between atoms: C_4  and  O_8 
REMARK    4  A    between atoms: C_5  and  O_6 
REMARK    5  A    between atoms: C_22  and  C_23 
REMARK    6  A    between atoms: O_12  and  C_13 
REMARK    7  A    between atoms: C_13  and  C_14 
REMARK    8  A    between atoms: C_15  and  C_16 
REMARK    9  A    between atoms: C_23  and  O_24 
REMARK   10  A    between atoms: O_24  and  C_25 
REMARK   11  A    between atoms: C_26  and  O_34 
REMARK   12  A    between atoms: C_27  and  O_32 
REMARK   13  A    between atoms: C_28  and  O_30 
ROOT
ATOM      1  O   LIG     1      10.231  43.918  20.065  0.00  0.00    -0.341 OA
ATOM      2  C   LIG     1       9.992  44.423  18.753  0.00  0.00     0.282 C 
ATOM      3  C   LIG     1      11.276  45.005  18.161  0.00  0.00     0.201 C 
ATOM      4  C   LIG     1      12.420  43.993  18.207  0.00  0.00     0.179 C 
ATOM      5  C   LIG     1      12.541  43.356  19.591  0.00  0.00     0.177 C 
ATOM      6  C   LIG     1      11.181  42.851  20.078  0.00  0.00     0.178 C 
ENDROOT
BRANCH   6   7
ATOM      7  C   LIG     1      11.254  42.317  21.505  0.00  0.00     0.197 C 
BRANCH   7   8
ATOM      8  O   LIG     1      10.255  42.956  22.278  0.00  0.00    -0.346 OA
BRANCH   8   9
ATOM      9  C   LIG     1      10.807  43.626  23.405  0.00  0.00     0.281 C 
ATOM     10  O   LIG     1      10.046  43.392  24.595  0.00  0.00    -0.346 OA
ATOM     11  C   LIG     1       8.741  43.965  24.565  0.00  0.00     0.197 C 
ATOM     12  C   LIG     1       8.822  45.477  24.404  0.00  0.00     0.171 C 
ATOM     13  C   LIG     1       9.588  45.844  23.132  0.00  0.00     0.178 C 
ATOM     14  C   LIG     1      10.942  45.128  23.107  0.00  0.00     0.201 C 
BRANCH  12  15
ATOM     15  O   LIG     1       7.518  46.042  24.362  0.00  0.00    -0.387 OA
ATOM     16  H   LIG     1       7.345  46.447  25.229  0.00  0.00     0.210 HD
ENDBRANCH  12  15
BRANCH  13  17
ATOM     17  O   LIG     1       8.822  45.458  21.992  0.00  0.00    -0.386 OA
ATOM     18  H   LIG     1       7.890  45.412  22.268  0.00  0.00     0.210 HD
ENDBRANCH  13  17
BRANCH  14  19
ATOM     19  O   LIG     1      11.797  45.698  24.095  0.00  0.00    -0.384 OA
ATOM     20  H   LIG     1      12.267  46.450  23.697  0.00  0.00     0.210 HD
ENDBRANCH  14  19
ENDBRANCH   8   9
ENDBRANCH   7   8
ENDBRANCH   6   7
BRANCH   5  21
ATOM     21  O   LIG     1      13.455  42.264  19.529  0.00  0.00    -0.386 OA
ATOM     22  H   LIG     1      13.427  41.802  20.385  0.00  0.00     0.210 HD
ENDBRANCH   5  21
BRANCH   2  23
ATOM     23  O   LIG     1       9.020  45.464  18.807  0.00  0.00    -0.345 OA
BRANCH  23  24
ATOM     24  C   LIG     1       7.915  45.184  17.962  0.00  0.00     0.190 C 
BRANCH  24  25
ATOM     25  C   LIG     1       6.850  44.512  18.768  0.00  0.00     0.001 C 
ATOM     26  C   LIG     1       5.875  45.180  19.404  0.00  0.00     0.006 C 
BRANCH  26  27
ATOM     27  C   LIG     1       4.799  44.561  20.196  0.00  0.00    -0.025 A 
ATOM     28  C   LIG     1       4.293  43.330  19.810  0.00  0.00     0.008 A 
ATOM     29  C   LIG     1       3.274  42.744  20.560  0.00  0.00     0.001 A 
ATOM     30  C   LIG     1       2.772  43.397  21.686  0.00  0.00     0.000 A 
ATOM     31  C   LIG     1       3.290  44.635  22.062  0.00  0.00     0.001 A 
ATOM     32  C   LIG     1       4.310  45.222  21.312  0.00  0.00     0.008 A 
ENDBRANCH  26  27
ENDBRANCH  24  25
ENDBRANCH  23  24
ENDBRANCH   2  23
BRANCH   4  33
ATOM     33  O   LIG     1      13.652  44.654  17.915  0.00  0.00    -0.386 OA
ATOM     34  H   LIG     1      14.274  44.439  18.630  0.00  0.00     0.210 HD
ENDBRANCH   4  33
BRANCH   3  35
ATOM     35  O   LIG     1      11.018  45.369  16.806  0.00  0.00    -0.384 OA
ATOM     36  H   LIG     1      11.451  44.716  16.231  0.00  0.00     0.210 HD
ENDBRANCH   3  35
TORSDOF 13
ENDMDL
MODEL 9
REMARK VINA RESULT:      -7.1      1.778      3.036
REMARK  13 active torsions:
REMARK  status: ('A' for Active; 'I' for Inactive)
REMARK    1  A    between atoms: C_2  and  O_12 
REMARK    2  A    between atoms: C_3  and  O_10 
REMARK    3  A    between atoms: C_4  and  O_8 
REMARK    4  A    between atoms: C_5  and  O_6 
REMARK    5  A    between atoms: C_22  and  C_23 
REMARK    6  A    between atoms: O_12  and  C_13 
REMARK    7  A    between atoms: C_13  and  C_14 
REMARK    8  A    between atoms: C_15  and  C_16 
REMARK    9  A    between atoms: C_23  and  O_24 
REMARK   10  A    between atoms: O_24  and  C_25 
REMARK   11  A    between atoms: C_26  and  O_34 
REMARK   12  A    between atoms: C_27  and  O_32 
REMARK   13  A    between atoms: C_28  and  O_30 
ROOT
ATOM      1  O   LIG     1       7.703  46.125  20.956  0.00  0.00    -0.341 OA
ATOM      2  C   LIG     1       6.846  45.742  19.883  0.00  0.00     0.282 C 
ATOM      3  C   LIG     1       7.625  45.691  18.568  0.00  0.00     0.201 C 
ATOM      4  C   LIG     1       8.860  44.800  18.687  0.00  0.00     0.179 C 
ATOM      5  C   LIG     1       9.669  45.137  19.938  0.00  0.00     0.177 C 
ATOM      6  C   LIG     1       8.763  45.192  21.172  0.00  0.00     0.178 C 
ENDROOT
BRANCH   6   7
ATOM      7  C   LIG     1       9.527  45.642  22.414  0.00  0.00     0.197 C 
BRANCH   7   8
ATOM      8  O   LIG     1       9.972  44.491  23.110  0.00  0.00    -0.346 OA
BRANCH   8   9
ATOM      9  C   LIG     1      11.330  44.614  23.519  0.00  0.00     0.281 C 
ATOM     10  O   LIG     1      11.993  43.346  23.569  0.00  0.00    -0.346 OA
ATOM     11  C   LIG     1      11.492  42.475  24.581  0.00  0.00     0.197 C 
ATOM     12  C   LIG     1      11.666  43.098  25.960  0.00  0.00     0.171 C 
ATOM     13  C   LIG     1      10.958  44.452  26.033  0.00  0.00     0.178 C 
ATOM     14  C   LIG     1      11.404  45.344  24.869  0.00  0.00     0.201 C 
BRANCH  12  15
ATOM     15  O   LIG     1      11.155  42.232  26.963  0.00  0.00    -0.387 OA
ATOM     16  H   LIG     1      10.216  42.453  27.092  0.00  0.00     0.210 HD
ENDBRANCH  12  15
BRANCH  13  17
ATOM     17  O   LIG     1       9.547  44.250  25.965  0.00  0.00    -0.386 OA
ATOM     18  H   LIG     1       9.280  44.355  25.036  0.00  0.00     0.210 HD
ENDBRANCH  13  17
BRANCH  14  19
ATOM     19  O   LIG     1      12.755  45.750  25.077  0.00  0.00    -0.384 OA
ATOM     20  H   LIG     1      12.755  46.552  25.626  0.00  0.00     0.210 HD
ENDBRANCH  14  19
ENDBRANCH   8   9
ENDBRANCH   7   8
ENDBRANCH   6   7
BRANCH   5  21
ATOM     21  O   LIG     1      10.672  44.144  20.134  0.00  0.00    -0.386 OA
ATOM     22  H   LIG     1      11.422  44.357  19.553  0.00  0.00     0.210 HD
ENDBRANCH   5  21
BRANCH   2  23
ATOM     23  O   LIG     1       5.798  46.698  19.738  0.00  0.00    -0.345 OA
BRANCH  23  24
ATOM     24  C   LIG     1       4.880  46.627  20.818  0.00  0.00     0.190 C 
BRANCH  24  25
ATOM     25  C   LIG     1       4.410  45.215  20.958  0.00  0.00     0.001 C 
ATOM     26  C   LIG     1       3.769  44.756  22.045  0.00  0.00     0.006 C 
BRANCH  26  27
ATOM     27  C   LIG     1       3.276  43.379  22.221  0.00  0.00    -0.025 A 
ATOM     28  C   LIG     1       2.722  42.712  21.140  0.00  0.00     0.008 A 
ATOM     29  C   LIG     1       2.255  41.409  21.308  0.00  0.00     0.001 A 
ATOM     30  C   LIG     1       2.347  40.789  22.554  0.00  0.00     0.000 A 
ATOM     31  C   LIG     1       2.906  41.473  23.633  0.00  0.00     0.001 A 
ATOM     32  C   LIG     1       3.374  42.776  23.465  0.00  0.00     0.008 A 
ENDBRANCH  26  27
ENDBRANCH  24  25
ENDBRANCH  23  24
ENDBRANCH   2  23
BRANCH   4  33
ATOM     33  O   LIG     1       9.702  45.000  17.550  0.00  0.00    -0.386 OA
ATOM     34  H   LIG     1      10.622  44.905  17.849  0.00  0.00     0.210 HD
ENDBRANCH   4  33
BRANCH   3  35
ATOM     35  O   LIG     1       6.761  45.173  17.557  0.00  0.00    -0.384 OA
ATOM     36  H   LIG     1       5.882  45.571  17.678  0.00  0.00     0.210 HD
ENDBRANCH   3  35
TORSDOF 13
ENDMDL
