MODEL 1
REMARK VINA RESULT:      -8.1      0.000      0.000
REMARK  11 active torsions:
REMARK  status: ('A' for Active; 'I' for Inactive)
REMARK    1  A    between atoms: O_2  and  C_16 
REMARK    2  A    between atoms: O_2  and  C_18 
REMARK    3  A    between atoms: O_3  and  C_12 
REMARK    4  A    between atoms: O_4  and  C_13 
REMARK    5  A    between atoms: O_5  and  C_14 
REMARK    6  A    between atoms: O_6  and  C_17 
REMARK    7  A    between atoms: O_8  and  C_23 
REMARK    8  A    between atoms: O_10  and  C_30 
REMARK    9  A    between atoms: O_11  and  C_32 
REMARK   10  A    between atoms: C_15  and  C_17 
REMARK   11  A    between atoms: C_25  and  C_27 
ROOT
HETATM    1  O   UNK     0      15.990  20.875   2.327  0.00  0.00    -0.348 OA
HETATM    2  C   UNK     0      16.071  23.079   0.487  0.00  0.00     0.183 C 
HETATM    3  C   UNK     0      17.200  22.795   1.478  0.00  0.00     0.180 C 
HETATM    4  C   UNK     0      14.756  22.451   0.953  0.00  0.00     0.205 C 
HETATM    5  C   UNK     0      17.257  21.306   1.826  0.00  0.00     0.179 C 
HETATM    6  C   UNK     0      14.950  20.990   1.358  0.00  0.00     0.298 C 
ENDROOT
BRANCH   5   7
HETATM    7  C   UNK     0      18.300  21.017   2.901  0.00  0.00     0.198 C 
BRANCH   7   8
HETATM    8  O   UNK     0      18.342  22.115   3.794  0.00  0.00    -0.398 OA
HETATM    9  H   UNK     0      18.393  22.927   3.261  0.00  0.00     0.209 HD
ENDBRANCH   7   8
ENDBRANCH   5   7
BRANCH   6  10
HETATM   10  O   UNK     0      13.722  20.521   1.912  0.00  0.00    -0.318 OA
BRANCH  10  11
HETATM   11  C   UNK     0      13.227  19.357   1.402  0.00  0.00     0.077 A 
HETATM   12  C   UNK     0      12.816  18.339   2.264  0.00  0.00     0.075 A 
HETATM   13  C   UNK     0      12.311  17.149   1.740  0.00  0.00     0.095 A 
HETATM   14  O   UNK     0      11.923  16.185   2.636  0.00  0.00    -0.309 OA
HETATM   15  C   UNK     0      12.220  16.978   0.359  0.00  0.00     0.081 A 
HETATM   16  C   UNK     0      11.412  14.994   2.144  0.00  0.00     0.090 A 
HETATM   17  C   UNK     0      11.280  14.710   0.839  0.00  0.00     0.094 A 
HETATM   18  C   UNK     0      11.686  15.713  -0.166  0.00  0.00     0.190 A 
HETATM   19  O   UNK     0      11.581  15.495  -1.365  0.00  0.00    -0.287 OA
HETATM   20  C   UNK     0      12.631  17.995  -0.507  0.00  0.00     0.085 A 
HETATM   21  C   UNK     0      13.135  19.185   0.021  0.00  0.00     0.074 A 
BRANCH  16  22
HETATM   22  C   UNK     0      11.031  14.026   3.193  0.00  0.00     0.001 A 
HETATM   23  C   UNK     0      11.799  12.878   3.399  0.00  0.00     0.053 A 
HETATM   24  C   UNK     0      11.439  11.965   4.391  0.00  0.00     0.099 A 
HETATM   25  C   UNK     0      10.312  12.196   5.177  0.00  0.00     0.098 A 
HETATM   26  C   UNK     0       9.543  13.343   4.974  0.00  0.00     0.040 A 
HETATM   27  C   UNK     0       9.901  14.256   3.983  0.00  0.00     0.017 A 
BRANCH  24  28
HETATM   28  O   UNK     0      12.197  10.847   4.580  0.00  0.00    -0.358 OA
HETATM   29  H   UNK     0      12.270  10.686   5.536  0.00  0.00     0.217 HD
ENDBRANCH  24  28
BRANCH  25  30
HETATM   30  O   UNK     0       9.951  11.313   6.149  0.00  0.00    -0.358 OA
HETATM   31  H   UNK     0       9.782  11.800   6.974  0.00  0.00     0.217 HD
ENDBRANCH  25  30
ENDBRANCH  16  22
BRANCH  20  32
HETATM   32  O   UNK     0      12.562  17.876  -1.861  0.00  0.00    -0.360 OA
HETATM   33  H   UNK     0      13.186  17.206  -2.178  0.00  0.00     0.217 HD
ENDBRANCH  20  32
ENDBRANCH  10  11
ENDBRANCH   6  10
BRANCH   3  34
HETATM   34  O   UNK     0      18.443  23.192   0.902  0.00  0.00    -0.390 OA
HETATM   35  H   UNK     0      19.070  23.358   1.627  0.00  0.00     0.210 HD
ENDBRANCH   3  34
BRANCH   4  36
HETATM   36  O   UNK     0      13.807  22.498  -0.112  0.00  0.00    -0.388 OA
HETATM   37  H   UNK     0      14.198  22.056  -0.885  0.00  0.00     0.210 HD
ENDBRANCH   4  36
BRANCH   2  38
HETATM   38  O   UNK     0      15.913  24.495   0.389  0.00  0.00    -0.390 OA
HETATM   39  H   UNK     0      15.585  24.811   1.249  0.00  0.00     0.210 HD
ENDBRANCH   2  38
TORSDOF 11
ENDMDL
MODEL 2
REMARK VINA RESULT:      -7.9      1.803      2.822
REMARK  11 active torsions:
REMARK  status: ('A' for Active; 'I' for Inactive)
REMARK    1  A    between atoms: O_2  and  C_16 
REMARK    2  A    between atoms: O_2  and  C_18 
REMARK    3  A    between atoms: O_3  and  C_12 
REMARK    4  A    between atoms: O_4  and  C_13 
REMARK    5  A    between atoms: O_5  and  C_14 
REMARK    6  A    between atoms: O_6  and  C_17 
REMARK    7  A    between atoms: O_8  and  C_23 
REMARK    8  A    between atoms: O_10  and  C_30 
REMARK    9  A    between atoms: O_11  and  C_32 
REMARK   10  A    between atoms: C_15  and  C_17 
REMARK   11  A    between atoms: C_25  and  C_27 
ROOT
HETATM    1  O   UNK     0      14.361  21.613   0.682  0.00  0.00    -0.348 OA
HETATM    2  C   UNK     0      16.826  21.192   2.094  0.00  0.00     0.183 C 
HETATM    3  C   UNK     0      16.364  22.578   1.645  0.00  0.00     0.180 C 
HETATM    4  C   UNK     0      16.162  20.092   1.265  0.00  0.00     0.205 C 
HETATM    5  C   UNK     0      14.838  22.640   1.554  0.00  0.00     0.179 C 
HETATM    6  C   UNK     0      14.651  20.304   1.168  0.00  0.00     0.298 C 
ENDROOT
BRANCH   5   7
HETATM    7  C   UNK     0      14.359  23.977   0.996  0.00  0.00     0.198 C 
BRANCH   7   8
HETATM    8  O   UNK     0      14.291  24.909   2.059  0.00  0.00    -0.398 OA
HETATM    9  H   UNK     0      14.106  24.414   2.875  0.00  0.00     0.209 HD
ENDBRANCH   7   8
ENDBRANCH   5   7
BRANCH   6  10
HETATM   10  O   UNK     0      14.127  19.329   0.268  0.00  0.00    -0.318 OA
BRANCH  10  11
HETATM   11  C   UNK     0      12.924  18.778   0.597  0.00  0.00     0.077 A 
HETATM   12  C   UNK     0      12.880  17.594   1.334  0.00  0.00     0.075 A 
HETATM   13  C   UNK     0      11.648  17.032   1.670  0.00  0.00     0.095 A 
HETATM   14  O   UNK     0      11.668  15.867   2.396  0.00  0.00    -0.309 OA
HETATM   15  C   UNK     0      10.466  17.652   1.268  0.00  0.00     0.081 A 
HETATM   16  C   UNK     0      10.458  15.289   2.749  0.00  0.00     0.090 A 
HETATM   17  C   UNK     0       9.257  15.787   2.416  0.00  0.00     0.094 A 
HETATM   18  C   UNK     0       9.181  17.037   1.634  0.00  0.00     0.190 A 
HETATM   19  O   UNK     0       8.107  17.525   1.312  0.00  0.00    -0.287 OA
HETATM   20  C   UNK     0      10.506  18.838   0.530  0.00  0.00     0.085 A 
HETATM   21  C   UNK     0      11.740  19.398   0.196  0.00  0.00     0.074 A 
BRANCH  16  22
HETATM   22  C   UNK     0      10.595  14.038   3.522  0.00  0.00     0.001 A 
HETATM   23  C   UNK     0       9.801  13.822   4.651  0.00  0.00     0.053 A 
HETATM   24  C   UNK     0       9.930  12.639   5.381  0.00  0.00     0.099 A 
HETATM   25  C   UNK     0      10.851  11.672   4.985  0.00  0.00     0.098 A 
HETATM   26  C   UNK     0      11.645  11.885   3.857  0.00  0.00     0.040 A 
HETATM   27  C   UNK     0      11.517  13.066   3.127  0.00  0.00     0.017 A 
BRANCH  24  28
HETATM   28  O   UNK     0       9.150  12.443   6.482  0.00  0.00    -0.358 OA
HETATM   29  H   UNK     0       8.586  13.226   6.600  0.00  0.00     0.217 HD
ENDBRANCH  24  28
BRANCH  25  30
HETATM   30  O   UNK     0      10.985  10.513   5.688  0.00  0.00    -0.358 OA
HETATM   31  H   UNK     0      10.500   9.806   5.229  0.00  0.00     0.217 HD
ENDBRANCH  25  30
ENDBRANCH  16  22
BRANCH  20  32
HETATM   32  O   UNK     0       9.381  19.481   0.114  0.00  0.00    -0.360 OA
HETATM   33  H   UNK     0       9.258  20.307   0.606  0.00  0.00     0.217 HD
ENDBRANCH  20  32
ENDBRANCH  10  11
ENDBRANCH   6  10
BRANCH   3  34
HETATM   34  O   UNK     0      16.820  23.553   2.581  0.00  0.00    -0.390 OA
HETATM   35  H   UNK     0      16.039  23.981   2.972  0.00  0.00     0.210 HD
ENDBRANCH   3  34
BRANCH   4  36
HETATM   36  O   UNK     0      16.397  18.827   1.881  0.00  0.00    -0.388 OA
HETATM   37  H   UNK     0      16.423  18.961   2.844  0.00  0.00     0.210 HD
ENDBRANCH   4  36
BRANCH   2  38
HETATM   38  O   UNK     0      18.243  21.122   1.929  0.00  0.00    -0.390 OA
HETATM   39  H   UNK     0      18.597  22.015   2.079  0.00  0.00     0.210 HD
ENDBRANCH   2  38
TORSDOF 11
ENDMDL
MODEL 3
REMARK VINA RESULT:      -7.8      1.733      9.202
REMARK  11 active torsions:
REMARK  status: ('A' for Active; 'I' for Inactive)
REMARK    1  A    between atoms: O_2  and  C_16 
REMARK    2  A    between atoms: O_2  and  C_18 
REMARK    3  A    between atoms: O_3  and  C_12 
REMARK    4  A    between atoms: O_4  and  C_13 
REMARK    5  A    between atoms: O_5  and  C_14 
REMARK    6  A    between atoms: O_6  and  C_17 
REMARK    7  A    between atoms: O_8  and  C_23 
REMARK    8  A    between atoms: O_10  and  C_30 
REMARK    9  A    between atoms: O_11  and  C_32 
REMARK   10  A    between atoms: C_15  and  C_17 
REMARK   11  A    between atoms: C_25  and  C_27 
ROOT
HETATM    1  O   UNK     0      10.280  14.811   2.462  0.00  0.00    -0.348 OA
HETATM    2  C   UNK     0      10.173  13.058   4.734  0.00  0.00     0.183 C 
HETATM    3  C   UNK     0       9.184  14.207   4.537  0.00  0.00     0.180 C 
HETATM    4  C   UNK     0      11.462  13.297   3.947  0.00  0.00     0.205 C 
HETATM    5  C   UNK     0       9.010  14.525   3.051  0.00  0.00     0.179 C 
HETATM    6  C   UNK     0      11.166  13.694   2.501  0.00  0.00     0.298 C 
ENDROOT
BRANCH   5   7
HETATM    7  C   UNK     0       8.117  15.743   2.835  0.00  0.00     0.198 C 
BRANCH   7   8
HETATM    8  O   UNK     0       6.778  15.374   3.107  0.00  0.00    -0.398 OA
HETATM    9  H   UNK     0       6.666  15.357   4.074  0.00  0.00     0.209 HD
ENDBRANCH   7   8
ENDBRANCH   5   7
BRANCH   6  10
HETATM   10  O   UNK     0      12.402  14.037   1.876  0.00  0.00    -0.318 OA
BRANCH  10  11
HETATM   11  C   UNK     0      12.432  15.213   1.187  0.00  0.00     0.077 A 
HETATM   12  C   UNK     0      13.271  16.246   1.610  0.00  0.00     0.075 A 
HETATM   13  C   UNK     0      13.301  17.448   0.904  0.00  0.00     0.095 A 
HETATM   14  O   UNK     0      14.145  18.426   1.367  0.00  0.00    -0.309 OA
HETATM   15  C   UNK     0      12.493  17.616  -0.220  0.00  0.00     0.081 A 
HETATM   16  C   UNK     0      14.200  19.629   0.682  0.00  0.00     0.090 A 
HETATM   17  C   UNK     0      13.468  19.913  -0.407  0.00  0.00     0.094 A 
HETATM   18  C   UNK     0      12.543  18.895  -0.944  0.00  0.00     0.190 A 
HETATM   19  O   UNK     0      11.859  19.112  -1.935  0.00  0.00    -0.287 OA
HETATM   20  C   UNK     0      11.652  16.585  -0.646  0.00  0.00     0.085 A 
HETATM   21  C   UNK     0      11.625  15.383   0.063  0.00  0.00     0.074 A 
BRANCH  16  22
HETATM   22  C   UNK     0      15.135  20.612   1.268  0.00  0.00     0.001 A 
HETATM   23  C   UNK     0      16.432  20.225   1.611  0.00  0.00     0.053 A 
HETATM   24  C   UNK     0      17.316  21.154   2.163  0.00  0.00     0.099 A 
HETATM   25  C   UNK     0      16.904  22.468   2.375  0.00  0.00     0.098 A 
HETATM   26  C   UNK     0      15.608  22.857   2.033  0.00  0.00     0.040 A 
HETATM   27  C   UNK     0      14.725  21.930   1.480  0.00  0.00     0.017 A 
BRANCH  24  28
HETATM   28  O   UNK     0      18.579  20.762   2.495  0.00  0.00    -0.358 OA
HETATM   29  H   UNK     0      18.673  19.820   2.277  0.00  0.00     0.217 HD
ENDBRANCH  24  28
BRANCH  25  30
HETATM   30  O   UNK     0      17.757  23.384   2.912  0.00  0.00    -0.358 OA
HETATM   31  H   UNK     0      17.476  24.275   2.644  0.00  0.00     0.217 HD
ENDBRANCH  25  30
ENDBRANCH  16  22
BRANCH  20  32
HETATM   32  O   UNK     0      10.845  16.702  -1.736  0.00  0.00    -0.360 OA
HETATM   33  H   UNK     0      11.349  17.012  -2.503  0.00  0.00     0.217 HD
ENDBRANCH  20  32
ENDBRANCH  10  11
ENDBRANCH   6  10
BRANCH   3  34
HETATM   34  O   UNK     0       7.922  13.842   5.092  0.00  0.00    -0.390 OA
HETATM   35  H   UNK     0       7.324  13.623   4.358  0.00  0.00     0.210 HD
ENDBRANCH   3  34
BRANCH   4  36
HETATM   36  O   UNK     0      12.237  12.098   3.931  0.00  0.00    -0.388 OA
HETATM   37  H   UNK     0      12.362  11.832   3.004  0.00  0.00     0.210 HD
ENDBRANCH   4  36
BRANCH   2  38
HETATM   38  O   UNK     0      10.477  12.969   6.127  0.00  0.00    -0.390 OA
HETATM   39  H   UNK     0       9.736  12.507   6.557  0.00  0.00     0.210 HD
ENDBRANCH   2  38
TORSDOF 11
ENDMDL
MODEL 4
REMARK VINA RESULT:      -7.5     31.369     36.715
REMARK  11 active torsions:
REMARK  status: ('A' for Active; 'I' for Inactive)
REMARK    1  A    between atoms: O_2  and  C_16 
REMARK    2  A    between atoms: O_2  and  C_18 
REMARK    3  A    between atoms: O_3  and  C_12 
REMARK    4  A    between atoms: O_4  and  C_13 
REMARK    5  A    between atoms: O_5  and  C_14 
REMARK    6  A    between atoms: O_6  and  C_17 
REMARK    7  A    between atoms: O_8  and  C_23 
REMARK    8  A    between atoms: O_10  and  C_30 
REMARK    9  A    between atoms: O_11  and  C_32 
REMARK   10  A    between atoms: C_15  and  C_17 
REMARK   11  A    between atoms: C_25  and  C_27 
ROOT
HETATM    1  O   UNK     0      33.842  25.451  24.808  0.00  0.00    -0.348 OA
HETATM    2  C   UNK     0      34.647  22.720  25.188  0.00  0.00     0.183 C 
HETATM    3  C   UNK     0      34.621  23.384  23.811  0.00  0.00     0.180 C 
HETATM    4  C   UNK     0      33.720  23.442  26.168  0.00  0.00     0.205 C 
HETATM    5  C   UNK     0      34.826  24.895  23.933  0.00  0.00     0.179 C 
HETATM    6  C   UNK     0      33.951  24.953  26.140  0.00  0.00     0.298 C 
ENDROOT
BRANCH   5   7
HETATM    7  C   UNK     0      34.689  25.594  22.584  0.00  0.00     0.198 C 
BRANCH   7   8
HETATM    8  O   UNK     0      34.043  24.712  21.684  0.00  0.00    -0.398 OA
HETATM    9  H   UNK     0      34.733  24.240  21.186  0.00  0.00     0.209 HD
ENDBRANCH   7   8
ENDBRANCH   5   7
BRANCH   6  10
HETATM   10  O   UNK     0      32.961  25.565  26.965  0.00  0.00    -0.318 OA
BRANCH  10  11
HETATM   11  C   UNK     0      33.368  25.986  28.197  0.00  0.00     0.077 A 
HETATM   12  C   UNK     0      34.557  26.704  28.329  0.00  0.00     0.075 A 
HETATM   13  C   UNK     0      34.971  27.133  29.589  0.00  0.00     0.095 A 
HETATM   14  O   UNK     0      36.149  27.835  29.657  0.00  0.00    -0.309 OA
HETATM   15  C   UNK     0      34.198  26.844  30.713  0.00  0.00     0.081 A 
HETATM   16  C   UNK     0      36.582  28.279  30.896  0.00  0.00     0.090 A 
HETATM   17  C   UNK     0      35.930  28.059  32.048  0.00  0.00     0.094 A 
HETATM   18  C   UNK     0      34.659  27.308  32.030  0.00  0.00     0.190 A 
HETATM   19  O   UNK     0      34.033  27.087  33.057  0.00  0.00    -0.287 OA
HETATM   20  C   UNK     0      33.007  26.125  30.585  0.00  0.00     0.085 A 
HETATM   21  C   UNK     0      32.595  25.698  29.322  0.00  0.00     0.074 A 
BRANCH  16  22
HETATM   22  C   UNK     0      37.862  29.017  30.855  0.00  0.00     0.001 A 
HETATM   23  C   UNK     0      37.895  30.337  30.398  0.00  0.00     0.053 A 
HETATM   24  C   UNK     0      39.103  31.033  30.361  0.00  0.00     0.099 A 
HETATM   25  C   UNK     0      40.280  30.413  30.778  0.00  0.00     0.098 A 
HETATM   26  C   UNK     0      40.249  29.095  31.236  0.00  0.00     0.040 A 
HETATM   27  C   UNK     0      39.042  28.398  31.274  0.00  0.00     0.017 A 
BRANCH  24  28
HETATM   28  O   UNK     0      39.122  32.320  29.910  0.00  0.00    -0.358 OA
HETATM   29  H   UNK     0      39.700  32.839  30.494  0.00  0.00     0.217 HD
ENDBRANCH  24  28
BRANCH  25  30
HETATM   30  O   UNK     0      41.465  31.083  30.747  0.00  0.00    -0.358 OA
HETATM   31  H   UNK     0      41.766  31.237  31.659  0.00  0.00     0.217 HD
ENDBRANCH  25  30
ENDBRANCH  16  22
BRANCH  20  32
HETATM   32  O   UNK     0      32.218  25.819  31.651  0.00  0.00    -0.360 OA
HETATM   33  H   UNK     0      32.722  25.874  32.477  0.00  0.00     0.217 HD
ENDBRANCH  20  32
ENDBRANCH  10  11
ENDBRANCH   6  10
BRANCH   3  34
HETATM   34  O   UNK     0      35.659  22.832  23.003  0.00  0.00    -0.390 OA
HETATM   35  H   UNK     0      35.859  21.941  23.340  0.00  0.00     0.210 HD
ENDBRANCH   3  34
BRANCH   4  36
HETATM   36  O   UNK     0      33.975  22.975  27.492  0.00  0.00    -0.388 OA
HETATM   37  H   UNK     0      34.928  23.059  27.663  0.00  0.00     0.210 HD
ENDBRANCH   4  36
BRANCH   2  38
HETATM   38  O   UNK     0      34.215  21.367  25.035  0.00  0.00    -0.390 OA
HETATM   39  H   UNK     0      35.009  20.806  25.042  0.00  0.00     0.210 HD
ENDBRANCH   2  38
TORSDOF 11
ENDMDL
MODEL 5
REMARK VINA RESULT:      -7.3     20.991     24.259
REMARK  11 active torsions:
REMARK  status: ('A' for Active; 'I' for Inactive)
REMARK    1  A    between atoms: O_2  and  C_16 
REMARK    2  A    between atoms: O_2  and  C_18 
REMARK    3  A    between atoms: O_3  and  C_12 
REMARK    4  A    between atoms: O_4  and  C_13 
REMARK    5  A    between atoms: O_5  and  C_14 
REMARK    6  A    between atoms: O_6  and  C_17 
REMARK    7  A    between atoms: O_8  and  C_23 
REMARK    8  A    between atoms: O_10  and  C_30 
REMARK    9  A    between atoms: O_11  and  C_32 
REMARK   10  A    between atoms: C_15  and  C_17 
REMARK   11  A    between atoms: C_25  and  C_27 
ROOT
HETATM    1  O   UNK     0      29.921  34.936  12.757  0.00  0.00    -0.348 OA
HETATM    2  C   UNK     0      27.871  35.370  10.793  0.00  0.00     0.183 C 
HETATM    3  C   UNK     0      29.345  35.671  10.521  0.00  0.00     0.180 C 
HETATM    4  C   UNK     0      27.576  35.363  12.294  0.00  0.00     0.205 C 
HETATM    5  C   UNK     0      30.248  34.779  11.375  0.00  0.00     0.179 C 
HETATM    6  C   UNK     0      28.593  34.513  13.056  0.00  0.00     0.298 C 
ENDROOT
BRANCH   5   7
HETATM    7  C   UNK     0      31.721  35.141  11.206  0.00  0.00     0.198 C 
BRANCH   7   8
HETATM    8  O   UNK     0      31.808  36.495  10.802  0.00  0.00    -0.398 OA
HETATM    9  H   UNK     0      31.582  37.048  11.570  0.00  0.00     0.209 HD
ENDBRANCH   7   8
ENDBRANCH   5   7
BRANCH   6  10
HETATM   10  O   UNK     0      28.340  34.671  14.452  0.00  0.00    -0.318 OA
BRANCH  10  11
HETATM   11  C   UNK     0      28.218  33.527  15.183  0.00  0.00     0.077 A 
HETATM   12  C   UNK     0      28.598  32.303  14.630  0.00  0.00     0.075 A 
HETATM   13  C   UNK     0      28.472  31.134  15.380  0.00  0.00     0.095 A 
HETATM   14  O   UNK     0      28.861  29.962  14.783  0.00  0.00    -0.309 OA
HETATM   15  C   UNK     0      27.967  31.190  16.678  0.00  0.00     0.081 A 
HETATM   16  C   UNK     0      28.753  28.785  15.507  0.00  0.00     0.090 A 
HETATM   17  C   UNK     0      28.277  28.709  16.760  0.00  0.00     0.094 A 
HETATM   18  C   UNK     0      27.843  29.942  17.446  0.00  0.00     0.190 A 
HETATM   19  O   UNK     0      27.406  29.918  18.588  0.00  0.00    -0.287 OA
HETATM   20  C   UNK     0      27.585  32.413  17.236  0.00  0.00     0.085 A 
HETATM   21  C   UNK     0      27.713  33.581  16.483  0.00  0.00     0.074 A 
BRANCH  16  22
HETATM   22  C   UNK     0      29.193  27.583  14.768  0.00  0.00     0.001 A 
HETATM   23  C   UNK     0      28.531  27.197  13.601  0.00  0.00     0.053 A 
HETATM   24  C   UNK     0      28.948  26.063  12.903  0.00  0.00     0.099 A 
HETATM   25  C   UNK     0      30.026  25.313  13.370  0.00  0.00     0.098 A 
HETATM   26  C   UNK     0      30.690  25.698  14.535  0.00  0.00     0.040 A 
HETATM   27  C   UNK     0      30.274  26.830  15.234  0.00  0.00     0.017 A 
BRANCH  24  28
HETATM   28  O   UNK     0      28.291  25.695  11.766  0.00  0.00    -0.358 OA
HETATM   29  H   UNK     0      27.397  26.077  11.793  0.00  0.00     0.217 HD
ENDBRANCH  24  28
BRANCH  25  30
HETATM   30  O   UNK     0      30.444  24.205  12.697  0.00  0.00    -0.358 OA
HETATM   31  H   UNK     0      31.087  23.724  13.246  0.00  0.00     0.217 HD
ENDBRANCH  25  30
ENDBRANCH  16  22
BRANCH  20  32
HETATM   32  O   UNK     0      27.088  32.520  18.498  0.00  0.00    -0.360 OA
HETATM   33  H   UNK     0      27.322  31.740  19.025  0.00  0.00     0.217 HD
ENDBRANCH  20  32
ENDBRANCH  10  11
ENDBRANCH   6  10
BRANCH   3  34
HETATM   34  O   UNK     0      29.625  35.442   9.142  0.00  0.00    -0.390 OA
HETATM   35  H   UNK     0      30.396  34.853   9.086  0.00  0.00     0.210 HD
ENDBRANCH   3  34
BRANCH   4  36
HETATM   36  O   UNK     0      26.277  34.815  12.519  0.00  0.00    -0.388 OA
HETATM   37  H   UNK     0      25.676  35.547  12.739  0.00  0.00     0.210 HD
ENDBRANCH   4  36
BRANCH   2  38
HETATM   38  O   UNK     0      27.088  36.384  10.160  0.00  0.00    -0.390 OA
HETATM   39  H   UNK     0      26.207  36.007   9.991  0.00  0.00     0.210 HD
ENDBRANCH   2  38
TORSDOF 11
ENDMDL
MODEL 6
REMARK VINA RESULT:      -7.3     32.196     34.214
REMARK  11 active torsions:
REMARK  status: ('A' for Active; 'I' for Inactive)
REMARK    1  A    between atoms: O_2  and  C_16 
REMARK    2  A    between atoms: O_2  and  C_18 
REMARK    3  A    between atoms: O_3  and  C_12 
REMARK    4  A    between atoms: O_4  and  C_13 
REMARK    5  A    between atoms: O_5  and  C_14 
REMARK    6  A    between atoms: O_6  and  C_17 
REMARK    7  A    between atoms: O_8  and  C_23 
REMARK    8  A    between atoms: O_10  and  C_30 
REMARK    9  A    between atoms: O_11  and  C_32 
REMARK   10  A    between atoms: C_15  and  C_17 
REMARK   11  A    between atoms: C_25  and  C_27 
ROOT
HETATM    1  O   UNK     0      34.552  22.420  28.573  0.00  0.00    -0.348 OA
HETATM    2  C   UNK     0      35.915  23.482  26.279  0.00  0.00     0.183 C 
HETATM    3  C   UNK     0      36.246  22.111  26.868  0.00  0.00     0.180 C 
HETATM    4  C   UNK     0      35.239  24.381  27.316  0.00  0.00     0.205 C 
HETATM    5  C   UNK     0      35.026  21.515  27.575  0.00  0.00     0.179 C 
HETATM    6  C   UNK     0      34.094  23.653  28.021  0.00  0.00     0.298 C 
ENDROOT
BRANCH   5   7
HETATM    7  C   UNK     0      35.365  20.199  28.270  0.00  0.00     0.198 C 
BRANCH   7   8
HETATM    8  O   UNK     0      35.304  19.156  27.315  0.00  0.00    -0.398 OA
HETATM    9  H   UNK     0      34.426  19.190  26.896  0.00  0.00     0.209 HD
ENDBRANCH   7   8
ENDBRANCH   5   7
BRANCH   6  10
HETATM   10  O   UNK     0      33.611  24.498  29.063  0.00  0.00    -0.318 OA
BRANCH  10  11
HETATM   11  C   UNK     0      32.261  24.524  29.252  0.00  0.00     0.077 A 
HETATM   12  C   UNK     0      31.707  23.942  30.394  0.00  0.00     0.075 A 
HETATM   13  C   UNK     0      30.326  23.969  30.585  0.00  0.00     0.095 A 
HETATM   14  O   UNK     0      29.840  23.380  31.725  0.00  0.00    -0.309 OA
HETATM   15  C   UNK     0      29.503  24.576  29.637  0.00  0.00     0.081 A 
HETATM   16  C   UNK     0      28.471  23.398  31.945  0.00  0.00     0.090 A 
HETATM   17  C   UNK     0      27.578  23.944  31.105  0.00  0.00     0.094 A 
HETATM   18  C   UNK     0      28.050  24.588  29.863  0.00  0.00     0.190 A 
HETATM   19  O   UNK     0      27.269  25.099  29.072  0.00  0.00    -0.287 OA
HETATM   20  C   UNK     0      30.053  25.159  28.493  0.00  0.00     0.085 A 
HETATM   21  C   UNK     0      31.436  25.131  28.305  0.00  0.00     0.074 A 
BRANCH  16  22
HETATM   22  C   UNK     0      28.056  22.733  33.197  0.00  0.00     0.001 A 
HETATM   23  C   UNK     0      28.965  22.587  34.247  0.00  0.00     0.053 A 
HETATM   24  C   UNK     0      28.572  21.960  35.431  0.00  0.00     0.099 A 
HETATM   25  C   UNK     0      27.272  21.477  35.566  0.00  0.00     0.098 A 
HETATM   26  C   UNK     0      26.362  21.622  34.518  0.00  0.00     0.040 A 
HETATM   27  C   UNK     0      26.753  22.248  33.336  0.00  0.00     0.017 A 
BRANCH  24  28
HETATM   28  O   UNK     0      29.470  21.823  36.447  0.00  0.00    -0.358 OA
HETATM   29  H   UNK     0      29.896  22.684  36.597  0.00  0.00     0.217 HD
ENDBRANCH  24  28
BRANCH  25  30
HETATM   30  O   UNK     0      26.876  20.864  36.716  0.00  0.00    -0.358 OA
HETATM   31  H   UNK     0      27.478  21.123  37.436  0.00  0.00     0.217 HD
ENDBRANCH  25  30
ENDBRANCH  16  22
BRANCH  20  32
HETATM   32  O   UNK     0      29.292  25.763  27.540  0.00  0.00    -0.360 OA
HETATM   33  H   UNK     0      28.387  25.897  27.860  0.00  0.00     0.217 HD
ENDBRANCH  20  32
ENDBRANCH  10  11
ENDBRANCH   6  10
BRANCH   3  34
HETATM   34  O   UNK     0      36.657  21.235  25.820  0.00  0.00    -0.390 OA
HETATM   35  H   UNK     0      37.580  21.447  25.599  0.00  0.00     0.210 HD
ENDBRANCH   3  34
BRANCH   4  36
HETATM   36  O   UNK     0      34.703  25.533  26.666  0.00  0.00    -0.388 OA
HETATM   37  H   UNK     0      34.374  26.140  27.351  0.00  0.00     0.210 HD
ENDBRANCH   4  36
BRANCH   2  38
HETATM   38  O   UNK     0      37.137  24.087  25.851  0.00  0.00    -0.390 OA
HETATM   39  H   UNK     0      37.807  23.898  26.530  0.00  0.00     0.210 HD
ENDBRANCH   2  38
TORSDOF 11
ENDMDL
MODEL 7
REMARK VINA RESULT:      -7.2     20.638     24.141
REMARK  11 active torsions:
REMARK  status: ('A' for Active; 'I' for Inactive)
REMARK    1  A    between atoms: O_2  and  C_16 
REMARK    2  A    between atoms: O_2  and  C_18 
REMARK    3  A    between atoms: O_3  and  C_12 
REMARK    4  A    between atoms: O_4  and  C_13 
REMARK    5  A    between atoms: O_5  and  C_14 
REMARK    6  A    between atoms: O_6  and  C_17 
REMARK    7  A    between atoms: O_8  and  C_23 
REMARK    8  A    between atoms: O_10  and  C_30 
REMARK    9  A    between atoms: O_11  and  C_32 
REMARK   10  A    between atoms: C_15  and  C_17 
REMARK   11  A    between atoms: C_25  and  C_27 
ROOT
HETATM    1  O   UNK     0      12.161  15.265  22.099  0.00  0.00    -0.348 OA
HETATM    2  C   UNK     0      10.238  17.309  21.486  0.00  0.00     0.183 C 
HETATM    3  C   UNK     0      10.003  15.835  21.154  0.00  0.00     0.180 C 
HETATM    4  C   UNK     0      11.730  17.610  21.640  0.00  0.00     0.205 C 
HETATM    5  C   UNK     0      10.771  14.931  22.121  0.00  0.00     0.179 C 
HETATM    6  C   UNK     0      12.411  16.593  22.555  0.00  0.00     0.298 C 
ENDROOT
BRANCH   5   7
HETATM    7  C   UNK     0      10.646  13.460  21.737  0.00  0.00     0.198 C 
BRANCH   7   8
HETATM    8  O   UNK     0      10.379  13.377  20.350  0.00  0.00    -0.398 OA
HETATM    9  H   UNK     0      11.010  12.745  19.964  0.00  0.00     0.209 HD
ENDBRANCH   7   8
ENDBRANCH   5   7
BRANCH   6  10
HETATM   10  O   UNK     0      13.814  16.853  22.534  0.00  0.00    -0.318 OA
BRANCH  10  11
HETATM   11  C   UNK     0      14.607  15.983  23.222  0.00  0.00     0.077 A 
HETATM   12  C   UNK     0      14.304  15.665  24.547  0.00  0.00     0.075 A 
HETATM   13  C   UNK     0      15.117  14.775  25.249  0.00  0.00     0.095 A 
HETATM   14  O   UNK     0      14.770  14.501  26.548  0.00  0.00    -0.309 OA
HETATM   15  C   UNK     0      16.228  14.206  24.627  0.00  0.00     0.081 A 
HETATM   16  C   UNK     0      15.556  13.615  27.268  0.00  0.00     0.090 A 
HETATM   17  C   UNK     0      16.651  13.010  26.783  0.00  0.00     0.094 A 
HETATM   18  C   UNK     0      17.069  13.273  25.392  0.00  0.00     0.190 A 
HETATM   19  O   UNK     0      18.059  12.741  24.910  0.00  0.00    -0.287 OA
HETATM   20  C   UNK     0      16.534  14.523  23.301  0.00  0.00     0.085 A 
HETATM   21  C   UNK     0      15.718  15.413  22.601  0.00  0.00     0.074 A 
BRANCH  16  22
HETATM   22  C   UNK     0      15.096  13.396  28.656  0.00  0.00     0.001 A 
HETATM   23  C   UNK     0      15.712  14.071  29.712  0.00  0.00     0.053 A 
HETATM   24  C   UNK     0      15.277  13.865  31.022  0.00  0.00     0.099 A 
HETATM   25  C   UNK     0      14.227  12.985  31.278  0.00  0.00     0.098 A 
HETATM   26  C   UNK     0      13.609  12.311  30.224  0.00  0.00     0.040 A 
HETATM   27  C   UNK     0      14.043  12.516  28.915  0.00  0.00     0.017 A 
BRANCH  24  28
HETATM   28  O   UNK     0      15.889  14.528  32.044  0.00  0.00    -0.358 OA
HETATM   29  H   UNK     0      16.687  14.959  31.693  0.00  0.00     0.217 HD
ENDBRANCH  24  28
BRANCH  25  30
HETATM   30  O   UNK     0      13.792  12.777  32.552  0.00  0.00    -0.358 OA
HETATM   31  H   UNK     0      13.327  11.923  32.593  0.00  0.00     0.217 HD
ENDBRANCH  25  30
ENDBRANCH  16  22
BRANCH  20  32
HETATM   32  O   UNK     0      17.607  13.994  22.651  0.00  0.00    -0.360 OA
HETATM   33  H   UNK     0      17.421  13.901  21.704  0.00  0.00     0.217 HD
ENDBRANCH  20  32
ENDBRANCH  10  11
ENDBRANCH   6  10
BRANCH   3  34
HETATM   34  O   UNK     0       8.610  15.548  21.247  0.00  0.00    -0.390 OA
HETATM   35  H   UNK     0       8.239  16.090  21.964  0.00  0.00     0.210 HD
ENDBRANCH   3  34
BRANCH   4  36
HETATM   36  O   UNK     0      11.894  18.907  22.212  0.00  0.00    -0.388 OA
HETATM   37  H   UNK     0      11.070  19.405  22.073  0.00  0.00     0.210 HD
ENDBRANCH   4  36
BRANCH   2  38
HETATM   38  O   UNK     0       9.702  18.094  20.420  0.00  0.00    -0.390 OA
HETATM   39  H   UNK     0       8.870  18.486  20.738  0.00  0.00     0.210 HD
ENDBRANCH   2  38
TORSDOF 11
ENDMDL
MODEL 8
REMARK VINA RESULT:      -7.2     31.014     36.245
REMARK  11 active torsions:
REMARK  status: ('A' for Active; 'I' for Inactive)
REMARK    1  A    between atoms: O_2  and  C_16 
REMARK    2  A    between atoms: O_2  and  C_18 
REMARK    3  A    between atoms: O_3  and  C_12 
REMARK    4  A    between atoms: O_4  and  C_13 
REMARK    5  A    between atoms: O_5  and  C_14 
REMARK    6  A    between atoms: O_6  and  C_17 
REMARK    7  A    between atoms: O_8  and  C_23 
REMARK    8  A    between atoms: O_10  and  C_30 
REMARK    9  A    between atoms: O_11  and  C_32 
REMARK   10  A    between atoms: C_15  and  C_17 
REMARK   11  A    between atoms: C_25  and  C_27 
ROOT
HETATM    1  O   UNK     0      33.570  26.730  24.516  0.00  0.00    -0.348 OA
HETATM    2  C   UNK     0      35.212  24.925  23.001  0.00  0.00     0.183 C 
HETATM    3  C   UNK     0      34.640  26.211  22.404  0.00  0.00     0.180 C 
HETATM    4  C   UNK     0      34.398  24.468  24.213  0.00  0.00     0.205 C 
HETATM    5  C   UNK     0      34.415  27.262  23.493  0.00  0.00     0.179 C 
HETATM    6  C   UNK     0      34.159  25.619  25.189  0.00  0.00     0.298 C 
ENDROOT
BRANCH   5   7
HETATM    7  C   UNK     0      33.736  28.511  22.939  0.00  0.00     0.198 C 
BRANCH   7   8
HETATM    8  O   UNK     0      33.404  29.361  24.022  0.00  0.00    -0.398 OA
HETATM    9  H   UNK     0      34.086  30.052  24.075  0.00  0.00     0.209 HD
ENDBRANCH   7   8
ENDBRANCH   5   7
BRANCH   6  10
HETATM   10  O   UNK     0      33.279  25.154  26.212  0.00  0.00    -0.318 OA
BRANCH  10  11
HETATM   11  C   UNK     0      33.505  25.623  27.472  0.00  0.00     0.077 A 
HETATM   12  C   UNK     0      34.774  26.086  27.825  0.00  0.00     0.075 A 
HETATM   13  C   UNK     0      35.002  26.566  29.114  0.00  0.00     0.095 A 
HETATM   14  O   UNK     0      36.269  27.007  29.403  0.00  0.00    -0.309 OA
HETATM   15  C   UNK     0      33.966  26.580  30.047  0.00  0.00     0.081 A 
HETATM   16  C   UNK     0      36.524  27.494  30.675  0.00  0.00     0.090 A 
HETATM   17  C   UNK     0      35.613  27.554  31.659  0.00  0.00     0.094 A 
HETATM   18  C   UNK     0      34.235  27.089  31.400  0.00  0.00     0.190 A 
HETATM   19  O   UNK     0      33.374  27.128  32.267  0.00  0.00    -0.287 OA
HETATM   20  C   UNK     0      32.695  26.117  29.697  0.00  0.00     0.085 A 
HETATM   21  C   UNK     0      32.469  25.639  28.405  0.00  0.00     0.074 A 
BRANCH  16  22
HETATM   22  C   UNK     0      37.919  27.937  30.880  0.00  0.00     0.001 A 
HETATM   23  C   UNK     0      38.195  29.279  31.150  0.00  0.00     0.053 A 
HETATM   24  C   UNK     0      39.513  29.696  31.344  0.00  0.00     0.099 A 
HETATM   25  C   UNK     0      40.555  28.774  31.267  0.00  0.00     0.098 A 
HETATM   26  C   UNK     0      40.281  27.433  30.998  0.00  0.00     0.040 A 
HETATM   27  C   UNK     0      38.966  27.015  30.804  0.00  0.00     0.017 A 
BRANCH  24  28
HETATM   28  O   UNK     0      39.768  31.010  31.605  0.00  0.00    -0.358 OA
HETATM   29  H   UNK     0      39.908  31.109  32.562  0.00  0.00     0.217 HD
ENDBRANCH  24  28
BRANCH  25  30
HETATM   30  O   UNK     0      41.845  29.170  31.456  0.00  0.00    -0.358 OA
HETATM   31  H   UNK     0      42.241  29.382  30.593  0.00  0.00     0.217 HD
ENDBRANCH  25  30
ENDBRANCH  16  22
BRANCH  20  32
HETATM   32  O   UNK     0      31.651  26.111  30.571  0.00  0.00    -0.360 OA
HETATM   33  H   UNK     0      30.890  26.580  30.197  0.00  0.00     0.217 HD
ENDBRANCH  20  32
ENDBRANCH  10  11
ENDBRANCH   6  10
BRANCH   3  34
HETATM   34  O   UNK     0      35.550  26.724  21.434  0.00  0.00    -0.390 OA
HETATM   35  H   UNK     0      35.252  27.617  21.187  0.00  0.00     0.210 HD
ENDBRANCH   3  34
BRANCH   4  36
HETATM   36  O   UNK     0      35.110  23.439  24.900  0.00  0.00    -0.388 OA
HETATM   37  H   UNK     0      35.788  23.088  24.298  0.00  0.00     0.210 HD
ENDBRANCH   4  36
BRANCH   2  38
HETATM   38  O   UNK     0      35.173  23.913  21.994  0.00  0.00    -0.390 OA
HETATM   39  H   UNK     0      34.895  24.339  21.165  0.00  0.00     0.210 HD
ENDBRANCH   2  38
TORSDOF 11
ENDMDL
MODEL 9
REMARK VINA RESULT:      -7.1     21.437     25.331
REMARK  11 active torsions:
REMARK  status: ('A' for Active; 'I' for Inactive)
REMARK    1  A    between atoms: O_2  and  C_16 
REMARK    2  A    between atoms: O_2  and  C_18 
REMARK    3  A    between atoms: O_3  and  C_12 
REMARK    4  A    between atoms: O_4  and  C_13 
REMARK    5  A    between atoms: O_5  and  C_14 
REMARK    6  A    between atoms: O_6  and  C_17 
REMARK    7  A    between atoms: O_8  and  C_23 
REMARK    8  A    between atoms: O_10  and  C_30 
REMARK    9  A    between atoms: O_11  and  C_32 
REMARK   10  A    between atoms: C_15  and  C_17 
REMARK   11  A    between atoms: C_25  and  C_27 
ROOT
HETATM    1  O   UNK     0      13.686  13.767  28.716  0.00  0.00    -0.348 OA
HETATM    2  C   UNK     0      15.385  14.425  30.937  0.00  0.00     0.183 C 
HETATM    3  C   UNK     0      14.363  15.409  30.365  0.00  0.00     0.180 C 
HETATM    4  C   UNK     0      15.763  13.360  29.907  0.00  0.00     0.205 C 
HETATM    5  C   UNK     0      13.196  14.663  29.715  0.00  0.00     0.179 C 
HETATM    6  C   UNK     0      14.522  12.746  29.259  0.00  0.00     0.298 C 
ENDROOT
BRANCH   5   7
HETATM    7  C   UNK     0      12.223  15.621  29.036  0.00  0.00     0.198 C 
BRANCH   7   8
HETATM    8  O   UNK     0      12.944  16.756  28.592  0.00  0.00    -0.398 OA
HETATM    9  H   UNK     0      13.769  16.441  28.186  0.00  0.00     0.209 HD
ENDBRANCH   7   8
ENDBRANCH   5   7
BRANCH   6  10
HETATM   10  O   UNK     0      14.955  11.873  28.217  0.00  0.00    -0.318 OA
BRANCH  10  11
HETATM   11  C   UNK     0      15.465  12.462  27.098  0.00  0.00     0.077 A 
HETATM   12  C   UNK     0      14.618  13.151  26.228  0.00  0.00     0.075 A 
HETATM   13  C   UNK     0      15.142  13.753  25.084  0.00  0.00     0.095 A 
HETATM   14  O   UNK     0      14.262  14.415  24.265  0.00  0.00    -0.309 OA
HETATM   15  C   UNK     0      16.507  13.665  24.812  0.00  0.00     0.081 A 
HETATM   16  C   UNK     0      14.755  15.028  23.124  0.00  0.00     0.090 A 
HETATM   17  C   UNK     0      16.045  15.008  22.753  0.00  0.00     0.094 A 
HETATM   18  C   UNK     0      17.032  14.307  23.598  0.00  0.00     0.190 A 
HETATM   19  O   UNK     0      18.217  14.267  23.297  0.00  0.00    -0.287 OA
HETATM   20  C   UNK     0      17.357  12.976  25.682  0.00  0.00     0.085 A 
HETATM   21  C   UNK     0      16.830  12.376  26.826  0.00  0.00     0.074 A 
BRANCH  16  22
HETATM   22  C   UNK     0      13.723  15.706  22.314  0.00  0.00     0.001 A 
HETATM   23  C   UNK     0      12.399  15.263  22.353  0.00  0.00     0.053 A 
HETATM   24  C   UNK     0      11.424  15.905  21.588  0.00  0.00     0.099 A 
HETATM   25  C   UNK     0      11.770  16.989  20.783  0.00  0.00     0.098 A 
HETATM   26  C   UNK     0      13.092  17.434  20.743  0.00  0.00     0.040 A 
HETATM   27  C   UNK     0      14.067  16.794  21.506  0.00  0.00     0.017 A 
BRANCH  24  28
HETATM   28  O   UNK     0      10.136  15.461  21.634  0.00  0.00    -0.358 OA
HETATM   29  H   UNK     0       9.659  15.975  22.307  0.00  0.00     0.217 HD
ENDBRANCH  24  28
BRANCH  25  30
HETATM   30  O   UNK     0      10.827  17.624  20.033  0.00  0.00    -0.358 OA
HETATM   31  H   UNK     0      10.579  18.456  20.473  0.00  0.00     0.217 HD
ENDBRANCH  25  30
ENDBRANCH  16  22
BRANCH  20  32
HETATM   32  O   UNK     0      18.696  12.863  25.460  0.00  0.00    -0.360 OA
HETATM   33  H   UNK     0      19.072  12.151  26.001  0.00  0.00     0.217 HD
ENDBRANCH  20  32
ENDBRANCH  10  11
ENDBRANCH   6  10
BRANCH   3  34
HETATM   34  O   UNK     0      13.868  16.236  31.415  0.00  0.00    -0.390 OA
HETATM   35  H   UNK     0      13.125  16.755  31.063  0.00  0.00     0.210 HD
ENDBRANCH   3  34
BRANCH   4  36
HETATM   36  O   UNK     0      16.493  12.316  30.551  0.00  0.00    -0.388 OA
HETATM   37  H   UNK     0      16.288  11.480  30.098  0.00  0.00     0.210 HD
ENDBRANCH   4  36
BRANCH   2  38
HETATM   38  O   UNK     0      16.551  15.163  31.307  0.00  0.00    -0.390 OA
HETATM   39  H   UNK     0      17.270  14.887  30.713  0.00  0.00     0.210 HD
ENDBRANCH   2  38
TORSDOF 11
ENDMDL
