MODEL 1
REMARK VINA RESULT:    -6.479      0.000      0.000
REMARK INTER + INTRA:          -8.508
REMARK INTER:                  -7.672
REMARK INTRA:                  -0.836
REMARK CONF_INDEPENDENT:        1.193
REMARK UNBOUND:                -0.836
REMARK SMILES O=c1cc(-c2ccc(O)cc2)oc2cc(O)cc(O)c12
REMARK SMILES IDX 12 1 1 2 20 3 13 4 4 5 2 6 3 7 18 8 14 9 15 10 17 11 5 16
REMARK SMILES IDX 6 17 11 18 7 19 10 20 8 21 9 22 19 27 16 32
REMARK H PARENT 9 23 19 28 16 33
REMARK Flexibility Score: inf
ROOT
ATOM      1  O   UNL     1       0.717  -2.582  -1.156  1.00  0.00    -0.456 OA
ATOM      2  O   UNL     1      -1.347  -0.242   1.462  1.00  0.00    -0.289 OA
ATOM      3  C   UNL     1      -1.126  -2.345   0.407  1.00  0.00     0.107 A 
ATOM      4  C   UNL     1      -0.375  -3.090  -0.499  1.00  0.00     0.146 A 
ATOM      5  C   UNL     1       1.082  -1.267  -0.912  1.00  0.00     0.138 A 
ATOM      6  C   UNL     1      -0.736  -0.952   0.677  1.00  0.00     0.197 A 
ATOM      7  C   UNL     1       0.444  -0.452  -0.056  1.00  0.00     0.100 A 
ATOM      8  C   UNL     1      -2.229  -2.914   1.048  1.00  0.00     0.134 A 
ATOM      9  C   UNL     1      -0.723  -4.413  -0.771  1.00  0.00     0.094 A 
ATOM     10  C   UNL     1      -1.823  -4.986  -0.134  1.00  0.00     0.123 A 
ATOM     11  C   UNL     1      -2.576  -4.238   0.774  1.00  0.00     0.093 A 
ATOM     12 WAT  UNL     1      -0.038  -2.640  -4.060  1.00  0.00     0.000 W 
ATOM     13 WAT  UNL     1       3.032  -4.218  -0.176  1.00  0.00     0.000 W 
ATOM     14 WAT  UNL     1      -0.460   2.585   1.933  1.00  0.00     0.000 W 
ATOM     15 WAT  UNL     1      -3.736  -1.325   2.919  1.00  0.00     0.000 W 
ENDROOT
BRANCH   5  16
ATOM     16  C   UNL     1       2.272  -0.825  -1.665  1.00  0.00     0.018 A 
ATOM     17  C   UNL     1       3.481  -1.515  -1.535  1.00  0.00     0.016 A 
ATOM     18  C   UNL     1       2.196   0.283  -2.512  1.00  0.00     0.016 A 
ATOM     19  C   UNL     1       4.605  -1.098  -2.248  1.00  0.00     0.047 A 
ATOM     20  C   UNL     1       3.320   0.699  -3.224  1.00  0.00     0.047 A 
ATOM     21  C   UNL     1       4.526   0.009  -3.092  1.00  0.00     0.115 A 
BRANCH  21  22
ATOM     22  O   UNL     1       5.622   0.415  -3.788  1.00  0.00    -0.508 OA
ATOM     23  H   UNL     1       5.332   0.939  -4.555  1.00  0.00     0.293 HD
ATOM     24 WAT  UNL     1       6.936  -2.057  -4.866  1.00  0.00     0.000 W 
ATOM     25 WAT  UNL     1       7.156   2.270  -1.996  1.00  0.00     0.000 W 
ATOM     26 WAT  UNL     1       4.737   2.015  -6.132  1.00  0.00     0.000 W 
ENDBRANCH  21  22
ENDBRANCH   5  16
BRANCH   8  27
ATOM     27  O   UNL     1      -2.994  -2.228   1.942  1.00  0.00    -0.507 OA
ATOM     28  H   UNL     1      -3.193  -1.340   1.608  1.00  0.00     0.293 HD
ATOM     29 WAT  UNL     1      -1.315  -1.861   4.400  1.00  0.00     0.000 W 
ATOM     30 WAT  UNL     1      -5.613  -3.681   2.117  1.00  0.00     0.000 W 
ATOM     31 WAT  UNL     1      -3.603   0.493   0.920  1.00  0.00     0.000 W 
ENDBRANCH   8  27
BRANCH  10  32
ATOM     32  O   UNL     1      -2.165  -6.278  -0.397  1.00  0.00    -0.508 OA
ATOM     33  H   UNL     1      -2.939  -6.285  -0.987  1.00  0.00     0.293 HD
ATOM     34 WAT  UNL     1      -3.038  -7.494   2.202  1.00  0.00     0.000 W 
ATOM     35 WAT  UNL     1       0.112  -7.487  -1.930  1.00  0.00     0.000 W 
ATOM     36 WAT  UNL     1      -4.529  -6.301  -2.199  1.00  0.00     0.000 W 
ENDBRANCH  10  32
TORSDOF 4
ENDMDL
MODEL 2
REMARK VINA RESULT:    -6.274      2.141      5.076
REMARK INTER + INTRA:          -8.289
REMARK INTER:                  -7.468
REMARK INTRA:                  -0.822
REMARK CONF_INDEPENDENT:        1.193
REMARK UNBOUND:                -0.822
REMARK SMILES O=c1cc(-c2ccc(O)cc2)oc2cc(O)cc(O)c12
REMARK SMILES IDX 12 1 1 2 20 3 13 4 4 5 2 6 3 7 18 8 14 9 15 10 17 11 5 16
REMARK SMILES IDX 6 17 11 18 7 19 10 20 8 21 9 22 19 27 16 32
REMARK H PARENT 9 23 19 28 16 33
REMARK Flexibility Score: inf
ROOT
ATOM      1  O   UNL     1      -0.107  -1.114  -0.005  1.00  0.00    -0.456 OA
ATOM      2  O   UNL     1      -0.208  -4.893  -1.524  1.00  0.00    -0.289 OA
ATOM      3  C   UNL     1      -1.124  -3.320  -0.017  1.00  0.00     0.107 A 
ATOM      4  C   UNL     1      -1.035  -2.013   0.458  1.00  0.00     0.146 A 
ATOM      5  C   UNL     1       0.786  -1.530  -0.981  1.00  0.00     0.138 A 
ATOM      6  C   UNL     1      -0.185  -3.762  -1.060  1.00  0.00     0.197 A 
ATOM      7  C   UNL     1       0.796  -2.759  -1.522  1.00  0.00     0.100 A 
ATOM      8  C   UNL     1      -2.090  -4.191   0.491  1.00  0.00     0.134 A 
ATOM      9  C   UNL     1      -1.914  -1.568   1.445  1.00  0.00     0.094 A 
ATOM     10  C   UNL     1      -2.881  -2.435   1.955  1.00  0.00     0.123 A 
ATOM     11  C   UNL     1      -2.968  -3.745   1.479  1.00  0.00     0.093 A 
ATOM     12 WAT  UNL     1       1.603  -0.482   2.378  1.00  0.00     0.000 W 
ATOM     13 WAT  UNL     1      -1.720   1.052  -1.310  1.00  0.00     0.000 W 
ATOM     14 WAT  UNL     1       1.757  -5.683  -3.648  1.00  0.00     0.000 W 
ATOM     15 WAT  UNL     1      -2.230  -6.879  -0.538  1.00  0.00     0.000 W 
ENDROOT
BRANCH   5  16
ATOM     16  C   UNL     1       1.736  -0.484  -1.410  1.00  0.00     0.018 A 
ATOM     17  C   UNL     1       2.997  -0.839  -1.897  1.00  0.00     0.016 A 
ATOM     18  C   UNL     1       1.378   0.863  -1.332  1.00  0.00     0.016 A 
ATOM     19  C   UNL     1       3.894   0.149  -2.303  1.00  0.00     0.047 A 
ATOM     20  C   UNL     1       2.276   1.851  -1.738  1.00  0.00     0.047 A 
ATOM     21  C   UNL     1       3.534   1.494  -2.223  1.00  0.00     0.115 A 
BRANCH  21  22
ATOM     22  O   UNL     1       4.408   2.458  -2.620  1.00  0.00    -0.508 OA
ATOM     23  H   UNL     1       4.658   2.994  -1.847  1.00  0.00     0.293 HD
ATOM     24 WAT  UNL     1       2.922   4.267  -4.495  1.00  0.00     0.000 W 
ATOM     25 WAT  UNL     1       6.894   1.054  -3.544  1.00  0.00     0.000 W 
ATOM     26 WAT  UNL     1       5.170   4.097  -0.260  1.00  0.00     0.000 W 
ENDBRANCH  21  22
ENDBRANCH   5  16
BRANCH   8  27
ATOM     27  O   UNL     1      -2.218  -5.477   0.059  1.00  0.00    -0.507 OA
ATOM     28  H   UNL     1      -2.217  -5.512  -0.910  1.00  0.00     0.293 HD
ATOM     29 WAT  UNL     1      -4.926  -6.412   0.949  1.00  0.00     0.000 W 
ATOM     30 WAT  UNL     1       0.245  -6.931   0.967  1.00  0.00     0.000 W 
ATOM     31 WAT  UNL     1      -2.218  -5.586  -2.909  1.00  0.00     0.000 W 
ENDBRANCH   8  27
BRANCH  10  32
ATOM     32  O   UNL     1      -3.741  -2.004   2.919  1.00  0.00    -0.508 OA
ATOM     33  H   UNL     1      -3.443  -1.136   3.242  1.00  0.00     0.293 HD
ATOM     34 WAT  UNL     1      -3.505  -3.920   5.215  1.00  0.00     0.000 W 
ATOM     35 WAT  UNL     1      -6.395  -1.574   1.589  1.00  0.00     0.000 W 
ATOM     36 WAT  UNL     1      -2.830   0.647   3.908  1.00  0.00     0.000 W 
ENDBRANCH  10  32
TORSDOF 4
ENDMDL
MODEL 3
REMARK VINA RESULT:    -6.270      2.130      5.047
REMARK INTER + INTRA:          -8.285
REMARK INTER:                  -7.463
REMARK INTRA:                  -0.822
REMARK CONF_INDEPENDENT:        1.193
REMARK UNBOUND:                -0.822
REMARK SMILES O=c1cc(-c2ccc(O)cc2)oc2cc(O)cc(O)c12
REMARK SMILES IDX 12 1 1 2 20 3 13 4 4 5 2 6 3 7 18 8 14 9 15 10 17 11 5 16
REMARK SMILES IDX 6 17 11 18 7 19 10 20 8 21 9 22 19 27 16 32
REMARK H PARENT 9 23 19 28 16 33
REMARK Flexibility Score: inf
ROOT
ATOM      1  O   UNL     1      -0.110  -1.119  -0.019  1.00  0.00    -0.456 OA
ATOM      2  O   UNL     1      -0.209  -4.904  -1.522  1.00  0.00    -0.289 OA
ATOM      3  C   UNL     1      -1.125  -3.325  -0.021  1.00  0.00     0.107 A 
ATOM      4  C   UNL     1      -1.037  -2.016   0.448  1.00  0.00     0.146 A 
ATOM      5  C   UNL     1       0.782  -1.538  -0.994  1.00  0.00     0.138 A 
ATOM      6  C   UNL     1      -0.187  -3.771  -1.063  1.00  0.00     0.197 A 
ATOM      7  C   UNL     1       0.793  -2.769  -1.530  1.00  0.00     0.100 A 
ATOM      8  C   UNL     1      -2.090  -4.195   0.491  1.00  0.00     0.134 A 
ATOM      9  C   UNL     1      -1.916  -1.567   1.434  1.00  0.00     0.094 A 
ATOM     10  C   UNL     1      -2.881  -2.433   1.949  1.00  0.00     0.123 A 
ATOM     11  C   UNL     1      -2.968  -3.745   1.478  1.00  0.00     0.093 A 
ATOM     12 WAT  UNL     1       1.602  -0.475   2.360  1.00  0.00     0.000 W 
ATOM     13 WAT  UNL     1      -1.725   1.041  -1.332  1.00  0.00     0.000 W 
ATOM     14 WAT  UNL     1       1.754  -5.702  -3.644  1.00  0.00     0.000 W 
ATOM     15 WAT  UNL     1      -2.229  -6.887  -0.526  1.00  0.00     0.000 W 
ENDROOT
BRANCH   5  16
ATOM     16  C   UNL     1       1.731  -0.494  -1.428  1.00  0.00     0.018 A 
ATOM     17  C   UNL     1       3.000  -0.848  -1.894  1.00  0.00     0.016 A 
ATOM     18  C   UNL     1       1.364   0.853  -1.377  1.00  0.00     0.016 A 
ATOM     19  C   UNL     1       3.896   0.139  -2.305  1.00  0.00     0.047 A 
ATOM     20  C   UNL     1       2.261   1.839  -1.788  1.00  0.00     0.047 A 
ATOM     21  C   UNL     1       3.527   1.483  -2.252  1.00  0.00     0.115 A 
BRANCH  21  22
ATOM     22  O   UNL     1       4.401   2.445  -2.653  1.00  0.00    -0.508 OA
ATOM     23  H   UNL     1       4.770   2.883  -1.866  1.00  0.00     0.293 HD
ATOM     24 WAT  UNL     1       2.805   4.509  -4.134  1.00  0.00     0.000 W 
ATOM     25 WAT  UNL     1       6.676   1.045  -4.019  1.00  0.00     0.000 W 
ATOM     26 WAT  UNL     1       5.528   3.785  -0.251  1.00  0.00     0.000 W 
ENDBRANCH  21  22
ENDBRANCH   5  16
BRANCH   8  27
ATOM     27  O   UNL     1      -2.218  -5.483   0.066  1.00  0.00    -0.507 OA
ATOM     28  H   UNL     1      -2.218  -5.522  -0.903  1.00  0.00     0.293 HD
ATOM     29 WAT  UNL     1      -4.924  -6.415   0.961  1.00  0.00     0.000 W 
ATOM     30 WAT  UNL     1       0.246  -6.932   0.978  1.00  0.00     0.000 W 
ATOM     31 WAT  UNL     1      -2.219  -5.605  -2.902  1.00  0.00     0.000 W 
ENDBRANCH   8  27
BRANCH  10  32
ATOM     32  O   UNL     1      -3.741  -1.998   2.911  1.00  0.00    -0.508 OA
ATOM     33  H   UNL     1      -4.613  -1.842   2.509  1.00  0.00     0.293 HD
ATOM     34 WAT  UNL     1      -2.723   0.664   3.848  1.00  0.00     0.000 W 
ATOM     35 WAT  UNL     1      -4.073  -4.250   4.864  1.00  0.00     0.000 W 
ATOM     36 WAT  UNL     1      -6.404  -1.521   1.681  1.00  0.00     0.000 W 
ENDBRANCH  10  32
TORSDOF 4
ENDMDL
MODEL 4
REMARK VINA RESULT:    -6.253      1.191      2.237
REMARK INTER + INTRA:          -8.315
REMARK INTER:                  -7.446
REMARK INTRA:                  -0.868
REMARK CONF_INDEPENDENT:        1.193
REMARK UNBOUND:                -0.868
REMARK SMILES O=c1cc(-c2ccc(O)cc2)oc2cc(O)cc(O)c12
REMARK SMILES IDX 12 1 1 2 20 3 13 4 4 5 2 6 3 7 18 8 14 9 15 10 17 11 5 16
REMARK SMILES IDX 6 17 11 18 7 19 10 20 8 21 9 22 19 27 16 32
REMARK H PARENT 9 23 19 28 16 33
REMARK Flexibility Score: inf
ROOT
ATOM      1  O   UNL     1       0.729  -2.263  -1.615  1.00  0.00    -0.456 OA
ATOM      2  O   UNL     1      -0.782  -0.861   1.899  1.00  0.00    -0.289 OA
ATOM      3  C   UNL     1      -0.796  -2.557   0.253  1.00  0.00     0.107 A 
ATOM      4  C   UNL     1      -0.236  -2.978  -0.951  1.00  0.00     0.146 A 
ATOM      5  C   UNL     1       1.158  -1.064  -1.066  1.00  0.00     0.138 A 
ATOM      6  C   UNL     1      -0.336  -1.290   0.844  1.00  0.00     0.197 A 
ATOM      7  C   UNL     1       0.701  -0.557   0.090  1.00  0.00     0.100 A 
ATOM      8  C   UNL     1      -1.774  -3.327   0.884  1.00  0.00     0.134 A 
ATOM      9  C   UNL     1      -0.652  -4.176  -1.532  1.00  0.00     0.094 A 
ATOM     10  C   UNL     1      -1.629  -4.949  -0.905  1.00  0.00     0.123 A 
ATOM     11  C   UNL     1      -2.190  -4.524   0.302  1.00  0.00     0.093 A 
ATOM     12 WAT  UNL     1      -0.541  -1.500  -4.224  1.00  0.00     0.000 W 
ATOM     13 WAT  UNL     1       3.152  -4.031  -1.587  1.00  0.00     0.000 W 
ATOM     14 WAT  UNL     1       0.230   1.735   3.010  1.00  0.00     0.000 W 
ATOM     15 WAT  UNL     1      -2.887  -2.406   3.377  1.00  0.00     0.000 W 
ENDROOT
BRANCH   5  16
ATOM     16  C   UNL     1       2.199  -0.381  -1.857  1.00  0.00     0.018 A 
ATOM     17  C   UNL     1       1.879   0.755  -2.607  1.00  0.00     0.016 A 
ATOM     18  C   UNL     1       3.510  -0.864  -1.859  1.00  0.00     0.016 A 
ATOM     19  C   UNL     1       2.864   1.402  -3.353  1.00  0.00     0.047 A 
ATOM     20  C   UNL     1       4.494  -0.217  -2.607  1.00  0.00     0.047 A 
ATOM     21  C   UNL     1       4.171   0.916  -3.354  1.00  0.00     0.115 A 
BRANCH  21  22
ATOM     22  O   UNL     1       5.132   1.547  -4.082  1.00  0.00    -0.508 OA
ATOM     23  H   UNL     1       5.588   2.190  -3.511  1.00  0.00     0.293 HD
ATOM     24 WAT  UNL     1       3.720   3.117  -6.214  1.00  0.00     0.000 W 
ATOM     25 WAT  UNL     1       7.157  -0.532  -4.844  1.00  0.00     0.000 W 
ATOM     26 WAT  UNL     1       6.524   3.512  -2.340  1.00  0.00     0.000 W 
ENDBRANCH  21  22
ENDBRANCH   5  16
BRANCH   8  27
ATOM     27  O   UNL     1      -2.352  -2.958   2.062  1.00  0.00    -0.507 OA
ATOM     28  H   UNL     1      -1.772  -2.353   2.550  1.00  0.00     0.293 HD
ATOM     29 WAT  UNL     1      -2.577  -5.448   3.720  1.00  0.00     0.000 W 
ATOM     30 WAT  UNL     1      -4.814  -1.397   1.355  1.00  0.00     0.000 W 
ATOM     31 WAT  UNL     1      -0.577  -1.104   3.557  1.00  0.00     0.000 W 
ENDBRANCH   8  27
BRANCH  10  32
ATOM     32  O   UNL     1      -2.038  -6.119  -1.469  1.00  0.00    -0.508 OA
ATOM     33  H   UNL     1      -2.595  -5.919  -2.241  1.00  0.00     0.293 HD
ATOM     34 WAT  UNL     1      -3.793  -7.488   0.542  1.00  0.00     0.000 W 
ATOM     35 WAT  UNL     1       0.420  -7.495  -2.499  1.00  0.00     0.000 W 
ATOM     36 WAT  UNL     1      -3.740  -5.508  -3.829  1.00  0.00     0.000 W 
ENDBRANCH  10  32
TORSDOF 4
ENDMDL
MODEL 5
REMARK VINA RESULT:    -6.252      2.125      5.117
REMARK INTER + INTRA:          -8.272
REMARK INTER:                  -7.446
REMARK INTRA:                  -0.827
REMARK CONF_INDEPENDENT:        1.193
REMARK UNBOUND:                -0.827
REMARK SMILES O=c1cc(-c2ccc(O)cc2)oc2cc(O)cc(O)c12
REMARK SMILES IDX 12 1 1 2 20 3 13 4 4 5 2 6 3 7 18 8 14 9 15 10 17 11 5 16
REMARK SMILES IDX 6 17 11 18 7 19 10 20 8 21 9 22 19 27 16 32
REMARK H PARENT 9 23 19 28 16 33
REMARK Flexibility Score: inf
ROOT
ATOM      1  O   UNL     1      -0.111  -1.103   0.007  1.00  0.00    -0.456 OA
ATOM      2  O   UNL     1      -0.211  -4.872  -1.535  1.00  0.00    -0.289 OA
ATOM      3  C   UNL     1      -1.126  -3.309  -0.017  1.00  0.00     0.107 A 
ATOM      4  C   UNL     1      -1.037  -2.005   0.466  1.00  0.00     0.146 A 
ATOM      5  C   UNL     1       0.781  -1.512  -0.973  1.00  0.00     0.138 A 
ATOM      6  C   UNL     1      -0.189  -3.744  -1.064  1.00  0.00     0.197 A 
ATOM      7  C   UNL     1       0.790  -2.737  -1.522  1.00  0.00     0.100 A 
ATOM      8  C   UNL     1      -2.091  -4.184   0.487  1.00  0.00     0.134 A 
ATOM      9  C   UNL     1      -1.915  -1.567   1.457  1.00  0.00     0.094 A 
ATOM     10  C   UNL     1      -2.880  -2.438   1.964  1.00  0.00     0.123 A 
ATOM     11  C   UNL     1      -2.967  -3.745   1.479  1.00  0.00     0.093 A 
ATOM     12 WAT  UNL     1       1.603  -0.485   2.391  1.00  0.00     0.000 W 
ATOM     13 WAT  UNL     1      -1.727   1.070  -1.282  1.00  0.00     0.000 W 
ATOM     14 WAT  UNL     1       1.750  -5.648  -3.668  1.00  0.00     0.000 W 
ATOM     15 WAT  UNL     1      -2.230  -6.865  -0.558  1.00  0.00     0.000 W 
ENDROOT
BRANCH   5  16
ATOM     16  C   UNL     1       1.729  -0.463  -1.397  1.00  0.00     0.018 A 
ATOM     17  C   UNL     1       2.981  -0.814  -1.909  1.00  0.00     0.016 A 
ATOM     18  C   UNL     1       1.378   0.885  -1.290  1.00  0.00     0.016 A 
ATOM     19  C   UNL     1       3.877   0.177  -2.310  1.00  0.00     0.047 A 
ATOM     20  C   UNL     1       2.275   1.876  -1.691  1.00  0.00     0.047 A 
ATOM     21  C   UNL     1       3.524   1.522  -2.201  1.00  0.00     0.115 A 
BRANCH  21  22
ATOM     22  O   UNL     1       4.397   2.489  -2.593  1.00  0.00    -0.508 OA
ATOM     23  H   UNL     1       4.735   2.947  -1.804  1.00  0.00     0.293 HD
ATOM     24 WAT  UNL     1       2.822   4.502  -4.165  1.00  0.00     0.000 W 
ATOM     25 WAT  UNL     1       6.734   1.095  -3.858  1.00  0.00     0.000 W 
ATOM     26 WAT  UNL     1       5.428   3.890  -0.183  1.00  0.00     0.000 W 
ENDBRANCH  21  22
ENDBRANCH   5  16
BRANCH   8  27
ATOM     27  O   UNL     1      -2.218  -5.468   0.048  1.00  0.00    -0.507 OA
ATOM     28  H   UNL     1      -2.219  -5.497  -0.921  1.00  0.00     0.293 HD
ATOM     29 WAT  UNL     1      -4.925  -6.409   0.934  1.00  0.00     0.000 W 
ATOM     30 WAT  UNL     1       0.246  -6.926   0.944  1.00  0.00     0.000 W 
ATOM     31 WAT  UNL     1      -2.220  -5.559  -2.921  1.00  0.00     0.000 W 
ENDBRANCH   8  27
BRANCH  10  32
ATOM     32  O   UNL     1      -3.739  -2.014   2.931  1.00  0.00    -0.508 OA
ATOM     33  H   UNL     1      -3.838  -2.717   3.596  1.00  0.00     0.293 HD
ATOM     34 WAT  UNL     1      -6.417  -1.663   1.626  1.00  0.00     0.000 W 
ATOM     35 WAT  UNL     1      -2.425   0.306   4.306  1.00  0.00     0.000 W 
ATOM     36 WAT  UNL     1      -4.041  -4.163   4.962  1.00  0.00     0.000 W 
ENDBRANCH  10  32
TORSDOF 4
ENDMDL
MODEL 6
REMARK VINA RESULT:    -5.916      1.899      4.951
REMARK INTER + INTRA:          -7.956
REMARK INTER:                  -7.109
REMARK INTRA:                  -0.848
REMARK CONF_INDEPENDENT:        1.193
REMARK UNBOUND:                -0.848
REMARK SMILES O=c1cc(-c2ccc(O)cc2)oc2cc(O)cc(O)c12
REMARK SMILES IDX 12 1 1 2 20 3 13 4 4 5 2 6 3 7 18 8 14 9 15 10 17 11 5 16
REMARK SMILES IDX 6 17 11 18 7 19 10 20 8 21 9 22 19 27 16 32
REMARK H PARENT 9 23 19 28 16 33
REMARK Flexibility Score: inf
ROOT
ATOM      1  O   UNL     1      -0.132  -0.814   0.263  1.00  0.00    -0.456 OA
ATOM      2  O   UNL     1      -1.401  -4.683   0.138  1.00  0.00    -0.289 OA
ATOM      3  C   UNL     1      -1.711  -2.506   1.002  1.00  0.00     0.107 A 
ATOM      4  C   UNL     1      -1.225  -1.200   0.998  1.00  0.00     0.146 A 
ATOM      5  C   UNL     1       0.520  -1.770  -0.501  1.00  0.00     0.138 A 
ATOM      6  C   UNL     1      -1.028  -3.520   0.184  1.00  0.00     0.197 A 
ATOM      7  C   UNL     1       0.144  -3.056  -0.586  1.00  0.00     0.100 A 
ATOM      8  C   UNL     1      -2.829  -2.841   1.768  1.00  0.00     0.134 A 
ATOM      9  C   UNL     1      -1.856  -0.219   1.763  1.00  0.00     0.094 A 
ATOM     10  C   UNL     1      -2.973  -0.549   2.530  1.00  0.00     0.123 A 
ATOM     11  C   UNL     1      -3.459  -1.859   2.534  1.00  0.00     0.093 A 
ATOM     12 WAT  UNL     1       1.893   0.053   2.300  1.00  0.00     0.000 W 
ATOM     13 WAT  UNL     1      -1.201   1.162  -1.724  1.00  0.00     0.000 W 
ATOM     14 WAT  UNL     1       0.071  -6.666  -1.564  1.00  0.00     0.000 W 
ATOM     15 WAT  UNL     1      -3.792  -5.556   1.727  1.00  0.00     0.000 W 
ENDROOT
BRANCH   5  16
ATOM     16  C   UNL     1       1.677  -1.247  -1.254  1.00  0.00     0.018 A 
ATOM     17  C   UNL     1       2.924  -1.871  -1.147  1.00  0.00     0.016 A 
ATOM     18  C   UNL     1       1.532  -0.128  -2.077  1.00  0.00     0.016 A 
ATOM     19  C   UNL     1       4.017  -1.377  -1.860  1.00  0.00     0.047 A 
ATOM     20  C   UNL     1       2.625   0.365  -2.789  1.00  0.00     0.047 A 
ATOM     21  C   UNL     1       3.868  -0.259  -2.680  1.00  0.00     0.115 A 
BRANCH  21  22
ATOM     22  O   UNL     1       4.934   0.221  -3.375  1.00  0.00    -0.508 OA
ATOM     23  H   UNL     1       4.656   1.010  -3.873  1.00  0.00     0.293 HD
ATOM     24 WAT  UNL     1       5.673  -1.870  -5.396  1.00  0.00     0.000 W 
ATOM     25 WAT  UNL     1       6.955   1.134  -1.355  1.00  0.00     0.000 W 
ATOM     26 WAT  UNL     1       4.085   2.630  -4.896  1.00  0.00     0.000 W 
ENDBRANCH  21  22
ENDBRANCH   5  16
BRANCH   8  27
ATOM     27  O   UNL     1      -3.343  -4.102   1.805  1.00  0.00    -0.507 OA
ATOM     28  H   UNL     1      -3.343  -4.495   0.919  1.00  0.00     0.293 HD
ATOM     29 WAT  UNL     1      -6.217  -3.832   2.620  1.00  0.00     0.000 W 
ATOM     30 WAT  UNL     1      -1.460  -5.743   3.468  1.00  0.00     0.000 W 
ATOM     31 WAT  UNL     1      -3.343  -5.307  -0.909  1.00  0.00     0.000 W 
ENDBRANCH   8  27
BRANCH  10  32
ATOM     32  O   UNL     1      -3.592   0.406   3.278  1.00  0.00    -0.508 OA
ATOM     33  H   UNL     1      -4.555   0.301   3.191  1.00  0.00     0.293 HD
ATOM     34 WAT  UNL     1      -2.890   3.055   2.058  1.00  0.00     0.000 W 
ATOM     35 WAT  UNL     1      -2.909  -0.153   6.145  1.00  0.00     0.000 W 
ATOM     36 WAT  UNL     1      -6.535   0.084   3.011  1.00  0.00     0.000 W 
ENDBRANCH  10  32
TORSDOF 4
ENDMDL
MODEL 7
REMARK VINA RESULT:    -5.842      2.445      3.139
REMARK INTER + INTRA:          -7.903
REMARK INTER:                  -7.035
REMARK INTRA:                  -0.867
REMARK CONF_INDEPENDENT:        1.193
REMARK UNBOUND:                -0.867
REMARK SMILES O=c1cc(-c2ccc(O)cc2)oc2cc(O)cc(O)c12
REMARK SMILES IDX 12 1 1 2 20 3 13 4 4 5 2 6 3 7 18 8 14 9 15 10 17 11 5 16
REMARK SMILES IDX 6 17 11 18 7 19 10 20 8 21 9 22 19 27 16 32
REMARK H PARENT 9 23 19 28 16 33
REMARK Flexibility Score: inf
ROOT
ATOM      1  O   UNL     1       0.783  -2.350  -1.572  1.00  0.00    -0.456 OA
ATOM      2  O   UNL     1       0.977  -2.887   2.462  1.00  0.00    -0.289 OA
ATOM      3  C   UNL     1       0.085  -3.597   0.392  1.00  0.00     0.107 A 
ATOM      4  C   UNL     1       0.065  -3.359  -0.980  1.00  0.00     0.146 A 
ATOM      5  C   UNL     1       1.555  -1.528  -0.765  1.00  0.00     0.138 A 
ATOM      6  C   UNL     1       0.911  -2.734   1.251  1.00  0.00     0.197 A 
ATOM      7  C   UNL     1       1.662  -1.661   0.567  1.00  0.00     0.100 A 
ATOM      8  C   UNL     1      -0.666  -4.640   0.939  1.00  0.00     0.134 A 
ATOM      9  C   UNL     1      -0.708  -4.164  -1.817  1.00  0.00     0.094 A 
ATOM     10  C   UNL     1      -1.460  -5.207  -1.275  1.00  0.00     0.123 A 
ATOM     11  C   UNL     1      -1.440  -5.444   0.101  1.00  0.00     0.093 A 
ATOM     12 WAT  UNL     1      -1.286  -0.532  -2.763  1.00  0.00     0.000 W 
ATOM     13 WAT  UNL     1       2.751  -3.750  -3.350  1.00  0.00     0.000 W 
ATOM     14 WAT  UNL     1       2.694  -1.064   4.112  1.00  0.00     0.000 W 
ATOM     15 WAT  UNL     1      -0.576  -5.087   3.783  1.00  0.00     0.000 W 
ENDROOT
BRANCH   5  16
ATOM     16  C   UNL     1       2.289  -0.482  -1.503  1.00  0.00     0.018 A 
ATOM     17  C   UNL     1       3.419  -0.816  -2.255  1.00  0.00     0.016 A 
ATOM     18  C   UNL     1       1.858   0.845  -1.455  1.00  0.00     0.016 A 
ATOM     19  C   UNL     1       4.112   0.173  -2.954  1.00  0.00     0.047 A 
ATOM     20  C   UNL     1       2.551   1.833  -2.153  1.00  0.00     0.047 A 
ATOM     21  C   UNL     1       3.679   1.498  -2.902  1.00  0.00     0.115 A 
BRANCH  21  22
ATOM     22  O   UNL     1       4.355   2.462  -3.584  1.00  0.00    -0.508 OA
ATOM     23  H   UNL     1       4.621   3.160  -2.961  1.00  0.00     0.293 HD
ATOM     24 WAT  UNL     1       2.409   3.700  -5.503  1.00  0.00     0.000 W 
ATOM     25 WAT  UNL     1       6.877   1.201  -4.610  1.00  0.00     0.000 W 
ATOM     26 WAT  UNL     1       5.168   4.596  -1.681  1.00  0.00     0.000 W 
ENDBRANCH  21  22
ENDBRANCH   5  16
BRANCH   8  27
ATOM     27  O   UNL     1      -0.680  -4.913   2.274  1.00  0.00    -0.507 OA
ATOM     28  H   UNL     1      -0.439  -4.125   2.785  1.00  0.00     0.293 HD
ATOM     29 WAT  UNL     1       1.482  -6.936   2.754  1.00  0.00     0.000 W 
ATOM     30 WAT  UNL     1      -3.523  -5.557   2.985  1.00  0.00     0.000 W 
ATOM     31 WAT  UNL     1       0.057  -2.500   3.840  1.00  0.00     0.000 W 
ENDBRANCH   8  27
BRANCH  10  32
ATOM     32  O   UNL     1      -2.216  -5.995  -2.089  1.00  0.00    -0.508 OA
ATOM     33  H   UNL     1      -2.754  -5.427  -2.667  1.00  0.00     0.293 HD
ATOM     34 WAT  UNL     1      -4.122  -7.494  -0.322  1.00  0.00     0.000 W 
ATOM     35 WAT  UNL     1      -0.316  -7.495  -3.860  1.00  0.00     0.000 W 
ATOM     36 WAT  UNL     1      -3.859  -4.260  -3.857  1.00  0.00     0.000 W 
ENDBRANCH  10  32
TORSDOF 4
ENDMDL
MODEL 8
REMARK VINA RESULT:    -5.394      2.333      9.018
REMARK INTER + INTRA:          -7.440
REMARK INTER:                  -6.587
REMARK INTRA:                  -0.853
REMARK CONF_INDEPENDENT:        1.193
REMARK UNBOUND:                -0.853
REMARK SMILES O=c1cc(-c2ccc(O)cc2)oc2cc(O)cc(O)c12
REMARK SMILES IDX 12 1 1 2 20 3 13 4 4 5 2 6 3 7 18 8 14 9 15 10 17 11 5 16
REMARK SMILES IDX 6 17 11 18 7 19 10 20 8 21 9 22 19 27 16 32
REMARK H PARENT 9 23 19 28 16 33
REMARK Flexibility Score: inf
ROOT
ATOM      1  O   UNL     1       0.610  -1.054  -0.949  1.00  0.00    -0.456 OA
ATOM      2  O   UNL     1       4.295  -2.075   0.455  1.00  0.00    -0.289 OA
ATOM      3  C   UNL     1       3.025  -0.866  -1.129  1.00  0.00     0.107 A 
ATOM      4  C   UNL     1       1.735  -0.557  -1.557  1.00  0.00     0.146 A 
ATOM      5  C   UNL     1       0.765  -1.907   0.133  1.00  0.00     0.138 A 
ATOM      6  C   UNL     1       3.194  -1.763   0.025  1.00  0.00     0.197 A 
ATOM      7  C   UNL     1       1.953  -2.273   0.642  1.00  0.00     0.100 A 
ATOM      8  C   UNL     1       4.134  -0.330  -1.786  1.00  0.00     0.134 A 
ATOM      9  C   UNL     1       1.547   0.293  -2.647  1.00  0.00     0.094 A 
ATOM     10  C   UNL     1       2.653   0.830  -3.307  1.00  0.00     0.123 A 
ATOM     11  C   UNL     1       3.945   0.519  -2.877  1.00  0.00     0.093 A 
ATOM     12 WAT  UNL     1      -0.727  -2.721  -3.055  1.00  0.00     0.000 W 
ATOM     13 WAT  UNL     1      -0.787   1.355   0.166  1.00  0.00     0.000 W 
ATOM     14 WAT  UNL     1       4.519  -3.913   2.815  1.00  0.00     0.000 W 
ATOM     15 WAT  UNL     1       6.775  -1.000  -0.848  1.00  0.00     0.000 W 
ENDROOT
BRANCH   5  16
ATOM     16  C   UNL     1      -0.508  -2.377   0.713  1.00  0.00     0.018 A 
ATOM     17  C   UNL     1      -1.276  -1.520   1.507  1.00  0.00     0.016 A 
ATOM     18  C   UNL     1      -0.951  -3.679   0.472  1.00  0.00     0.016 A 
ATOM     19  C   UNL     1      -2.479  -1.964   2.055  1.00  0.00     0.047 A 
ATOM     20  C   UNL     1      -2.154  -4.123   1.020  1.00  0.00     0.047 A 
ATOM     21  C   UNL     1      -2.919  -3.266   1.812  1.00  0.00     0.115 A 
BRANCH  21  22
ATOM     22  O   UNL     1      -4.093  -3.699   2.346  1.00  0.00    -0.508 OA
ATOM     23  H   UNL     1      -4.382  -4.494   1.866  1.00  0.00     0.293 HD
ATOM     24 WAT  UNL     1      -6.134  -1.566   1.809  1.00  0.00     0.000 W 
ATOM     25 WAT  UNL     1      -3.512  -4.543   5.166  1.00  0.00     0.000 W 
ATOM     26 WAT  UNL     1      -4.978  -6.130   0.882  1.00  0.00     0.000 W 
ENDBRANCH  21  22
ENDBRANCH   5  16
BRANCH   8  27
ATOM     27  O   UNL     1       5.414  -0.601  -1.406  1.00  0.00    -0.507 OA
ATOM     28  H   UNL     1       5.486  -1.511  -1.078  1.00  0.00     0.293 HD
ATOM     29 WAT  UNL     1       6.016   1.197   0.918  1.00  0.00     0.000 W 
ATOM     30 WAT  UNL     1       7.092  -0.456  -3.889  1.00  0.00     0.000 W 
ATOM     31 WAT  UNL     1       5.635  -3.387  -0.400  1.00  0.00     0.000 W 
ENDBRANCH   8  27
BRANCH  10  32
ATOM     32  O   UNL     1       2.473   1.660  -4.371  1.00  0.00    -0.508 OA
ATOM     33  H   UNL     1       2.464   1.130  -5.187  1.00  0.00     0.293 HD
ATOM     34 WAT  UNL     1       4.887   3.435  -4.509  1.00  0.00     0.000 W 
ATOM     35 WAT  UNL     1      -0.260   2.863  -4.086  1.00  0.00     0.000 W 
ATOM     36 WAT  UNL     1       2.448   0.040  -6.863  1.00  0.00     0.000 W 
ENDBRANCH  10  32
TORSDOF 4
ENDMDL
