MODEL 1
REMARK VINA RESULT:    -5.741      0.000      0.000
REMARK INTER + INTRA:          -6.846
REMARK INTER:                  -6.747
REMARK INTRA:                  -0.098
REMARK UNBOUND:                -0.098
REMARK  Name = 7431
REMARK  4 active torsions:
REMARK  status: ('A' for Active; 'I' for Inactive)
REMARK    1  A    between atoms: O_3  and  C_12
REMARK    2  A    between atoms: O_4  and  C_13
REMARK    3  A    between atoms: C_7  and  C_12
REMARK    4  A    between atoms: C_8  and  C_13
REMARK                            x       y       z     vdW  Elec       q    Type
REMARK                         _______ _______ _______ _____ _____    ______ ____
ROOT
ATOM      1  O   UNL     1     -34.063  15.294  56.166  0.00  0.00    +0.000 OA
ATOM      2  O   UNL     1     -36.138  17.411  53.409  0.00  0.00    +0.000 OA
ATOM      3  C   UNL     1     -34.160  14.858  54.860  0.00  0.00    +0.000 A 
ATOM      4  C   UNL     1     -34.694  16.473  56.503  0.00  0.00    +0.000 A 
ATOM      5  C   UNL     1     -34.827  15.503  53.896  0.00  0.00    +0.000 A 
ATOM      6  C   UNL     1     -35.397  17.225  55.648  0.00  0.00    +0.000 A 
ATOM      7  C   UNL     1     -35.509  16.770  54.244  0.00  0.00    +0.000 A 
ENDROOT
BRANCH   3   9
ATOM      8  O   UNL     1     -33.758  12.519  54.993  0.00  0.00    +0.000 OA
ATOM      9  C   UNL     1     -33.486  13.607  54.514  0.00  0.00    +0.000 C 
BRANCH   9  10
ATOM     10  O   UNL     1     -32.529  13.845  53.592  0.00  0.00    +0.000 OA
ATOM     11  H   UNL     1     -31.694  13.373  53.797  0.00  0.00    +0.000 HD
ENDBRANCH   9  10
ENDBRANCH   3   9
BRANCH   4  13
ATOM     12  O   UNL     1     -35.369  16.634  58.776  0.00  0.00    +0.000 OA
ATOM     13  C   UNL     1     -34.584  16.925  57.889  0.00  0.00    +0.000 C 
BRANCH  13  14
ATOM     14  O   UNL     1     -33.490  17.704  58.029  0.00  0.00    +0.000 OA
ATOM     15  H   UNL     1     -33.721  18.620  58.294  0.00  0.00    +0.000 HD
ENDBRANCH  13  14
ENDBRANCH   4  13
TORSDOF 4
ENDMDL
MODEL 2
REMARK VINA RESULT:    -5.736      0.098      4.017
REMARK INTER + INTRA:          -6.840
REMARK INTER:                  -6.742
REMARK INTRA:                  -0.098
REMARK UNBOUND:                -0.098
REMARK  Name = 7431
REMARK  4 active torsions:
REMARK  status: ('A' for Active; 'I' for Inactive)
REMARK    1  A    between atoms: O_3  and  C_12
REMARK    2  A    between atoms: O_4  and  C_13
REMARK    3  A    between atoms: C_7  and  C_12
REMARK    4  A    between atoms: C_8  and  C_13
REMARK                            x       y       z     vdW  Elec       q    Type
REMARK                         _______ _______ _______ _____ _____    ______ ____
ROOT
ATOM      1  O   UNL     1     -34.090  15.253  56.165  0.00  0.00    +0.000 OA
ATOM      2  O   UNL     1     -36.267  17.352  53.473  0.00  0.00    +0.000 OA
ATOM      3  C   UNL     1     -34.741  16.414  56.527  0.00  0.00    +0.000 A 
ATOM      4  C   UNL     1     -34.204  14.829  54.857  0.00  0.00    +0.000 A 
ATOM      5  C   UNL     1     -35.477  17.160  55.695  0.00  0.00    +0.000 A 
ATOM      6  C   UNL     1     -34.904  15.469  53.913  0.00  0.00    +0.000 A 
ATOM      7  C   UNL     1     -35.607  16.716  54.289  0.00  0.00    +0.000 A 
ENDROOT
BRANCH   3   9
ATOM      8  O   UNL     1     -35.438  16.642  58.788  0.00  0.00    +0.000 OA
ATOM      9  C   UNL     1     -34.613  16.854  57.916  0.00  0.00    +0.000 C 
BRANCH   9  10
ATOM     10  O   UNL     1     -33.451  17.523  58.076  0.00  0.00    +0.000 OA
ATOM     11  H   UNL     1     -32.996  17.683  57.222  0.00  0.00    +0.000 HD
ENDBRANCH   9  10
ENDBRANCH   3   9
BRANCH   4  13
ATOM     12  O   UNL     1     -33.769  12.493  54.933  0.00  0.00    +0.000 OA
ATOM     13  C   UNL     1     -33.510  13.597  54.484  0.00  0.00    +0.000 C 
BRANCH  13  14
ATOM     14  O   UNL     1     -32.549  13.873  53.576  0.00  0.00    +0.000 OA
ATOM     15  H   UNL     1     -31.837  13.199  53.576  0.00  0.00    +0.000 HD
ENDBRANCH  13  14
ENDBRANCH   4  13
TORSDOF 4
ENDMDL
MODEL 3
REMARK VINA RESULT:    -5.689      2.693      4.354
REMARK INTER + INTRA:          -6.785
REMARK INTER:                  -6.674
REMARK INTRA:                  -0.111
REMARK UNBOUND:                -0.098
REMARK  Name = 7431
REMARK  4 active torsions:
REMARK  status: ('A' for Active; 'I' for Inactive)
REMARK    1  A    between atoms: O_3  and  C_12
REMARK    2  A    between atoms: O_4  and  C_13
REMARK    3  A    between atoms: C_7  and  C_12
REMARK    4  A    between atoms: C_8  and  C_13
REMARK                            x       y       z     vdW  Elec       q    Type
REMARK                         _______ _______ _______ _____ _____    ______ ____
ROOT
ATOM      1  O   UNL     1     -34.380  16.003  53.758  0.00  0.00    +0.000 OA
ATOM      2  O   UNL     1     -38.258  14.878  54.047  0.00  0.00    +0.000 OA
ATOM      3  C   UNL     1     -35.400  16.911  53.566  0.00  0.00    +0.000 A 
ATOM      4  C   UNL     1     -34.722  14.699  54.052  0.00  0.00    +0.000 A 
ATOM      5  C   UNL     1     -36.702  16.614  53.645  0.00  0.00    +0.000 A 
ATOM      6  C   UNL     1     -35.979  14.254  54.164  0.00  0.00    +0.000 A 
ATOM      7  C   UNL     1     -37.083  15.219  53.960  0.00  0.00    +0.000 A 
ENDROOT
BRANCH   3   9
ATOM      8  O   UNL     1     -35.179  19.236  54.008  0.00  0.00    +0.000 OA
ATOM      9  C   UNL     1     -35.025  18.290  53.254  0.00  0.00    +0.000 C 
BRANCH   9  10
ATOM     10  O   UNL     1     -34.490  18.348  52.016  0.00  0.00    +0.000 OA
ATOM     11  H   UNL     1     -35.166  18.531  51.330  0.00  0.00    +0.000 HD
ENDBRANCH   9  10
ENDBRANCH   3   9
BRANCH   4  13
ATOM     12  O   UNL     1     -33.706  12.748  54.953  0.00  0.00    +0.000 OA
ATOM     13  C   UNL     1     -33.633  13.745  54.254  0.00  0.00    +0.000 C 
BRANCH  13  14
ATOM     14  O   UNL     1     -32.547  14.137  53.553  0.00  0.00    +0.000 OA
ATOM     15  H   UNL     1     -32.120  13.389  53.085  0.00  0.00    +0.000 HD
ENDBRANCH  13  14
ENDBRANCH   4  13
TORSDOF 4
ENDMDL
MODEL 4
REMARK VINA RESULT:    -5.649      2.658      3.160
REMARK INTER + INTRA:          -6.738
REMARK INTER:                  -6.624
REMARK INTRA:                  -0.114
REMARK UNBOUND:                -0.098
REMARK  Name = 7431
REMARK  4 active torsions:
REMARK  status: ('A' for Active; 'I' for Inactive)
REMARK    1  A    between atoms: O_3  and  C_12
REMARK    2  A    between atoms: O_4  and  C_13
REMARK    3  A    between atoms: C_7  and  C_12
REMARK    4  A    between atoms: C_8  and  C_13
REMARK                            x       y       z     vdW  Elec       q    Type
REMARK                         _______ _______ _______ _____ _____    ______ ____
ROOT
ATOM      1  O   UNL     1     -34.429  15.942  53.834  0.00  0.00    +0.000 OA
ATOM      2  O   UNL     1     -38.291  14.741  54.000  0.00  0.00    +0.000 OA
ATOM      3  C   UNL     1     -34.754  14.629  54.106  0.00  0.00    +0.000 A 
ATOM      4  C   UNL     1     -35.461  16.833  53.621  0.00  0.00    +0.000 A 
ATOM      5  C   UNL     1     -36.005  14.159  54.177  0.00  0.00    +0.000 A 
ATOM      6  C   UNL     1     -36.759  16.510  53.660  0.00  0.00    +0.000 A 
ATOM      7  C   UNL     1     -37.121  15.104  53.950  0.00  0.00    +0.000 A 
ENDROOT
BRANCH   3   9
ATOM      8  O   UNL     1     -33.723  12.696  55.028  0.00  0.00    +0.000 OA
ATOM      9  C   UNL     1     -33.653  13.694  54.331  0.00  0.00    +0.000 C 
BRANCH   9  10
ATOM     10  O   UNL     1     -32.560  14.106  53.653  0.00  0.00    +0.000 OA
ATOM     11  H   UNL     1     -32.740  14.906  53.114  0.00  0.00    +0.000 HD
ENDBRANCH   9  10
ENDBRANCH   3   9
BRANCH   4  13
ATOM     12  O   UNL     1     -35.491  19.183  53.976  0.00  0.00    +0.000 OA
ATOM     13  C   UNL     1     -35.104  18.221  53.334  0.00  0.00    +0.000 C 
BRANCH  13  14
ATOM     14  O   UNL     1     -34.289  18.269  52.258  0.00  0.00    +0.000 OA
ATOM     15  H   UNL     1     -34.790  18.358  51.419  0.00  0.00    +0.000 HD
ENDBRANCH  13  14
ENDBRANCH   4  13
TORSDOF 4
ENDMDL
MODEL 5
REMARK VINA RESULT:    -5.593      2.749      4.268
REMARK INTER + INTRA:          -6.672
REMARK INTER:                  -6.551
REMARK INTRA:                  -0.122
REMARK UNBOUND:                -0.098
REMARK  Name = 7431
REMARK  4 active torsions:
REMARK  status: ('A' for Active; 'I' for Inactive)
REMARK    1  A    between atoms: O_3  and  C_12
REMARK    2  A    between atoms: O_4  and  C_13
REMARK    3  A    between atoms: C_7  and  C_12
REMARK    4  A    between atoms: C_8  and  C_13
REMARK                            x       y       z     vdW  Elec       q    Type
REMARK                         _______ _______ _______ _____ _____    ______ ____
ROOT
ATOM      1  O   UNL     1     -36.074  13.672  54.365  0.00  0.00    +0.000 OA
ATOM      2  O   UNL     1     -35.735  17.576  53.350  0.00  0.00    +0.000 OA
ATOM      3  C   UNL     1     -37.192  14.457  54.175  0.00  0.00    +0.000 A 
ATOM      4  C   UNL     1     -34.837  14.259  54.197  0.00  0.00    +0.000 A 
ATOM      5  C   UNL     1     -37.159  15.753  53.840  0.00  0.00    +0.000 A 
ATOM      6  C   UNL     1     -34.646  15.540  53.863  0.00  0.00    +0.000 A 
ATOM      7  C   UNL     1     -35.837  16.394  53.657  0.00  0.00    +0.000 A 
ENDROOT
BRANCH   3   9
ATOM      8  O   UNL     1     -39.522  14.177  53.792  0.00  0.00    +0.000 OA
ATOM      9  C   UNL     1     -38.499  13.826  54.355  0.00  0.00    +0.000 C 
BRANCH   9  10
ATOM     10  O   UNL     1     -38.393  12.804  55.232  0.00  0.00    +0.000 OA
ATOM     11  H   UNL     1     -38.422  11.931  54.787  0.00  0.00    +0.000 HD
ENDBRANCH   9  10
ENDBRANCH   3   9
BRANCH   4  13
ATOM     12  O   UNL     1     -33.655  12.367  55.022  0.00  0.00    +0.000 OA
ATOM     13  C   UNL     1     -33.658  13.417  54.400  0.00  0.00    +0.000 C 
BRANCH  13  14
ATOM     14  O   UNL     1     -32.588  13.979  53.799  0.00  0.00    +0.000 OA
ATOM     15  H   UNL     1     -32.543  13.759  52.844  0.00  0.00    +0.000 HD
ENDBRANCH  13  14
ENDBRANCH   4  13
TORSDOF 4
ENDMDL
MODEL 6
REMARK VINA RESULT:    -5.577      2.752      3.692
REMARK INTER + INTRA:          -6.653
REMARK INTER:                  -6.532
REMARK INTRA:                  -0.121
REMARK UNBOUND:                -0.098
REMARK  Name = 7431
REMARK  4 active torsions:
REMARK  status: ('A' for Active; 'I' for Inactive)
REMARK    1  A    between atoms: O_3  and  C_12
REMARK    2  A    between atoms: O_4  and  C_13
REMARK    3  A    between atoms: C_7  and  C_12
REMARK    4  A    between atoms: C_8  and  C_13
REMARK                            x       y       z     vdW  Elec       q    Type
REMARK                         _______ _______ _______ _____ _____    ______ ____
ROOT
ATOM      1  O   UNL     1     -36.079  13.652  54.400  0.00  0.00    +0.000 OA
ATOM      2  O   UNL     1     -35.769  17.545  53.336  0.00  0.00    +0.000 OA
ATOM      3  C   UNL     1     -34.846  14.242  54.215  0.00  0.00    +0.000 A 
ATOM      4  C   UNL     1     -37.203  14.429  54.211  0.00  0.00    +0.000 A 
ATOM      5  C   UNL     1     -34.665  15.521  53.864  0.00  0.00    +0.000 A 
ATOM      6  C   UNL     1     -37.179  15.720  53.860  0.00  0.00    +0.000 A 
ATOM      7  C   UNL     1     -35.863  16.366  53.658  0.00  0.00    +0.000 A 
ENDROOT
BRANCH   3   9
ATOM      8  O   UNL     1     -33.650  12.362  55.042  0.00  0.00    +0.000 OA
ATOM      9  C   UNL     1     -33.661  13.409  54.417  0.00  0.00    +0.000 C 
BRANCH   9  10
ATOM     10  O   UNL     1     -32.596  13.976  53.811  0.00  0.00    +0.000 OA
ATOM     11  H   UNL     1     -32.472  14.911  54.081  0.00  0.00    +0.000 HD
ENDBRANCH   9  10
ENDBRANCH   3   9
BRANCH   4  13
ATOM     12  O   UNL     1     -39.516  14.077  53.791  0.00  0.00    +0.000 OA
ATOM     13  C   UNL     1     -38.504  13.793  54.409  0.00  0.00    +0.000 C 
BRANCH  13  14
ATOM     14  O   UNL     1     -38.409  12.852  55.374  0.00  0.00    +0.000 OA
ATOM     15  H   UNL     1     -39.192  12.262  55.393  0.00  0.00    +0.000 HD
ENDBRANCH  13  14
ENDBRANCH   4  13
TORSDOF 4
ENDMDL
MODEL 7
REMARK VINA RESULT:    -5.497      1.323      3.300
REMARK INTER + INTRA:          -6.560
REMARK INTER:                  -6.456
REMARK INTRA:                  -0.104
REMARK UNBOUND:                -0.098
REMARK  Name = 7431
REMARK  4 active torsions:
REMARK  status: ('A' for Active; 'I' for Inactive)
REMARK    1  A    between atoms: O_3  and  C_12
REMARK    2  A    between atoms: O_4  and  C_13
REMARK    3  A    between atoms: C_7  and  C_12
REMARK    4  A    between atoms: C_8  and  C_13
REMARK                            x       y       z     vdW  Elec       q    Type
REMARK                         _______ _______ _______ _____ _____    ______ ____
ROOT
ATOM      1  O   UNL     1     -34.445  15.838  53.454  0.00  0.00    +0.000 OA
ATOM      2  O   UNL     1     -35.100  16.291  57.423  0.00  0.00    +0.000 OA
ATOM      3  C   UNL     1     -34.182  14.814  54.339  0.00  0.00    +0.000 A 
ATOM      4  C   UNL     1     -34.939  17.021  53.962  0.00  0.00    +0.000 A 
ATOM      5  C   UNL     1     -34.372  14.890  55.662  0.00  0.00    +0.000 A 
ATOM      6  C   UNL     1     -35.180  17.245  55.260  0.00  0.00    +0.000 A 
ATOM      7  C   UNL     1     -34.902  16.154  56.221  0.00  0.00    +0.000 A 
ENDROOT
BRANCH   3   9
ATOM      8  O   UNL     1     -34.098  12.456  54.048  0.00  0.00    +0.000 OA
ATOM      9  C   UNL     1     -33.659  13.564  53.789  0.00  0.00    +0.000 C 
BRANCH   9  10
ATOM     10  O   UNL     1     -32.626  13.828  52.960  0.00  0.00    +0.000 OA
ATOM     11  H   UNL     1     -32.360  14.772  52.991  0.00  0.00    +0.000 HD
ENDBRANCH   9  10
ENDBRANCH   3   9
BRANCH   4  13
ATOM     12  O   UNL     1     -36.327  18.412  52.624  0.00  0.00    +0.000 OA
ATOM     13  C   UNL     1     -35.215  18.100  53.015  0.00  0.00    +0.000 C 
BRANCH  13  14
ATOM     14  O   UNL     1     -34.057  18.690  52.646  0.00  0.00    +0.000 OA
ATOM     15  H   UNL     1     -34.035  19.641  52.881  0.00  0.00    +0.000 HD
ENDBRANCH  13  14
ENDBRANCH   4  13
TORSDOF 4
ENDMDL
MODEL 8
REMARK VINA RESULT:    -5.366     19.087     21.288
REMARK INTER + INTRA:          -6.405
REMARK INTER:                  -6.287
REMARK INTRA:                  -0.118
REMARK UNBOUND:                -0.098
REMARK  Name = 7431
REMARK  4 active torsions:
REMARK  status: ('A' for Active; 'I' for Inactive)
REMARK    1  A    between atoms: O_3  and  C_12
REMARK    2  A    between atoms: O_4  and  C_13
REMARK    3  A    between atoms: C_7  and  C_12
REMARK    4  A    between atoms: C_8  and  C_13
REMARK                            x       y       z     vdW  Elec       q    Type
REMARK                         _______ _______ _______ _____ _____    ______ ____
ROOT
ATOM      1  O   UNL     1     -26.739  -3.481  58.841  0.00  0.00    +0.000 OA
ATOM      2  O   UNL     1     -23.494  -1.823  60.604  0.00  0.00    +0.000 OA
ATOM      3  C   UNL     1     -26.087  -2.410  58.266  0.00  0.00    +0.000 A 
ATOM      4  C   UNL     1     -26.251  -3.970  60.035  0.00  0.00    +0.000 A 
ATOM      5  C   UNL     1     -25.011  -1.811  58.789  0.00  0.00    +0.000 A 
ATOM      6  C   UNL     1     -25.186  -3.475  60.676  0.00  0.00    +0.000 A 
ATOM      7  C   UNL     1     -24.477  -2.325  60.070  0.00  0.00    +0.000 A 
ENDROOT
BRANCH   3   9
ATOM      8  O   UNL     1     -27.304  -2.542  56.228  0.00  0.00    +0.000 OA
ATOM      9  C   UNL     1     -26.613  -1.900  57.001  0.00  0.00    +0.000 C 
BRANCH   9  10
ATOM     10  O   UNL     1     -26.217  -0.620  56.825  0.00  0.00    +0.000 OA
ATOM     11  H   UNL     1     -25.525  -0.357  57.469  0.00  0.00    +0.000 HD
ENDBRANCH   9  10
ENDBRANCH   3   9
BRANCH   4  13
ATOM     12  O   UNL     1     -26.401  -6.049  61.178  0.00  0.00    +0.000 OA
ATOM     13  C   UNL     1     -26.950  -5.106  60.635  0.00  0.00    +0.000 C 
BRANCH  13  14
ATOM     14  O   UNL     1     -28.284  -4.945  60.494  0.00  0.00    +0.000 OA
ATOM     15  H   UNL     1     -28.527  -4.012  60.319  0.00  0.00    +0.000 HD
ENDBRANCH  13  14
ENDBRANCH   4  13
TORSDOF 4
ENDMDL
MODEL 9
REMARK VINA RESULT:    -5.318     25.282     27.051
REMARK INTER + INTRA:          -6.348
REMARK INTER:                  -6.243
REMARK INTRA:                  -0.106
REMARK UNBOUND:                -0.098
REMARK  Name = 7431
REMARK  4 active torsions:
REMARK  status: ('A' for Active; 'I' for Inactive)
REMARK    1  A    between atoms: O_3  and  C_12
REMARK    2  A    between atoms: O_4  and  C_13
REMARK    3  A    between atoms: C_7  and  C_12
REMARK    4  A    between atoms: C_8  and  C_13
REMARK                            x       y       z     vdW  Elec       q    Type
REMARK                         _______ _______ _______ _____ _____    ______ ____
ROOT
ATOM      1  O   UNL     1     -42.769  -0.795  35.836  0.00  0.00    +0.000 OA
ATOM      2  O   UNL     1     -45.729   1.963  35.697  0.00  0.00    +0.000 OA
ATOM      3  C   UNL     1     -44.025  -1.122  35.369  0.00  0.00    +0.000 A 
ATOM      4  C   UNL     1     -42.553   0.502  36.255  0.00  0.00    +0.000 A 
ATOM      5  C   UNL     1     -45.051  -0.267  35.294  0.00  0.00    +0.000 A 
ATOM      6  C   UNL     1     -43.481   1.466  36.238  0.00  0.00    +0.000 A 
ATOM      7  C   UNL     1     -44.833   1.128  35.739  0.00  0.00    +0.000 A 
ENDROOT
BRANCH   3   9
ATOM      8  O   UNL     1     -44.225  -3.473  35.662  0.00  0.00    +0.000 OA
ATOM      9  C   UNL     1     -44.243  -2.500  34.928  0.00  0.00    +0.000 C 
BRANCH   9  10
ATOM     10  O   UNL     1     -44.463  -2.522  33.596  0.00  0.00    +0.000 OA
ATOM     11  H   UNL     1     -44.572  -1.620  33.225  0.00  0.00    +0.000 HD
ENDBRANCH   9  10
ENDBRANCH   3   9
BRANCH   4  13
ATOM     12  O   UNL     1     -40.995   1.465  37.770  0.00  0.00    +0.000 OA
ATOM     13  C   UNL     1     -41.218   0.838  36.748  0.00  0.00    +0.000 C 
BRANCH  13  14
ATOM     14  O   UNL     1     -40.284   0.351  35.903  0.00  0.00    +0.000 OA
ATOM     15  H   UNL     1     -40.512  -0.546  35.579  0.00  0.00    +0.000 HD
ENDBRANCH  13  14
ENDBRANCH   4  13
TORSDOF 4
ENDMDL
MODEL 10
REMARK VINA RESULT:    -5.214      1.983      4.886
REMARK INTER + INTRA:          -6.227
REMARK INTER:                  -6.120
REMARK INTRA:                  -0.107
REMARK UNBOUND:                -0.098
REMARK  Name = 7431
REMARK  4 active torsions:
REMARK  status: ('A' for Active; 'I' for Inactive)
REMARK    1  A    between atoms: O_3  and  C_12
REMARK    2  A    between atoms: O_4  and  C_13
REMARK    3  A    between atoms: C_7  and  C_12
REMARK    4  A    between atoms: C_8  and  C_13
REMARK                            x       y       z     vdW  Elec       q    Type
REMARK                         _______ _______ _______ _____ _____    ______ ____
ROOT
ATOM      1  O   UNL     1     -34.975  17.202  55.393  0.00  0.00    +0.000 OA
ATOM      2  O   UNL     1     -34.928  17.109  59.440  0.00  0.00    +0.000 OA
ATOM      3  C   UNL     1     -35.116  18.358  56.132  0.00  0.00    +0.000 A 
ATOM      4  C   UNL     1     -34.817  16.014  56.075  0.00  0.00    +0.000 A 
ATOM      5  C   UNL     1     -35.111  18.405  57.470  0.00  0.00    +0.000 A 
ATOM      6  C   UNL     1     -34.792  15.904  57.409  0.00  0.00    +0.000 A 
ATOM      7  C   UNL     1     -34.942  17.137  58.214  0.00  0.00    +0.000 A 
ENDROOT
BRANCH   3   9
ATOM      8  O   UNL     1     -34.842  19.825  54.282  0.00  0.00    +0.000 OA
ATOM      9  C   UNL     1     -35.283  19.612  55.399  0.00  0.00    +0.000 C 
BRANCH   9  10
ATOM     10  O   UNL     1     -35.992  20.485  56.146  0.00  0.00    +0.000 OA
ATOM     11  H   UNL     1     -36.706  20.917  55.630  0.00  0.00    +0.000 HD
ENDBRANCH   9  10
ENDBRANCH   3   9
BRANCH   4  13
ATOM     12  O   UNL     1     -35.597  14.124  54.860  0.00  0.00    +0.000 OA
ATOM     13  C   UNL     1     -34.669  14.794  55.281  0.00  0.00    +0.000 C 
BRANCH  13  14
ATOM     14  O   UNL     1     -33.358  14.532  55.091  0.00  0.00    +0.000 OA
ATOM     15  H   UNL     1     -32.817  14.765  55.875  0.00  0.00    +0.000 HD
ENDBRANCH  13  14
ENDBRANCH   4  13
TORSDOF 4
ENDMDL
