MODEL 1
REMARK VINA RESULT:    -7.246      0.000      0.000
REMARK INTER + INTRA:         -10.903
REMARK INTER:                 -10.211
REMARK INTRA:                  -0.692
REMARK UNBOUND:                -0.692
REMARK  Name = 341
REMARK  10 active torsions:
REMARK  status: ('A' for Active; 'I' for Inactive)
REMARK    1  A    between atoms: O_1  and  C_10
REMARK    2  A    between atoms: O_1  and  C_19
REMARK    3  A    between atoms: O_2  and  C_12
REMARK    4  A    between atoms: O_3  and  C_15
REMARK    5  A    between atoms: O_4  and  C_20
REMARK    6  A    between atoms: O_5  and  C_21
REMARK    7  A    between atoms: O_6  and  C_22
REMARK    8  A    between atoms: O_8  and  C_23
REMARK    9  A    between atoms: C_11  and  C_19
REMARK   10  A    between atoms: C_13  and  C_23
REMARK                            x       y       z     vdW  Elec       q    Type
REMARK                         _______ _______ _______ _____ _____    ______ ____
ROOT
ATOM      1  O   UNL     1     -35.809  16.754  57.112  0.00  0.00    +0.000 OA
ENDROOT
BRANCH   1   2
ATOM      2  C   UNL     1     -35.297  16.357  55.874  0.00  0.00    +0.000 A 
ATOM      3  C   UNL     1     -35.199  17.281  54.856  0.00  0.00    +0.000 A 
ATOM      4  C   UNL     1     -34.388  14.637  54.493  0.00  0.00    +0.000 A 
ATOM      5  C   UNL     1     -34.903  15.045  55.723  0.00  0.00    +0.000 A 
ATOM      6  C   UNL     1     -34.684  16.871  53.626  0.00  0.00    +0.000 A 
ATOM      7  C   UNL     1     -34.278  15.550  53.445  0.00  0.00    +0.000 A 
BRANCH   3   8
ATOM      8  O   UNL     1     -35.596  18.573  55.034  0.00  0.00    +0.000 OA
ATOM      9  H   UNL     1     -34.855  19.070  55.422  0.00  0.00    +0.000 HD
ENDBRANCH   3   8
BRANCH   6  10
ATOM     10  O   UNL     1     -34.569  17.756  52.596  0.00  0.00    +0.000 OA
ATOM     11  H   UNL     1     -34.445  18.649  52.958  0.00  0.00    +0.000 HD
ENDBRANCH   6  10
BRANCH   4  13
ATOM     12  O   UNL     1     -34.030  12.627  53.245  0.00  0.00    +0.000 OA
ATOM     13  C   UNL     1     -33.962  13.259  54.305  0.00  0.00    +0.000 C 
BRANCH  13  14
ATOM     14  O   UNL     1     -33.462  12.707  55.444  0.00  0.00    +0.000 OA
ATOM     15  H   UNL     1     -33.722  13.216  56.242  0.00  0.00    +0.000 HD
ENDBRANCH  13  14
ENDBRANCH   4  13
ENDBRANCH   1   2
BRANCH   1  17
ATOM     16  O   UNL     1     -33.713  17.273  57.988  0.00  0.00    +0.000 OA
ATOM     17  C   UNL     1     -34.858  16.823  58.127  0.00  0.00    +0.000 C 
BRANCH  17  18
ATOM     18  C   UNL     1     -35.391  16.304  59.377  0.00  0.00    +0.000 A 
ATOM     19  C   UNL     1     -35.599  14.934  59.530  0.00  0.00    +0.000 A 
ATOM     20  C   UNL     1     -35.697  17.177  60.422  0.00  0.00    +0.000 A 
ATOM     21  C   UNL     1     -36.211  16.679  61.619  0.00  0.00    +0.000 A 
ATOM     22  C   UNL     1     -36.113  14.435  60.728  0.00  0.00    +0.000 A 
ATOM     23  C   UNL     1     -36.418  15.308  61.772  0.00  0.00    +0.000 A 
BRANCH  21  24
ATOM     24  O   UNL     1     -36.507  17.542  62.630  0.00  0.00    +0.000 OA
ATOM     25  H   UNL     1     -36.590  18.436  62.254  0.00  0.00    +0.000 HD
ENDBRANCH  21  24
BRANCH  22  26
ATOM     26  O   UNL     1     -36.314  13.095  60.864  0.00  0.00    +0.000 OA
ATOM     27  H   UNL     1     -36.894  12.786  60.146  0.00  0.00    +0.000 HD
ENDBRANCH  22  26
BRANCH  23  28
ATOM     28  O   UNL     1     -36.921  14.821  62.942  0.00  0.00    +0.000 OA
ATOM     29  H   UNL     1     -37.335  15.554  63.428  0.00  0.00    +0.000 HD
ENDBRANCH  23  28
ENDBRANCH  17  18
ENDBRANCH   1  17
TORSDOF 10
ENDMDL
MODEL 2
REMARK VINA RESULT:    -7.235      0.046      1.736
REMARK INTER + INTRA:         -10.887
REMARK INTER:                 -10.211
REMARK INTRA:                  -0.676
REMARK UNBOUND:                -0.692
REMARK  Name = 341
REMARK  10 active torsions:
REMARK  status: ('A' for Active; 'I' for Inactive)
REMARK    1  A    between atoms: O_1  and  C_10
REMARK    2  A    between atoms: O_1  and  C_19
REMARK    3  A    between atoms: O_2  and  C_12
REMARK    4  A    between atoms: O_3  and  C_15
REMARK    5  A    between atoms: O_4  and  C_20
REMARK    6  A    between atoms: O_5  and  C_21
REMARK    7  A    between atoms: O_6  and  C_22
REMARK    8  A    between atoms: O_8  and  C_23
REMARK    9  A    between atoms: C_11  and  C_19
REMARK   10  A    between atoms: C_13  and  C_23
REMARK                            x       y       z     vdW  Elec       q    Type
REMARK                         _______ _______ _______ _____ _____    ______ ____
ROOT
ATOM      1  O   UNL     1     -35.827  16.736  57.145  0.00  0.00    +0.000 OA
ENDROOT
BRANCH   1   2
ATOM      2  C   UNL     1     -35.311  16.351  55.906  0.00  0.00    +0.000 A 
ATOM      3  C   UNL     1     -35.225  17.280  54.892  0.00  0.00    +0.000 A 
ATOM      4  C   UNL     1     -34.383  14.647  54.516  0.00  0.00    +0.000 A 
ATOM      5  C   UNL     1     -34.902  15.044  55.748  0.00  0.00    +0.000 A 
ATOM      6  C   UNL     1     -34.706  16.883  53.660  0.00  0.00    +0.000 A 
ATOM      7  C   UNL     1     -34.285  15.567  53.471  0.00  0.00    +0.000 A 
BRANCH   3   8
ATOM      8  O   UNL     1     -35.637  18.567  55.076  0.00  0.00    +0.000 OA
ATOM      9  H   UNL     1     -36.581  18.556  55.308  0.00  0.00    +0.000 HD
ENDBRANCH   3   8
BRANCH   6  10
ATOM     10  O   UNL     1     -34.602  17.773  52.633  0.00  0.00    +0.000 OA
ATOM     11  H   UNL     1     -34.926  17.354  51.817  0.00  0.00    +0.000 HD
ENDBRANCH   6  10
BRANCH   4  13
ATOM     12  O   UNL     1     -33.985  12.654  53.253  0.00  0.00    +0.000 OA
ATOM     13  C   UNL     1     -33.942  13.276  54.321  0.00  0.00    +0.000 C 
BRANCH  13  14
ATOM     14  O   UNL     1     -33.456  12.717  55.462  0.00  0.00    +0.000 OA
ATOM     15  H   UNL     1     -32.487  12.571  55.415  0.00  0.00    +0.000 HD
ENDBRANCH  13  14
ENDBRANCH   4  13
ENDBRANCH   1   2
BRANCH   1  17
ATOM     16  O   UNL     1     -33.729  17.259  58.018  0.00  0.00    +0.000 OA
ATOM     17  C   UNL     1     -34.875  16.811  58.160  0.00  0.00    +0.000 C 
BRANCH  17  18
ATOM     18  C   UNL     1     -35.409  16.304  59.414  0.00  0.00    +0.000 A 
ATOM     19  C   UNL     1     -35.705  17.185  60.454  0.00  0.00    +0.000 A 
ATOM     20  C   UNL     1     -35.621  14.934  59.579  0.00  0.00    +0.000 A 
ATOM     21  C   UNL     1     -36.129  14.447  60.783  0.00  0.00    +0.000 A 
ATOM     22  C   UNL     1     -36.214  16.698  61.658  0.00  0.00    +0.000 A 
ATOM     23  C   UNL     1     -36.426  15.329  61.822  0.00  0.00    +0.000 A 
BRANCH  21  24
ATOM     24  O   UNL     1     -36.330  13.108  60.932  0.00  0.00    +0.000 OA
ATOM     25  H   UNL     1     -35.908  12.651  60.183  0.00  0.00    +0.000 HD
ENDBRANCH  21  24
BRANCH  22  26
ATOM     26  O   UNL     1     -36.497  17.569  62.666  0.00  0.00    +0.000 OA
ATOM     27  H   UNL     1     -37.211  17.199  63.215  0.00  0.00    +0.000 HD
ENDBRANCH  22  26
BRANCH  23  28
ATOM     28  O   UNL     1     -36.923  14.854  63.000  0.00  0.00    +0.000 OA
ATOM     29  H   UNL     1     -37.553  15.506  63.353  0.00  0.00    +0.000 HD
ENDBRANCH  23  28
ENDBRANCH  17  18
ENDBRANCH   1  17
TORSDOF 10
ENDMDL
MODEL 3
REMARK VINA RESULT:    -7.073      1.400      3.299
REMARK INTER + INTRA:         -10.659
REMARK INTER:                  -9.951
REMARK INTRA:                  -0.708
REMARK UNBOUND:                -0.692
REMARK  Name = 341
REMARK  10 active torsions:
REMARK  status: ('A' for Active; 'I' for Inactive)
REMARK    1  A    between atoms: O_1  and  C_10
REMARK    2  A    between atoms: O_1  and  C_19
REMARK    3  A    between atoms: O_2  and  C_12
REMARK    4  A    between atoms: O_3  and  C_15
REMARK    5  A    between atoms: O_4  and  C_20
REMARK    6  A    between atoms: O_5  and  C_21
REMARK    7  A    between atoms: O_6  and  C_22
REMARK    8  A    between atoms: O_8  and  C_23
REMARK    9  A    between atoms: C_11  and  C_19
REMARK   10  A    between atoms: C_13  and  C_23
REMARK                            x       y       z     vdW  Elec       q    Type
REMARK                         _______ _______ _______ _____ _____    ______ ____
ROOT
ATOM      1  O   UNL     1     -35.289  14.566  56.761  0.00  0.00    +0.000 OA
ENDROOT
BRANCH   1   2
ATOM      2  C   UNL     1     -34.839  14.985  55.506  0.00  0.00    +0.000 A 
ATOM      3  C   UNL     1     -33.985  14.174  54.791  0.00  0.00    +0.000 A 
ATOM      4  C   UNL     1     -34.834  16.631  53.779  0.00  0.00    +0.000 A 
ATOM      5  C   UNL     1     -35.275  16.203  55.031  0.00  0.00    +0.000 A 
ATOM      6  C   UNL     1     -33.544  14.603  53.539  0.00  0.00    +0.000 A 
ATOM      7  C   UNL     1     -33.968  15.831  53.033  0.00  0.00    +0.000 A 
BRANCH   3   8
ATOM      8  O   UNL     1     -33.570  12.973  55.286  0.00  0.00    +0.000 OA
ATOM      9  H   UNL     1     -33.266  13.107  56.200  0.00  0.00    +0.000 HD
ENDBRANCH   3   8
BRANCH   6  10
ATOM     10  O   UNL     1     -32.701  13.828  52.799  0.00  0.00    +0.000 OA
ATOM     11  H   UNL     1     -32.331  13.132  53.368  0.00  0.00    +0.000 HD
ENDBRANCH   6  10
BRANCH   4  13
ATOM     12  O   UNL     1     -36.282  18.528  53.620  0.00  0.00    +0.000 OA
ATOM     13  C   UNL     1     -35.278  17.911  53.250  0.00  0.00    +0.000 C 
BRANCH  13  14
ATOM     14  O   UNL     1     -34.456  18.386  52.275  0.00  0.00    +0.000 OA
ATOM     15  H   UNL     1     -33.510  18.252  52.497  0.00  0.00    +0.000 HD
ENDBRANCH  13  14
ENDBRANCH   4  13
ENDBRANCH   1   2
BRANCH   1  17
ATOM     16  O   UNL     1     -33.236  14.587  57.863  0.00  0.00    +0.000 OA
ATOM     17  C   UNL     1     -34.435  14.893  57.811  0.00  0.00    +0.000 C 
BRANCH  17  18
ATOM     18  C   UNL     1     -35.134  15.650  58.837  0.00  0.00    +0.000 A 
ATOM     19  C   UNL     1     -35.507  15.031  60.029  0.00  0.00    +0.000 A 
ATOM     20  C   UNL     1     -35.437  16.996  58.626  0.00  0.00    +0.000 A 
ATOM     21  C   UNL     1     -36.111  17.722  59.608  0.00  0.00    +0.000 A 
ATOM     22  C   UNL     1     -36.181  15.756  61.012  0.00  0.00    +0.000 A 
ATOM     23  C   UNL     1     -36.483  17.102  60.801  0.00  0.00    +0.000 A 
BRANCH  21  24
ATOM     24  O   UNL     1     -36.402  19.034  59.389  0.00  0.00    +0.000 OA
ATOM     25  H   UNL     1     -36.479  19.478  60.252  0.00  0.00    +0.000 HD
ENDBRANCH  21  24
BRANCH  22  26
ATOM     26  O   UNL     1     -36.540  15.139  62.172  0.00  0.00    +0.000 OA
ATOM     27  H   UNL     1     -36.688  15.812  62.858  0.00  0.00    +0.000 HD
ENDBRANCH  22  26
BRANCH  23  28
ATOM     28  O   UNL     1     -37.141  17.810  61.762  0.00  0.00    +0.000 OA
ATOM     29  H   UNL     1     -37.751  18.429  61.324  0.00  0.00    +0.000 HD
ENDBRANCH  23  28
ENDBRANCH  17  18
ENDBRANCH   1  17
TORSDOF 10
ENDMDL
MODEL 4
REMARK VINA RESULT:    -7.065      1.400      3.545
REMARK INTER + INTRA:         -10.648
REMARK INTER:                  -9.947
REMARK INTRA:                  -0.701
REMARK UNBOUND:                -0.692
REMARK  Name = 341
REMARK  10 active torsions:
REMARK  status: ('A' for Active; 'I' for Inactive)
REMARK    1  A    between atoms: O_1  and  C_10
REMARK    2  A    between atoms: O_1  and  C_19
REMARK    3  A    between atoms: O_2  and  C_12
REMARK    4  A    between atoms: O_3  and  C_15
REMARK    5  A    between atoms: O_4  and  C_20
REMARK    6  A    between atoms: O_5  and  C_21
REMARK    7  A    between atoms: O_6  and  C_22
REMARK    8  A    between atoms: O_8  and  C_23
REMARK    9  A    between atoms: C_11  and  C_19
REMARK   10  A    between atoms: C_13  and  C_23
REMARK                            x       y       z     vdW  Elec       q    Type
REMARK                         _______ _______ _______ _____ _____    ______ ____
ROOT
ATOM      1  O   UNL     1     -35.294  14.565  56.779  0.00  0.00    +0.000 OA
ENDROOT
BRANCH   1   2
ATOM      2  C   UNL     1     -34.846  14.984  55.524  0.00  0.00    +0.000 A 
ATOM      3  C   UNL     1     -33.983  14.179  54.812  0.00  0.00    +0.000 A 
ATOM      4  C   UNL     1     -34.854  16.624  53.791  0.00  0.00    +0.000 A 
ATOM      5  C   UNL     1     -35.293  16.196  55.044  0.00  0.00    +0.000 A 
ATOM      6  C   UNL     1     -33.545  14.608  53.559  0.00  0.00    +0.000 A 
ATOM      7  C   UNL     1     -33.981  15.830  53.049  0.00  0.00    +0.000 A 
BRANCH   3   8
ATOM      8  O   UNL     1     -33.558  12.984  55.311  0.00  0.00    +0.000 OA
ATOM      9  H   UNL     1     -32.887  12.621  54.708  0.00  0.00    +0.000 HD
ENDBRANCH   3   8
BRANCH   6  10
ATOM     10  O   UNL     1     -32.694  13.839  52.823  0.00  0.00    +0.000 OA
ATOM     11  H   UNL     1     -32.026  14.413  52.410  0.00  0.00    +0.000 HD
ENDBRANCH   6  10
BRANCH   4  13
ATOM     12  O   UNL     1     -36.280  18.542  53.673  0.00  0.00    +0.000 OA
ATOM     13  C   UNL     1     -35.311  17.898  53.258  0.00  0.00    +0.000 C 
BRANCH  13  14
ATOM     14  O   UNL     1     -34.544  18.334  52.221  0.00  0.00    +0.000 OA
ATOM     15  H   UNL     1     -33.587  18.206  52.395  0.00  0.00    +0.000 HD
ENDBRANCH  13  14
ENDBRANCH   4  13
ENDBRANCH   1   2
BRANCH   1  17
ATOM     16  O   UNL     1     -33.245  14.574  57.891  0.00  0.00    +0.000 OA
ATOM     17  C   UNL     1     -34.439  14.896  57.829  0.00  0.00    +0.000 C 
BRANCH  17  18
ATOM     18  C   UNL     1     -35.133  15.678  58.840  0.00  0.00    +0.000 A 
ATOM     19  C   UNL     1     -35.418  17.023  58.606  0.00  0.00    +0.000 A 
ATOM     20  C   UNL     1     -35.510  15.084  60.045  0.00  0.00    +0.000 A 
ATOM     21  C   UNL     1     -36.172  15.835  61.015  0.00  0.00    +0.000 A 
ATOM     22  C   UNL     1     -36.081  17.775  59.577  0.00  0.00    +0.000 A 
ATOM     23  C   UNL     1     -36.457  17.181  60.781  0.00  0.00    +0.000 A 
BRANCH  21  24
ATOM     24  O   UNL     1     -36.533  15.244  62.188  0.00  0.00    +0.000 OA
ATOM     25  H   UNL     1     -37.504  15.263  62.253  0.00  0.00    +0.000 HD
ENDBRANCH  21  24
BRANCH  22  26
ATOM     26  O   UNL     1     -36.351  19.088  59.337  0.00  0.00    +0.000 OA
ATOM     27  H   UNL     1     -35.539  19.530  59.033  0.00  0.00    +0.000 HD
ENDBRANCH  22  26
BRANCH  23  28
ATOM     28  O   UNL     1     -37.105  17.916  61.730  0.00  0.00    +0.000 OA
ATOM     29  H   UNL     1     -36.456  18.492  62.169  0.00  0.00    +0.000 HD
ENDBRANCH  23  28
ENDBRANCH  17  18
ENDBRANCH   1  17
TORSDOF 10
ENDMDL
MODEL 5
REMARK VINA RESULT:    -6.971      2.120      4.163
REMARK INTER + INTRA:         -10.516
REMARK INTER:                  -9.862
REMARK INTRA:                  -0.654
REMARK UNBOUND:                -0.692
REMARK  Name = 341
REMARK  10 active torsions:
REMARK  status: ('A' for Active; 'I' for Inactive)
REMARK    1  A    between atoms: O_1  and  C_10
REMARK    2  A    between atoms: O_1  and  C_19
REMARK    3  A    between atoms: O_2  and  C_12
REMARK    4  A    between atoms: O_3  and  C_15
REMARK    5  A    between atoms: O_4  and  C_20
REMARK    6  A    between atoms: O_5  and  C_21
REMARK    7  A    between atoms: O_6  and  C_22
REMARK    8  A    between atoms: O_8  and  C_23
REMARK    9  A    between atoms: C_11  and  C_19
REMARK   10  A    between atoms: C_13  and  C_23
REMARK                            x       y       z     vdW  Elec       q    Type
REMARK                         _______ _______ _______ _____ _____    ______ ____
ROOT
ATOM      1  O   UNL     1     -35.104  16.045  57.488  0.00  0.00    +0.000 OA
ENDROOT
BRANCH   1   2
ATOM      2  C   UNL     1     -34.807  15.876  56.133  0.00  0.00    +0.000 A 
ATOM      3  C   UNL     1     -34.140  14.741  55.725  0.00  0.00    +0.000 A 
ATOM      4  C   UNL     1     -34.911  16.702  53.897  0.00  0.00    +0.000 A 
ATOM      5  C   UNL     1     -35.200  16.860  55.253  0.00  0.00    +0.000 A 
ATOM      6  C   UNL     1     -33.850  14.584  54.370  0.00  0.00    +0.000 A 
ATOM      7  C   UNL     1     -34.236  15.564  53.456  0.00  0.00    +0.000 A 
BRANCH   3   8
ATOM      8  O   UNL     1     -33.763  13.783  56.619  0.00  0.00    +0.000 OA
ATOM      9  H   UNL     1     -33.210  14.201  57.302  0.00  0.00    +0.000 HD
ENDBRANCH   3   8
BRANCH   6  10
ATOM     10  O   UNL     1     -33.194  13.475  53.927  0.00  0.00    +0.000 OA
ATOM     11  H   UNL     1     -33.663  12.684  54.241  0.00  0.00    +0.000 HD
ENDBRANCH   6  10
BRANCH   4  13
ATOM     12  O   UNL     1     -36.481  18.013  52.656  0.00  0.00    +0.000 OA
ATOM     13  C   UNL     1     -35.315  17.723  52.944  0.00  0.00    +0.000 C 
BRANCH  13  14
ATOM     14  O   UNL     1     -34.252  18.357  52.376  0.00  0.00    +0.000 OA
ATOM     15  H   UNL     1     -34.531  18.974  51.667  0.00  0.00    +0.000 HD
ENDBRANCH  13  14
ENDBRANCH   4  13
ENDBRANCH   1   2
BRANCH   1  17
ATOM     16  O   UNL     1     -33.283  17.322  58.186  0.00  0.00    +0.000 OA
ATOM     17  C   UNL     1     -34.506  17.161  58.068  0.00  0.00    +0.000 C 
BRANCH  17  18
ATOM     18  C   UNL     1     -35.506  18.119  58.510  0.00  0.00    +0.000 A 
ATOM     19  C   UNL     1     -36.188  17.912  59.709  0.00  0.00    +0.000 A 
ATOM     20  C   UNL     1     -35.788  19.244  57.733  0.00  0.00    +0.000 A 
ATOM     21  C   UNL     1     -36.749  20.161  58.156  0.00  0.00    +0.000 A 
ATOM     22  C   UNL     1     -37.150  18.830  60.133  0.00  0.00    +0.000 A 
ATOM     23  C   UNL     1     -37.431  19.954  59.356  0.00  0.00    +0.000 A 
BRANCH  21  24
ATOM     24  O   UNL     1     -37.016  21.253  57.388  0.00  0.00    +0.000 OA
ATOM     25  H   UNL     1     -36.860  22.050  57.925  0.00  0.00    +0.000 HD
ENDBRANCH  21  24
BRANCH  22  26
ATOM     26  O   UNL     1     -37.810  18.615  61.305  0.00  0.00    +0.000 OA
ATOM     27  H   UNL     1     -38.056  17.675  61.364  0.00  0.00    +0.000 HD
ENDBRANCH  22  26
BRANCH  23  28
ATOM     28  O   UNL     1     -38.371  20.850  59.770  0.00  0.00    +0.000 OA
ATOM     29  H   UNL     1     -37.946  21.485  60.372  0.00  0.00    +0.000 HD
ENDBRANCH  23  28
ENDBRANCH  17  18
ENDBRANCH   1  17
TORSDOF 10
ENDMDL
MODEL 6
REMARK VINA RESULT:    -6.930      2.154      4.271
REMARK INTER + INTRA:         -10.458
REMARK INTER:                  -9.823
REMARK INTRA:                  -0.635
REMARK UNBOUND:                -0.692
REMARK  Name = 341
REMARK  10 active torsions:
REMARK  status: ('A' for Active; 'I' for Inactive)
REMARK    1  A    between atoms: O_1  and  C_10
REMARK    2  A    between atoms: O_1  and  C_19
REMARK    3  A    between atoms: O_2  and  C_12
REMARK    4  A    between atoms: O_3  and  C_15
REMARK    5  A    between atoms: O_4  and  C_20
REMARK    6  A    between atoms: O_5  and  C_21
REMARK    7  A    between atoms: O_6  and  C_22
REMARK    8  A    between atoms: O_8  and  C_23
REMARK    9  A    between atoms: C_11  and  C_19
REMARK   10  A    between atoms: C_13  and  C_23
REMARK                            x       y       z     vdW  Elec       q    Type
REMARK                         _______ _______ _______ _____ _____    ______ ____
ROOT
ATOM      1  O   UNL     1     -35.133  16.052  57.519  0.00  0.00    +0.000 OA
ENDROOT
BRANCH   1   2
ATOM      2  C   UNL     1     -34.846  15.875  56.163  0.00  0.00    +0.000 A 
ATOM      3  C   UNL     1     -34.155  14.754  55.760  0.00  0.00    +0.000 A 
ATOM      4  C   UNL     1     -34.995  16.674  53.919  0.00  0.00    +0.000 A 
ATOM      5  C   UNL     1     -35.274  16.840  55.276  0.00  0.00    +0.000 A 
ATOM      6  C   UNL     1     -33.876  14.589  54.403  0.00  0.00    +0.000 A 
ATOM      7  C   UNL     1     -34.296  15.548  53.483  0.00  0.00    +0.000 A 
BRANCH   3   8
ATOM      8  O   UNL     1     -33.744  13.815  56.660  0.00  0.00    +0.000 OA
ATOM      9  H   UNL     1     -33.887  14.167  57.556  0.00  0.00    +0.000 HD
ENDBRANCH   3   8
BRANCH   6  10
ATOM     10  O   UNL     1     -33.197  13.491  53.964  0.00  0.00    +0.000 OA
ATOM     11  H   UNL     1     -32.850  13.007  54.732  0.00  0.00    +0.000 HD
ENDBRANCH   6  10
BRANCH   4  13
ATOM     12  O   UNL     1     -36.612  17.962  52.714  0.00  0.00    +0.000 OA
ATOM     13  C   UNL     1     -35.436  17.674  52.959  0.00  0.00    +0.000 C 
BRANCH  13  14
ATOM     14  O   UNL     1     -34.396  18.288  52.332  0.00  0.00    +0.000 OA
ATOM     15  H   UNL     1     -34.116  17.803  51.526  0.00  0.00    +0.000 HD
ENDBRANCH  13  14
ENDBRANCH   4  13
ENDBRANCH   1   2
BRANCH   1  17
ATOM     16  O   UNL     1     -33.310  17.321  58.226  0.00  0.00    +0.000 OA
ATOM     17  C   UNL     1     -34.532  17.173  58.087  0.00  0.00    +0.000 C 
BRANCH  17  18
ATOM     18  C   UNL     1     -35.529  18.152  58.488  0.00  0.00    +0.000 A 
ATOM     19  C   UNL     1     -35.777  19.264  57.684  0.00  0.00    +0.000 A 
ATOM     20  C   UNL     1     -36.235  17.982  59.680  0.00  0.00    +0.000 A 
ATOM     21  C   UNL     1     -37.189  18.923  60.066  0.00  0.00    +0.000 A 
ATOM     22  C   UNL     1     -36.732  20.206  58.069  0.00  0.00    +0.000 A 
ATOM     23  C   UNL     1     -37.437  20.035  59.260  0.00  0.00    +0.000 A 
BRANCH  21  24
ATOM     24  O   UNL     1     -37.870  18.747  61.232  0.00  0.00    +0.000 OA
ATOM     25  H   UNL     1     -37.967  17.791  61.387  0.00  0.00    +0.000 HD
ENDBRANCH  21  24
BRANCH  22  26
ATOM     26  O   UNL     1     -36.963  21.289  57.276  0.00  0.00    +0.000 OA
ATOM     27  H   UNL     1     -36.692  22.094  57.750  0.00  0.00    +0.000 HD
ENDBRANCH  22  26
BRANCH  23  28
ATOM     28  O   UNL     1     -38.370  20.956  59.637  0.00  0.00    +0.000 OA
ATOM     29  H   UNL     1     -38.149  21.806  59.219  0.00  0.00    +0.000 HD
ENDBRANCH  23  28
ENDBRANCH  17  18
ENDBRANCH   1  17
TORSDOF 10
ENDMDL
MODEL 7
REMARK VINA RESULT:    -6.881      2.149      6.292
REMARK INTER + INTRA:         -10.388
REMARK INTER:                  -9.522
REMARK INTRA:                  -0.866
REMARK UNBOUND:                -0.692
REMARK  Name = 341
REMARK  10 active torsions:
REMARK  status: ('A' for Active; 'I' for Inactive)
REMARK    1  A    between atoms: O_1  and  C_10
REMARK    2  A    between atoms: O_1  and  C_19
REMARK    3  A    between atoms: O_2  and  C_12
REMARK    4  A    between atoms: O_3  and  C_15
REMARK    5  A    between atoms: O_4  and  C_20
REMARK    6  A    between atoms: O_5  and  C_21
REMARK    7  A    between atoms: O_6  and  C_22
REMARK    8  A    between atoms: O_8  and  C_23
REMARK    9  A    between atoms: C_11  and  C_19
REMARK   10  A    between atoms: C_13  and  C_23
REMARK                            x       y       z     vdW  Elec       q    Type
REMARK                         _______ _______ _______ _____ _____    ______ ____
ROOT
ATOM      1  O   UNL     1     -34.996  18.290  55.658  0.00  0.00    +0.000 OA
ENDROOT
BRANCH   1   2
ATOM      2  C   UNL     1     -35.477  18.434  56.962  0.00  0.00    +0.000 A 
ATOM      3  C   UNL     1     -36.130  19.595  57.316  0.00  0.00    +0.000 A 
ATOM      4  C   UNL     1     -35.756  17.528  59.151  0.00  0.00    +0.000 A 
ATOM      5  C   UNL     1     -35.279  17.397  57.847  0.00  0.00    +0.000 A 
ATOM      6  C   UNL     1     -36.606  19.726  58.620  0.00  0.00    +0.000 A 
ATOM      7  C   UNL     1     -36.420  18.692  59.538  0.00  0.00    +0.000 A 
BRANCH   3   8
ATOM      8  O   UNL     1     -36.312  20.606  56.419  0.00  0.00    +0.000 OA
ATOM      9  H   UNL     1     -37.218  20.545  56.069  0.00  0.00    +0.000 HD
ENDBRANCH   3   8
BRANCH   6  10
ATOM     10  O   UNL     1     -37.259  20.857  59.009  0.00  0.00    +0.000 OA
ATOM     11  H   UNL     1     -37.035  21.049  59.935  0.00  0.00    +0.000 HD
ENDBRANCH   6  10
BRANCH   4  13
ATOM     12  O   UNL     1     -35.498  15.247  59.827  0.00  0.00    +0.000 OA
ATOM     13  C   UNL     1     -35.564  16.449  60.107  0.00  0.00    +0.000 C 
BRANCH  13  14
ATOM     14  O   UNL     1     -35.457  16.900  61.387  0.00  0.00    +0.000 OA
ATOM     15  H   UNL     1     -34.893  17.700  61.447  0.00  0.00    +0.000 HD
ENDBRANCH  13  14
ENDBRANCH   4  13
ENDBRANCH   1   2
BRANCH   1  17
ATOM     16  O   UNL     1     -36.834  18.404  54.228  0.00  0.00    +0.000 OA
ATOM     17  C   UNL     1     -35.923  17.758  54.764  0.00  0.00    +0.000 C 
BRANCH  17  18
ATOM     18  C   UNL     1     -35.675  16.344  54.536  0.00  0.00    +0.000 A 
ATOM     19  C   UNL     1     -36.731  15.434  54.586  0.00  0.00    +0.000 A 
ATOM     20  C   UNL     1     -34.381  15.896  54.270  0.00  0.00    +0.000 A 
ATOM     21  C   UNL     1     -34.143  14.539  54.054  0.00  0.00    +0.000 A 
ATOM     22  C   UNL     1     -36.493  14.076  54.370  0.00  0.00    +0.000 A 
ATOM     23  C   UNL     1     -35.199  13.629  54.104  0.00  0.00    +0.000 A 
BRANCH  21  24
ATOM     24  O   UNL     1     -32.874  14.115  53.797  0.00  0.00    +0.000 OA
ATOM     25  H   UNL     1     -32.722  13.290  54.290  0.00  0.00    +0.000 HD
ENDBRANCH  21  24
BRANCH  22  26
ATOM     26  O   UNL     1     -37.533  13.198  54.424  0.00  0.00    +0.000 OA
ATOM     27  H   UNL     1     -38.368  13.688  54.330  0.00  0.00    +0.000 HD
ENDBRANCH  22  26
BRANCH  23  28
ATOM     28  O   UNL     1     -34.967  12.302  53.893  0.00  0.00    +0.000 OA
ATOM     29  H   UNL     1     -35.765  11.910  53.498  0.00  0.00    +0.000 HD
ENDBRANCH  23  28
ENDBRANCH  17  18
ENDBRANCH   1  17
TORSDOF 10
ENDMDL
MODEL 8
REMARK VINA RESULT:    -6.478      2.519      3.729
REMARK INTER + INTRA:          -9.820
REMARK INTER:                  -9.254
REMARK INTRA:                  -0.566
REMARK UNBOUND:                -0.692
REMARK  Name = 341
REMARK  10 active torsions:
REMARK  status: ('A' for Active; 'I' for Inactive)
REMARK    1  A    between atoms: O_1  and  C_10
REMARK    2  A    between atoms: O_1  and  C_19
REMARK    3  A    between atoms: O_2  and  C_12
REMARK    4  A    between atoms: O_3  and  C_15
REMARK    5  A    between atoms: O_4  and  C_20
REMARK    6  A    between atoms: O_5  and  C_21
REMARK    7  A    between atoms: O_6  and  C_22
REMARK    8  A    between atoms: O_8  and  C_23
REMARK    9  A    between atoms: C_11  and  C_19
REMARK   10  A    between atoms: C_13  and  C_23
REMARK                            x       y       z     vdW  Elec       q    Type
REMARK                         _______ _______ _______ _____ _____    ______ ____
ROOT
ATOM      1  O   UNL     1     -35.532  15.958  58.034  0.00  0.00    +0.000 OA
ENDROOT
BRANCH   1   2
ATOM      2  C   UNL     1     -35.666  15.538  56.708  0.00  0.00    +0.000 A 
ATOM      3  C   UNL     1     -36.806  15.869  56.008  0.00  0.00    +0.000 A 
ATOM      4  C   UNL     1     -34.762  14.383  54.826  0.00  0.00    +0.000 A 
ATOM      5  C   UNL     1     -34.641  14.806  56.150  0.00  0.00    +0.000 A 
ATOM      6  C   UNL     1     -36.926  15.445  54.684  0.00  0.00    +0.000 A 
ATOM      7  C   UNL     1     -35.905  14.702  54.094  0.00  0.00    +0.000 A 
BRANCH   3   8
ATOM      8  O   UNL     1     -37.805  16.595  56.586  0.00  0.00    +0.000 OA
ATOM      9  H   UNL     1     -38.222  16.049  57.274  0.00  0.00    +0.000 HD
ENDBRANCH   3   8
BRANCH   6  10
ATOM     10  O   UNL     1     -38.037  15.754  53.957  0.00  0.00    +0.000 OA
ATOM     11  H   UNL     1     -37.778  15.905  53.032  0.00  0.00    +0.000 HD
ENDBRANCH   6  10
BRANCH   4  13
ATOM     12  O   UNL     1     -33.113  13.904  53.160  0.00  0.00    +0.000 OA
ATOM     13  C   UNL     1     -33.695  13.611  54.210  0.00  0.00    +0.000 C 
BRANCH  13  14
ATOM     14  O   UNL     1     -33.382  12.494  54.921  0.00  0.00    +0.000 OA
ATOM     15  H   UNL     1     -33.343  11.696  54.352  0.00  0.00    +0.000 HD
ENDBRANCH  13  14
ENDBRANCH   4  13
ENDBRANCH   1   2
BRANCH   1  17
ATOM     16  O   UNL     1     -33.591  17.249  58.060  0.00  0.00    +0.000 OA
ATOM     17  C   UNL     1     -34.819  17.145  58.187  0.00  0.00    +0.000 C 
BRANCH  17  18
ATOM     18  C   UNL     1     -35.708  18.250  58.506  0.00  0.00    +0.000 A 
ATOM     19  C   UNL     1     -35.863  19.303  57.604  0.00  0.00    +0.000 A 
ATOM     20  C   UNL     1     -36.404  18.260  59.715  0.00  0.00    +0.000 A 
ATOM     21  C   UNL     1     -37.254  19.322  60.022  0.00  0.00    +0.000 A 
ATOM     22  C   UNL     1     -36.714  20.366  57.910  0.00  0.00    +0.000 A 
ATOM     23  C   UNL     1     -37.409  20.375  59.120  0.00  0.00    +0.000 A 
BRANCH  21  24
ATOM     24  O   UNL     1     -37.926  19.321  61.207  0.00  0.00    +0.000 OA
ATOM     25  H   UNL     1     -38.748  19.829  61.093  0.00  0.00    +0.000 HD
ENDBRANCH  21  24
BRANCH  22  26
ATOM     26  O   UNL     1     -36.855  21.388  57.022  0.00  0.00    +0.000 OA
ATOM     27  H   UNL     1     -36.710  21.049  56.121  0.00  0.00    +0.000 HD
ENDBRANCH  22  26
BRANCH  23  28
ATOM     28  O   UNL     1     -38.241  21.413  59.419  0.00  0.00    +0.000 OA
ATOM     29  H   UNL     1     -39.148  21.160  59.179  0.00  0.00    +0.000 HD
ENDBRANCH  23  28
ENDBRANCH  17  18
ENDBRANCH   1  17
TORSDOF 10
ENDMDL
MODEL 9
REMARK VINA RESULT:    -6.410      1.392      2.401
REMARK INTER + INTRA:          -9.724
REMARK INTER:                  -9.352
REMARK INTRA:                  -0.372
REMARK UNBOUND:                -0.692
REMARK  Name = 341
REMARK  10 active torsions:
REMARK  status: ('A' for Active; 'I' for Inactive)
REMARK    1  A    between atoms: O_1  and  C_10
REMARK    2  A    between atoms: O_1  and  C_19
REMARK    3  A    between atoms: O_2  and  C_12
REMARK    4  A    between atoms: O_3  and  C_15
REMARK    5  A    between atoms: O_4  and  C_20
REMARK    6  A    between atoms: O_5  and  C_21
REMARK    7  A    between atoms: O_6  and  C_22
REMARK    8  A    between atoms: O_8  and  C_23
REMARK    9  A    between atoms: C_11  and  C_19
REMARK   10  A    between atoms: C_13  and  C_23
REMARK                            x       y       z     vdW  Elec       q    Type
REMARK                         _______ _______ _______ _____ _____    ______ ____
ROOT
ATOM      1  O   UNL     1     -35.768  16.275  56.938  0.00  0.00    +0.000 OA
ENDROOT
BRANCH   1   2
ATOM      2  C   UNL     1     -35.252  16.224  55.641  0.00  0.00    +0.000 A 
ATOM      3  C   UNL     1     -35.334  17.341  54.838  0.00  0.00    +0.000 A 
ATOM      4  C   UNL     1     -34.151  14.986  53.924  0.00  0.00    +0.000 A 
ATOM      5  C   UNL     1     -34.672  15.048  55.216  0.00  0.00    +0.000 A 
ATOM      6  C   UNL     1     -34.813  17.278  53.546  0.00  0.00    +0.000 A 
ATOM      7  C   UNL     1     -34.221  16.101  53.089  0.00  0.00    +0.000 A 
BRANCH   3   8
ATOM      8  O   UNL     1     -35.913  18.492  55.285  0.00  0.00    +0.000 OA
ATOM      9  H   UNL     1     -36.482  18.843  54.578  0.00  0.00    +0.000 HD
ENDBRANCH   3   8
BRANCH   6  10
ATOM     10  O   UNL     1     -34.873  18.361  52.721  0.00  0.00    +0.000 OA
ATOM     11  H   UNL     1     -34.608  18.092  51.825  0.00  0.00    +0.000 HD
ENDBRANCH   6  10
BRANCH   4  13
ATOM     12  O   UNL     1     -33.947  12.616  53.666  0.00  0.00    +0.000 OA
ATOM     13  C   UNL     1     -33.531  13.759  53.449  0.00  0.00    +0.000 C 
BRANCH  13  14
ATOM     14  O   UNL     1     -32.410  13.992  52.714  0.00  0.00    +0.000 OA
ATOM     15  H   UNL     1     -31.890  13.173  52.569  0.00  0.00    +0.000 HD
ENDBRANCH  13  14
ENDBRANCH   4  13
ENDBRANCH   1   2
BRANCH   1  17
ATOM     16  O   UNL     1     -33.705  17.027  57.719  0.00  0.00    +0.000 OA
ATOM     17  C   UNL     1     -34.927  16.889  57.863  0.00  0.00    +0.000 C 
BRANCH  17  18
ATOM     18  C   UNL     1     -35.676  17.359  59.018  0.00  0.00    +0.000 A 
ATOM     19  C   UNL     1     -36.412  18.541  58.939  0.00  0.00    +0.000 A 
ATOM     20  C   UNL     1     -35.656  16.628  60.207  0.00  0.00    +0.000 A 
ATOM     21  C   UNL     1     -36.371  17.080  61.315  0.00  0.00    +0.000 A 
ATOM     22  C   UNL     1     -37.129  18.993  60.047  0.00  0.00    +0.000 A 
ATOM     23  C   UNL     1     -37.108  18.262  61.235  0.00  0.00    +0.000 A 
BRANCH  21  24
ATOM     24  O   UNL     1     -36.342  16.359  62.471  0.00  0.00    +0.000 OA
ATOM     25  H   UNL     1     -37.171  15.855  62.537  0.00  0.00    +0.000 HD
ENDBRANCH  21  24
BRANCH  22  26
ATOM     26  O   UNL     1     -37.841  20.150  59.957  0.00  0.00    +0.000 OA
ATOM     27  H   UNL     1     -37.986  20.362  59.018  0.00  0.00    +0.000 HD
ENDBRANCH  22  26
BRANCH  23  28
ATOM     28  O   UNL     1     -37.808  18.705  62.319  0.00  0.00    +0.000 OA
ATOM     29  H   UNL     1     -37.318  18.460  63.122  0.00  0.00    +0.000 HD
ENDBRANCH  23  28
ENDBRANCH  17  18
ENDBRANCH   1  17
TORSDOF 10
ENDMDL
MODEL 10
REMARK VINA RESULT:    -6.300     20.270     22.760
REMARK INTER + INTRA:          -9.569
REMARK INTER:                  -8.851
REMARK INTRA:                  -0.718
REMARK UNBOUND:                -0.692
REMARK  Name = 341
REMARK  10 active torsions:
REMARK  status: ('A' for Active; 'I' for Inactive)
REMARK    1  A    between atoms: O_1  and  C_10
REMARK    2  A    between atoms: O_1  and  C_19
REMARK    3  A    between atoms: O_2  and  C_12
REMARK    4  A    between atoms: O_3  and  C_15
REMARK    5  A    between atoms: O_4  and  C_20
REMARK    6  A    between atoms: O_5  and  C_21
REMARK    7  A    between atoms: O_6  and  C_22
REMARK    8  A    between atoms: O_8  and  C_23
REMARK    9  A    between atoms: C_11  and  C_19
REMARK   10  A    between atoms: C_13  and  C_23
REMARK                            x       y       z     vdW  Elec       q    Type
REMARK                         _______ _______ _______ _____ _____    ______ ____
ROOT
ATOM      1  O   UNL     1     -21.918  -2.835  61.737  0.00  0.00    +0.000 OA
ENDROOT
BRANCH   1   2
ATOM      2  C   UNL     1     -21.217  -1.760  62.289  0.00  0.00    +0.000 A 
ATOM      3  C   UNL     1     -19.840  -1.789  62.307  0.00  0.00    +0.000 A 
ATOM      4  C   UNL     1     -21.254   0.379  63.347  0.00  0.00    +0.000 A 
ATOM      5  C   UNL     1     -21.942  -0.702  62.795  0.00  0.00    +0.000 A 
ATOM      6  C   UNL     1     -19.153  -0.708  62.859  0.00  0.00    +0.000 A 
ATOM      7  C   UNL     1     -19.860   0.376  63.379  0.00  0.00    +0.000 A 
BRANCH   3   8
ATOM      8  O   UNL     1     -19.149  -2.849  61.798  0.00  0.00    +0.000 OA
ATOM      9  H   UNL     1     -19.141  -3.557  62.465  0.00  0.00    +0.000 HD
ENDBRANCH   3   8
BRANCH   6  10
ATOM     10  O   UNL     1     -17.791  -0.698  62.893  0.00  0.00    +0.000 OA
ATOM     11  H   UNL     1     -17.487  -1.317  63.579  0.00  0.00    +0.000 HD
ENDBRANCH   6  10
BRANCH   4  13
ATOM     12  O   UNL     1     -21.739   2.088  64.950  0.00  0.00    +0.000 OA
ATOM     13  C   UNL     1     -21.991   1.510  63.887  0.00  0.00    +0.000 C 
BRANCH  13  14
ATOM     14  O   UNL     1     -23.023   1.890  63.086  0.00  0.00    +0.000 OA
ATOM     15  H   UNL     1     -22.810   1.775  62.135  0.00  0.00    +0.000 HD
ENDBRANCH  13  14
ENDBRANCH   4  13
ENDBRANCH   1   2
BRANCH   1  17
ATOM     16  O   UNL     1     -22.094  -1.903  59.608  0.00  0.00    +0.000 OA
ATOM     17  C   UNL     1     -22.587  -2.532  60.554  0.00  0.00    +0.000 C 
BRANCH  17  18
ATOM     18  C   UNL     1     -23.942  -3.060  60.571  0.00  0.00    +0.000 A 
ATOM     19  C   UNL     1     -24.956  -2.403  59.874  0.00  0.00    +0.000 A 
ATOM     20  C   UNL     1     -24.229  -4.223  61.287  0.00  0.00    +0.000 A 
ATOM     21  C   UNL     1     -25.529  -4.728  61.306  0.00  0.00    +0.000 A 
ATOM     22  C   UNL     1     -26.256  -2.907  59.892  0.00  0.00    +0.000 A 
ATOM     23  C   UNL     1     -26.542  -4.070  60.608  0.00  0.00    +0.000 A 
BRANCH  21  24
ATOM     24  O   UNL     1     -25.796  -5.863  62.010  0.00  0.00    +0.000 OA
ATOM     25  H   UNL     1     -25.918  -5.620  62.945  0.00  0.00    +0.000 HD
ENDBRANCH  21  24
BRANCH  22  26
ATOM     26  O   UNL     1     -27.237  -2.255  59.210  0.00  0.00    +0.000 OA
ATOM     27  H   UNL     1     -26.922  -1.365  58.972  0.00  0.00    +0.000 HD
ENDBRANCH  22  26
BRANCH  23  28
ATOM     28  O   UNL     1     -27.814  -4.563  60.626  0.00  0.00    +0.000 OA
ATOM     29  H   UNL     1     -27.848  -5.345  60.048  0.00  0.00    +0.000 HD
ENDBRANCH  23  28
ENDBRANCH  17  18
ENDBRANCH   1  17
TORSDOF 10
ENDMDL
