MODEL 1
REMARK VINA RESULT:      -9.4      0.000      0.000
REMARK  12 active torsions:
REMARK  status: ('A' for Active; 'I' for Inactive)
REMARK    1  A    between atoms: O_1  and  C_10 
REMARK    2  A    between atoms: O_2  and  C_17 
REMARK    3  A    between atoms: O_3  and  C_20 
REMARK    4  A    between atoms: O_4  and  C_27 
REMARK    5  A    between atoms: O_6  and  C_29 
REMARK    6  A    between atoms: O_7  and  C_28 
REMARK    7  A    between atoms: O_8  and  C_33 
REMARK    8  A    between atoms: C_11  and  C_20 
REMARK    9  A    between atoms: C_20  and  C_28 
REMARK   10  A    between atoms: C_28  and  C_31 
REMARK   11  A    between atoms: C_31  and  C_32 
REMARK   12  A    between atoms: C_32  and  C_33 
ROOT
HETATM    1  O   UNK     0     159.720 184.816 159.951  0.00  0.00    -0.384 OA
HETATM    2  H   UNK     0     159.141 184.741 159.178  0.00  0.00     0.211 HD
ENDROOT
BRANCH   1   3
HETATM    3  C   UNK     0     159.885 186.197 160.347  0.00  0.00     0.090 C 
HETATM    4  C   UNK     0     161.149 186.785 159.667  0.00  0.00    -0.000 C 
HETATM    5  C   UNK     0     162.257 185.914 160.314  0.00  0.00     0.034 C 
HETATM    6  C   UNK     0     161.016 186.603 158.149  0.00  0.00     0.045 C 
HETATM    7  C   UNK     0     161.370 188.289 159.992  0.00  0.00     0.019 C 
HETATM    8  C   UNK     0     161.803 185.774 161.785  0.00  0.00     0.012 C 
HETATM    9  C   UNK     0     160.305 186.151 161.823  0.00  0.00     0.044 C 
HETATM   10  C   UNK     0     159.745 187.287 157.607  0.00  0.00     0.128 C 
HETATM   11  C   UNK     0     158.419 186.888 158.354  0.00  0.00     0.055 C 
HETATM   12  C   UNK     0     157.137 187.701 157.871  0.00  0.00    -0.021 C 
HETATM   13  C   UNK     0     158.633 186.913 159.882  0.00  0.00    -0.034 C 
HETATM   14  C   UNK     0     155.995 187.581 158.922  0.00  0.00     0.071 C 
HETATM   15  C   UNK     0     156.625 187.191 156.474  0.00  0.00     0.045 C 
HETATM   16  C   UNK     0     157.473 189.210 157.715  0.00  0.00     0.017 C 
HETATM   17  C   UNK     0     155.336 186.193 159.021  0.00  0.00     0.047 C 
HETATM   18  C   UNK     0     156.476 187.990 160.299  0.00  0.00     0.154 C 
HETATM   19  C   UNK     0     155.341 185.416 157.709  0.00  0.00     0.147 C 
HETATM   20  C   UNK     0     155.350 186.341 156.500  0.00  0.00     0.147 C 
HETATM   21  O   UNK     0     155.784 188.663 161.059  0.00  0.00    -0.293 OA
HETATM   22  C   UNK     0     157.780 187.469 160.755  0.00  0.00     0.057 C 
BRANCH   5  23
HETATM   23  C   UNK     0     163.686 186.421 160.182  0.00  0.00     0.084 C 
HETATM   24  C   UNK     0     164.590 185.299 159.645  0.00  0.00     0.049 C 
BRANCH  23  25
HETATM   25  O   UNK     0     163.702 187.482 159.218  0.00  0.00    -0.387 OA
HETATM   26  H   UNK     0     163.492 188.318 159.666  0.00  0.00     0.210 HD
ENDBRANCH  23  25
BRANCH  23  27
HETATM   27  C   UNK     0     164.239 186.976 161.523  0.00  0.00     0.152 C 
BRANCH  27  28
HETATM   28  O   UNK     0     164.856 188.248 161.297  0.00  0.00    -0.393 OA
HETATM   29  H   UNK     0     165.427 188.434 162.062  0.00  0.00     0.210 HD
ENDBRANCH  27  28
BRANCH  27  30
HETATM   30  C   UNK     0     165.263 186.056 162.215  0.00  0.00     0.037 C 
BRANCH  30  31
HETATM   31  C   UNK     0     165.913 186.731 163.436  0.00  0.00     0.040 C 
BRANCH  31  32
HETATM   32  C   UNK     0     167.231 186.077 163.903  0.00  0.00     0.051 C 
HETATM   33  C   UNK     0     167.165 184.565 163.668  0.00  0.00     0.045 C 
HETATM   34  C   UNK     0     168.457 186.661 163.196  0.00  0.00     0.045 C 
BRANCH  32  35
HETATM   35  O   UNK     0     167.370 186.298 165.307  0.00  0.00    -0.391 OA
HETATM   36  H   UNK     0     167.693 187.204 165.449  0.00  0.00     0.210 HD
ENDBRANCH  32  35
ENDBRANCH  31  32
ENDBRANCH  30  31
ENDBRANCH  27  30
ENDBRANCH  23  27
ENDBRANCH   5  23
BRANCH  10  37
HETATM   37  O   UNK     0     159.654 186.968 156.221  0.00  0.00    -0.395 OA
HETATM   38  H   UNK     0     158.785 187.266 155.905  0.00  0.00     0.210 HD
ENDBRANCH  10  37
BRANCH  19  39
HETATM   39  O   UNK     0     154.198 184.566 157.676  0.00  0.00    -0.393 OA
HETATM   40  H   UNK     0     153.806 184.548 158.565  0.00  0.00     0.210 HD
ENDBRANCH  19  39
BRANCH  20  41
HETATM   41  O   UNK     0     154.215 187.207 156.528  0.00  0.00    -0.393 OA
HETATM   42  H   UNK     0     153.751 187.058 157.369  0.00  0.00     0.210 HD
ENDBRANCH  20  41
ENDBRANCH   1   3
TORSDOF 12
ENDMDL
MODEL 2
REMARK VINA RESULT:      -9.4     27.645     31.808
REMARK  12 active torsions:
REMARK  status: ('A' for Active; 'I' for Inactive)
REMARK    1  A    between atoms: O_1  and  C_10 
REMARK    2  A    between atoms: O_2  and  C_17 
REMARK    3  A    between atoms: O_3  and  C_20 
REMARK    4  A    between atoms: O_4  and  C_27 
REMARK    5  A    between atoms: O_6  and  C_29 
REMARK    6  A    between atoms: O_7  and  C_28 
REMARK    7  A    between atoms: O_8  and  C_33 
REMARK    8  A    between atoms: C_11  and  C_20 
REMARK    9  A    between atoms: C_20  and  C_28 
REMARK   10  A    between atoms: C_28  and  C_31 
REMARK   11  A    between atoms: C_31  and  C_32 
REMARK   12  A    between atoms: C_32  and  C_33 
ROOT
HETATM    1  O   UNK     0     182.546 179.257 179.704  0.00  0.00    -0.384 OA
HETATM    2  H   UNK     0     183.029 179.332 180.540  0.00  0.00     0.211 HD
ENDROOT
BRANCH   1   3
HETATM    3  C   UNK     0     182.686 177.935 179.135  0.00  0.00     0.090 C 
HETATM    4  C   UNK     0     183.654 177.094 180.007  0.00  0.00    -0.000 C 
HETATM    5  C   UNK     0     184.973 177.890 179.825  0.00  0.00     0.034 C 
HETATM    6  C   UNK     0     183.127 177.080 181.448  0.00  0.00     0.045 C 
HETATM    7  C   UNK     0     183.816 175.634 179.499  0.00  0.00     0.019 C 
HETATM    8  C   UNK     0     184.957 178.292 178.332  0.00  0.00     0.012 C 
HETATM    9  C   UNK     0     183.499 178.129 177.847  0.00  0.00     0.044 C 
HETATM   10  C   UNK     0     181.697 176.505 181.521  0.00  0.00     0.128 C 
HETATM   11  C   UNK     0     180.671 177.178 180.536  0.00  0.00     0.055 C 
HETATM   12  C   UNK     0     179.236 176.487 180.528  0.00  0.00    -0.021 C 
HETATM   13  C   UNK     0     181.294 177.338 179.133  0.00  0.00    -0.034 C 
HETATM   14  C   UNK     0     178.444 176.903 179.255  0.00  0.00     0.071 C 
HETATM   15  C   UNK     0     178.409 176.862 181.813  0.00  0.00     0.045 C 
HETATM   16  C   UNK     0     179.375 174.938 180.507  0.00  0.00     0.017 C 
HETATM   17  C   UNK     0     177.969 178.367 179.227  0.00  0.00     0.047 C 
HETATM   18  C   UNK     0     179.246 176.629 178.000  0.00  0.00     0.154 C 
HETATM   19  C   UNK     0     177.684 178.948 180.609  0.00  0.00     0.147 C 
HETATM   20  C   UNK     0     177.275 177.871 181.604  0.00  0.00     0.147 C 
HETATM   21  O   UNK     0     178.730 176.167 176.984  0.00  0.00    -0.293 OA
HETATM   22  C   UNK     0     180.666 177.028 177.990  0.00  0.00     0.057 C 
BRANCH   5  23
HETATM   23  C   UNK     0     186.257 177.181 180.232  0.00  0.00     0.084 C 
HETATM   24  C   UNK     0     187.173 178.155 180.991  0.00  0.00     0.049 C 
BRANCH  23  25
HETATM   25  O   UNK     0     185.922 176.118 181.134  0.00  0.00    -0.387 OA
HETATM   26  H   UNK     0     186.569 175.401 181.030  0.00  0.00     0.210 HD
ENDBRANCH  23  25
BRANCH  23  27
HETATM   27  C   UNK     0     187.001 176.567 179.015  0.00  0.00     0.152 C 
BRANCH  27  28
HETATM   28  O   UNK     0     187.046 175.142 179.149  0.00  0.00    -0.393 OA
HETATM   29  H   UNK     0     186.542 174.764 178.409  0.00  0.00     0.210 HD
ENDBRANCH  27  28
BRANCH  27  30
HETATM   30  C   UNK     0     188.440 177.082 178.826  0.00  0.00     0.037 C 
BRANCH  30  31
HETATM   31  C   UNK     0     189.257 176.181 177.882  0.00  0.00     0.040 C 
BRANCH  31  32
HETATM   32  C   UNK     0     190.645 175.777 178.423  0.00  0.00     0.051 C 
HETATM   33  C   UNK     0     191.466 177.035 178.721  0.00  0.00     0.045 C 
HETATM   34  C   UNK     0     190.553 174.905 179.678  0.00  0.00     0.045 C 
BRANCH  32  35
HETATM   35  O   UNK     0     191.326 175.038 177.408  0.00  0.00    -0.391 OA
HETATM   36  H   UNK     0     192.224 174.835 177.721  0.00  0.00     0.210 HD
ENDBRANCH  32  35
ENDBRANCH  31  32
ENDBRANCH  30  31
ENDBRANCH  27  30
ENDBRANCH  23  27
ENDBRANCH   5  23
BRANCH  10  37
HETATM   37  O   UNK     0     181.259 176.638 182.870  0.00  0.00    -0.395 OA
HETATM   38  H   UNK     0     181.109 175.744 183.222  0.00  0.00     0.210 HD
ENDBRANCH  10  37
BRANCH  19  39
HETATM   39  O   UNK     0     176.659 179.930 180.490  0.00  0.00    -0.393 OA
HETATM   40  H   UNK     0     176.797 180.599 181.181  0.00  0.00     0.210 HD
ENDBRANCH  19  39
BRANCH  20  41
HETATM   41  O   UNK     0     176.116 177.177 181.138  0.00  0.00    -0.393 OA
HETATM   42  H   UNK     0     175.805 176.605 181.860  0.00  0.00     0.210 HD
ENDBRANCH  20  41
ENDBRANCH   1   3
TORSDOF 12
ENDMDL
MODEL 3
REMARK VINA RESULT:      -8.9     27.703     34.364
REMARK  12 active torsions:
REMARK  status: ('A' for Active; 'I' for Inactive)
REMARK    1  A    between atoms: O_1  and  C_10 
REMARK    2  A    between atoms: O_2  and  C_17 
REMARK    3  A    between atoms: O_3  and  C_20 
REMARK    4  A    between atoms: O_4  and  C_27 
REMARK    5  A    between atoms: O_6  and  C_29 
REMARK    6  A    between atoms: O_7  and  C_28 
REMARK    7  A    between atoms: O_8  and  C_33 
REMARK    8  A    between atoms: C_11  and  C_20 
REMARK    9  A    between atoms: C_20  and  C_28 
REMARK   10  A    between atoms: C_28  and  C_31 
REMARK   11  A    between atoms: C_31  and  C_32 
REMARK   12  A    between atoms: C_32  and  C_33 
ROOT
HETATM    1  O   UNK     0     184.953 175.204 178.756  0.00  0.00    -0.384 OA
HETATM    2  H   UNK     0     185.521 174.611 179.268  0.00  0.00     0.211 HD
ENDROOT
BRANCH   1   3
HETATM    3  C   UNK     0     185.168 176.585 179.129  0.00  0.00     0.090 C 
HETATM    4  C   UNK     0     184.595 176.836 180.548  0.00  0.00    -0.000 C 
HETATM    5  C   UNK     0     183.085 176.585 180.298  0.00  0.00     0.034 C 
HETATM    6  C   UNK     0     185.242 175.838 181.519  0.00  0.00     0.045 C 
HETATM    7  C   UNK     0     184.837 178.285 181.054  0.00  0.00     0.019 C 
HETATM    8  C   UNK     0     182.830 177.227 178.914  0.00  0.00     0.012 C 
HETATM    9  C   UNK     0     184.212 177.400 178.247  0.00  0.00     0.044 C 
HETATM   10  C   UNK     0     186.778 175.973 181.527  0.00  0.00     0.128 C 
HETATM   11  C   UNK     0     187.447 175.909 180.104  0.00  0.00     0.055 C 
HETATM   12  C   UNK     0     189.016 176.182 180.116  0.00  0.00    -0.021 C 
HETATM   13  C   UNK     0     186.669 176.790 179.103  0.00  0.00    -0.034 C 
HETATM   14  C   UNK     0     189.513 176.536 178.684  0.00  0.00     0.071 C 
HETATM   15  C   UNK     0     189.812 174.938 180.660  0.00  0.00     0.045 C 
HETATM   16  C   UNK     0     189.355 177.385 181.040  0.00  0.00     0.017 C 
HETATM   17  C   UNK     0     189.513 175.368 177.682  0.00  0.00     0.047 C 
HETATM   18  C   UNK     0     188.713 177.681 178.097  0.00  0.00     0.154 C 
HETATM   19  C   UNK     0     189.742 174.005 178.325  0.00  0.00     0.147 C 
HETATM   20  C   UNK     0     190.557 174.112 179.607  0.00  0.00     0.147 C 
HETATM   21  O   UNK     0     189.243 178.582 177.450  0.00  0.00    -0.293 OA
HETATM   22  C   UNK     0     187.245 177.638 178.238  0.00  0.00     0.057 C 
BRANCH   5  23
HETATM   23  C   UNK     0     182.125 177.087 181.368  0.00  0.00     0.084 C 
HETATM   24  C   UNK     0     181.892 175.987 182.417  0.00  0.00     0.049 C 
BRANCH  23  25
HETATM   25  O   UNK     0     182.736 178.196 182.040  0.00  0.00    -0.387 OA
HETATM   26  H   UNK     0     182.389 178.247 182.946  0.00  0.00     0.210 HD
ENDBRANCH  23  25
BRANCH  23  27
HETATM   27  C   UNK     0     180.776 177.568 180.769  0.00  0.00     0.152 C 
BRANCH  27  28
HETATM   28  O   UNK     0     180.294 178.692 181.512  0.00  0.00    -0.393 OA
HETATM   29  H   UNK     0     179.372 178.844 181.245  0.00  0.00     0.210 HD
ENDBRANCH  27  28
BRANCH  27  30
HETATM   30  C   UNK     0     179.673 176.492 180.750  0.00  0.00     0.037 C 
BRANCH  30  31
HETATM   31  C   UNK     0     178.584 176.800 179.706  0.00  0.00     0.040 C 
BRANCH  31  32
HETATM   32  C   UNK     0     177.257 177.320 180.299  0.00  0.00     0.051 C 
HETATM   33  C   UNK     0     177.137 176.870 181.759  0.00  0.00     0.045 C 
HETATM   34  C   UNK     0     177.133 178.843 180.211  0.00  0.00     0.045 C 
BRANCH  32  35
HETATM   35  O   UNK     0     176.178 176.735 179.569  0.00  0.00    -0.391 OA
HETATM   36  H   UNK     0     176.424 175.828 179.323  0.00  0.00     0.210 HD
ENDBRANCH  32  35
ENDBRANCH  31  32
ENDBRANCH  30  31
ENDBRANCH  27  30
ENDBRANCH  23  27
ENDBRANCH   5  23
BRANCH  10  37
HETATM   37  O   UNK     0     187.286 174.939 182.366  0.00  0.00    -0.395 OA
HETATM   38  H   UNK     0     187.773 174.314 181.803  0.00  0.00     0.210 HD
ENDBRANCH  10  37
BRANCH  19  39
HETATM   39  O   UNK     0     190.400 173.160 177.386  0.00  0.00    -0.393 OA
HETATM   40  H   UNK     0     191.358 173.293 177.475  0.00  0.00     0.210 HD
ENDBRANCH  19  39
BRANCH  20  41
HETATM   41  O   UNK     0     191.820 174.724 179.343  0.00  0.00    -0.393 OA
HETATM   42  H   UNK     0     191.781 175.636 179.677  0.00  0.00     0.210 HD
ENDBRANCH  20  41
ENDBRANCH   1   3
TORSDOF 12
ENDMDL
MODEL 4
REMARK VINA RESULT:      -8.7     27.548     31.872
REMARK  12 active torsions:
REMARK  status: ('A' for Active; 'I' for Inactive)
REMARK    1  A    between atoms: O_1  and  C_10 
REMARK    2  A    between atoms: O_2  and  C_17 
REMARK    3  A    between atoms: O_3  and  C_20 
REMARK    4  A    between atoms: O_4  and  C_27 
REMARK    5  A    between atoms: O_6  and  C_29 
REMARK    6  A    between atoms: O_7  and  C_28 
REMARK    7  A    between atoms: O_8  and  C_33 
REMARK    8  A    between atoms: C_11  and  C_20 
REMARK    9  A    between atoms: C_20  and  C_28 
REMARK   10  A    between atoms: C_28  and  C_31 
REMARK   11  A    between atoms: C_31  and  C_32 
REMARK   12  A    between atoms: C_32  and  C_33 
ROOT
HETATM    1  O   UNK     0     182.607 179.292 180.018  0.00  0.00    -0.384 OA
HETATM    2  H   UNK     0     181.819 179.689 179.621  0.00  0.00     0.211 HD
ENDROOT
BRANCH   1   3
HETATM    3  C   UNK     0     182.905 178.010 179.419  0.00  0.00     0.090 C 
HETATM    4  C   UNK     0     183.789 177.178 180.384  0.00  0.00    -0.000 C 
HETATM    5  C   UNK     0     185.071 178.051 180.427  0.00  0.00     0.034 C 
HETATM    6  C   UNK     0     183.066 177.063 181.733  0.00  0.00     0.045 C 
HETATM    7  C   UNK     0     184.109 175.757 179.843  0.00  0.00     0.019 C 
HETATM    8  C   UNK     0     185.240 178.528 178.965  0.00  0.00     0.012 C 
HETATM    9  C   UNK     0     183.878 178.312 178.270  0.00  0.00     0.044 C 
HETATM   10  C   UNK     0     181.678 176.409 181.575  0.00  0.00     0.128 C 
HETATM   11  C   UNK     0     180.762 177.077 180.483  0.00  0.00     0.055 C 
HETATM   12  C   UNK     0     179.387 176.310 180.240  0.00  0.00    -0.021 C 
HETATM   13  C   UNK     0     181.565 177.340 179.192  0.00  0.00    -0.034 C 
HETATM   14  C   UNK     0     178.758 176.748 178.886  0.00  0.00     0.071 C 
HETATM   15  C   UNK     0     178.366 176.575 181.408  0.00  0.00     0.045 C 
HETATM   16  C   UNK     0     179.620 174.775 180.172  0.00  0.00     0.017 C 
HETATM   17  C   UNK     0     178.204 178.184 178.853  0.00  0.00     0.047 C 
HETATM   18  C   UNK     0     179.743 176.581 177.747  0.00  0.00     0.154 C 
HETATM   19  C   UNK     0     177.694 178.678 180.202  0.00  0.00     0.147 C 
HETATM   20  C   UNK     0     177.214 177.531 181.082  0.00  0.00     0.147 C 
HETATM   21  O   UNK     0     179.404 176.145 176.650  0.00  0.00    -0.293 OA
HETATM   22  C   UNK     0     181.125 177.055 177.958  0.00  0.00     0.057 C 
BRANCH   5  23
HETATM   23  C   UNK     0     186.325 177.393 180.983  0.00  0.00     0.084 C 
HETATM   24  C   UNK     0     187.537 178.314 180.769  0.00  0.00     0.049 C 
BRANCH  23  25
HETATM   25  O   UNK     0     186.159 177.224 182.397  0.00  0.00    -0.387 OA
HETATM   26  H   UNK     0     186.776 176.541 182.708  0.00  0.00     0.210 HD
ENDBRANCH  23  25
BRANCH  23  27
HETATM   27  C   UNK     0     186.582 175.995 180.356  0.00  0.00     0.152 C 
BRANCH  27  28
HETATM   28  O   UNK     0     186.983 175.077 181.379  0.00  0.00    -0.393 OA
HETATM   29  H   UNK     0     186.237 174.984 181.995  0.00  0.00     0.210 HD
ENDBRANCH  27  28
BRANCH  27  30
HETATM   30  C   UNK     0     187.653 175.985 179.249  0.00  0.00     0.037 C 
BRANCH  30  31
HETATM   31  C   UNK     0     188.736 174.921 179.502  0.00  0.00     0.040 C 
BRANCH  31  32
HETATM   32  C   UNK     0     188.789 173.797 178.447  0.00  0.00     0.051 C 
HETATM   33  C   UNK     0     187.370 173.478 177.965  0.00  0.00     0.045 C 
HETATM   34  C   UNK     0     189.677 174.156 177.252  0.00  0.00     0.045 C 
BRANCH  32  35
HETATM   35  O   UNK     0     189.317 172.622 179.065  0.00  0.00    -0.391 OA
HETATM   36  H   UNK     0     188.625 172.227 179.621  0.00  0.00     0.210 HD
ENDBRANCH  32  35
ENDBRANCH  31  32
ENDBRANCH  30  31
ENDBRANCH  27  30
ENDBRANCH  23  27
ENDBRANCH   5  23
BRANCH  10  37
HETATM   37  O   UNK     0     181.047 176.450 182.852  0.00  0.00    -0.395 OA
HETATM   38  H   UNK     0     180.334 175.788 182.851  0.00  0.00     0.210 HD
ENDBRANCH  10  37
BRANCH  19  39
HETATM   39  O   UNK     0     176.639 179.609 179.980  0.00  0.00    -0.393 OA
HETATM   40  H   UNK     0     176.900 180.463 180.363  0.00  0.00     0.210 HD
ENDBRANCH  19  39
BRANCH  20  41
HETATM   41  O   UNK     0     176.176 176.802 180.425  0.00  0.00    -0.393 OA
HETATM   42  H   UNK     0     175.648 177.438 179.914  0.00  0.00     0.210 HD
ENDBRANCH  20  41
ENDBRANCH   1   3
TORSDOF 12
ENDMDL
MODEL 5
REMARK VINA RESULT:      -8.6      2.310      9.063
REMARK  12 active torsions:
REMARK  status: ('A' for Active; 'I' for Inactive)
REMARK    1  A    between atoms: O_1  and  C_10 
REMARK    2  A    between atoms: O_2  and  C_17 
REMARK    3  A    between atoms: O_3  and  C_20 
REMARK    4  A    between atoms: O_4  and  C_27 
REMARK    5  A    between atoms: O_6  and  C_29 
REMARK    6  A    between atoms: O_7  and  C_28 
REMARK    7  A    between atoms: O_8  and  C_33 
REMARK    8  A    between atoms: C_11  and  C_20 
REMARK    9  A    between atoms: C_20  and  C_28 
REMARK   10  A    between atoms: C_28  and  C_31 
REMARK   11  A    between atoms: C_31  and  C_32 
REMARK   12  A    between atoms: C_32  and  C_33 
ROOT
HETATM    1  O   UNK     0     161.632 184.616 161.035  0.00  0.00    -0.384 OA
HETATM    2  H   UNK     0     160.678 184.772 160.987  0.00  0.00     0.211 HD
ENDROOT
BRANCH   1   3
HETATM    3  C   UNK     0     162.375 185.772 160.585  0.00  0.00     0.090 C 
HETATM    4  C   UNK     0     161.390 186.900 160.185  0.00  0.00    -0.000 C 
HETATM    5  C   UNK     0     160.665 186.237 158.984  0.00  0.00     0.034 C 
HETATM    6  C   UNK     0     160.475 187.196 161.381  0.00  0.00     0.045 C 
HETATM    7  C   UNK     0     162.107 188.205 159.743  0.00  0.00     0.019 C 
HETATM    8  C   UNK     0     161.795 185.492 158.237  0.00  0.00     0.012 C 
HETATM    9  C   UNK     0     162.973 185.370 159.229  0.00  0.00     0.044 C 
HETATM   10  C   UNK     0     161.288 187.608 162.625  0.00  0.00     0.128 C 
HETATM   11  C   UNK     0     162.440 186.608 163.013  0.00  0.00     0.055 C 
HETATM   12  C   UNK     0     163.352 187.112 164.217  0.00  0.00    -0.021 C 
HETATM   13  C   UNK     0     163.237 186.191 161.759  0.00  0.00    -0.034 C 
HETATM   14  C   UNK     0     164.691 186.318 164.248  0.00  0.00     0.071 C 
HETATM   15  C   UNK     0     162.616 186.962 165.599  0.00  0.00     0.045 C 
HETATM   16  C   UNK     0     163.705 188.616 164.044  0.00  0.00     0.017 C 
HETATM   17  C   UNK     0     164.570 184.845 164.681  0.00  0.00     0.047 C 
HETATM   18  C   UNK     0     165.390 186.374 162.906  0.00  0.00     0.154 C 
HETATM   19  C   UNK     0     163.427 184.582 165.654  0.00  0.00     0.147 C 
HETATM   20  C   UNK     0     163.097 185.811 166.489  0.00  0.00     0.147 C 
HETATM   21  O   UNK     0     166.606 186.520 162.809  0.00  0.00    -0.293 OA
HETATM   22  C   UNK     0     164.575 186.147 161.696  0.00  0.00     0.057 C 
BRANCH   5  23
HETATM   23  C   UNK     0     159.866 187.163 158.076  0.00  0.00     0.084 C 
HETATM   24  C   UNK     0     160.720 188.383 157.694  0.00  0.00     0.049 C 
BRANCH  23  25
HETATM   25  O   UNK     0     159.561 186.457 156.866  0.00  0.00    -0.387 OA
HETATM   26  H   UNK     0     158.800 186.881 156.437  0.00  0.00     0.210 HD
ENDBRANCH  23  25
BRANCH  23  27
HETATM   27  C   UNK     0     158.528 187.611 158.725  0.00  0.00     0.152 C 
BRANCH  27  28
HETATM   28  O   UNK     0     157.780 186.459 159.126  0.00  0.00    -0.393 OA
HETATM   29  H   UNK     0     157.493 186.603 160.044  0.00  0.00     0.210 HD
ENDBRANCH  27  28
BRANCH  27  30
HETATM   30  C   UNK     0     157.638 188.472 157.809  0.00  0.00     0.037 C 
BRANCH  30  31
HETATM   31  C   UNK     0     156.141 188.186 158.023  0.00  0.00     0.040 C 
BRANCH  31  32
HETATM   32  C   UNK     0     155.428 187.559 156.806  0.00  0.00     0.051 C 
HETATM   33  C   UNK     0     153.932 187.415 157.106  0.00  0.00     0.045 C 
HETATM   34  C   UNK     0     155.626 188.375 155.526  0.00  0.00     0.045 C 
BRANCH  32  35
HETATM   35  O   UNK     0     155.962 186.251 156.596  0.00  0.00    -0.391 OA
HETATM   36  H   UNK     0     155.693 185.683 157.337  0.00  0.00     0.210 HD
ENDBRANCH  32  35
ENDBRANCH  31  32
ENDBRANCH  30  31
ENDBRANCH  27  30
ENDBRANCH  23  27
ENDBRANCH   5  23
BRANCH  10  37
HETATM   37  O   UNK     0     160.365 187.751 163.702  0.00  0.00    -0.395 OA
HETATM   38  H   UNK     0     160.370 188.684 163.973  0.00  0.00     0.210 HD
ENDBRANCH  10  37
BRANCH  19  39
HETATM   39  O   UNK     0     163.785 183.490 166.497  0.00  0.00    -0.393 OA
HETATM   40  H   UNK     0     163.291 182.705 166.206  0.00  0.00     0.210 HD
ENDBRANCH  19  39
BRANCH  20  41
HETATM   41  O   UNK     0     164.247 186.239 167.221  0.00  0.00    -0.393 OA
HETATM   42  H   UNK     0     164.069 186.087 168.164  0.00  0.00     0.210 HD
ENDBRANCH  20  41
ENDBRANCH   1   3
TORSDOF 12
ENDMDL
MODEL 6
REMARK VINA RESULT:      -8.5     11.610     16.683
REMARK  12 active torsions:
REMARK  status: ('A' for Active; 'I' for Inactive)
REMARK    1  A    between atoms: O_1  and  C_10 
REMARK    2  A    between atoms: O_2  and  C_17 
REMARK    3  A    between atoms: O_3  and  C_20 
REMARK    4  A    between atoms: O_4  and  C_27 
REMARK    5  A    between atoms: O_6  and  C_29 
REMARK    6  A    between atoms: O_7  and  C_28 
REMARK    7  A    between atoms: O_8  and  C_33 
REMARK    8  A    between atoms: C_11  and  C_20 
REMARK    9  A    between atoms: C_20  and  C_28 
REMARK   10  A    between atoms: C_28  and  C_31 
REMARK   11  A    between atoms: C_31  and  C_32 
REMARK   12  A    between atoms: C_32  and  C_33 
ROOT
HETATM    1  O   UNK     0     170.948 184.154 172.872  0.00  0.00    -0.384 OA
HETATM    2  H   UNK     0     170.915 183.533 173.614  0.00  0.00     0.211 HD
ENDROOT
BRANCH   1   3
HETATM    3  C   UNK     0     169.953 183.829 171.874  0.00  0.00     0.090 C 
HETATM    4  C   UNK     0     170.432 184.320 170.484  0.00  0.00    -0.000 C 
HETATM    5  C   UNK     0     170.467 185.853 170.715  0.00  0.00     0.034 C 
HETATM    6  C   UNK     0     171.805 183.700 170.193  0.00  0.00     0.045 C 
HETATM    7  C   UNK     0     169.445 183.958 169.338  0.00  0.00     0.019 C 
HETATM    8  C   UNK     0     169.206 186.126 171.568  0.00  0.00     0.012 C 
HETATM    9  C   UNK     0     168.770 184.766 172.157  0.00  0.00     0.044 C 
HETATM   10  C   UNK     0     171.748 182.159 170.230  0.00  0.00     0.128 C 
HETATM   11  C   UNK     0     171.109 181.560 171.538  0.00  0.00     0.055 C 
HETATM   12  C   UNK     0     170.937 179.977 171.504  0.00  0.00    -0.021 C 
HETATM   13  C   UNK     0     169.817 182.320 171.903  0.00  0.00    -0.034 C 
HETATM   14  C   UNK     0     169.927 179.522 172.597  0.00  0.00     0.071 C 
HETATM   15  C   UNK     0     172.313 179.244 171.717  0.00  0.00     0.045 C 
HETATM   16  C   UNK     0     170.378 179.516 170.129  0.00  0.00     0.017 C 
HETATM   17  C   UNK     0     170.429 179.646 174.047  0.00  0.00     0.047 C 
HETATM   18  C   UNK     0     168.615 180.267 172.472  0.00  0.00     0.154 C 
HETATM   19  C   UNK     0     171.938 179.481 174.192  0.00  0.00     0.147 C 
HETATM   20  C   UNK     0     172.522 178.604 173.093  0.00  0.00     0.147 C 
HETATM   21  O   UNK     0     167.530 179.707 172.617  0.00  0.00    -0.293 OA
HETATM   22  C   UNK     0     168.670 181.727 172.265  0.00  0.00     0.057 C 
BRANCH   5  23
HETATM   23  C   UNK     0     170.540 186.728 169.471  0.00  0.00     0.084 C 
HETATM   24  C   UNK     0     169.122 187.002 168.942  0.00  0.00     0.049 C 
BRANCH  23  25
HETATM   25  O   UNK     0     171.111 187.991 169.838  0.00  0.00    -0.387 OA
HETATM   26  H   UNK     0     170.523 188.702 169.536  0.00  0.00     0.210 HD
ENDBRANCH  23  25
BRANCH  23  27
HETATM   27  C   UNK     0     171.426 186.099 168.362  0.00  0.00     0.152 C 
BRANCH  27  28
HETATM   28  O   UNK     0     172.761 186.605 168.470  0.00  0.00    -0.393 OA
HETATM   29  H   UNK     0     172.751 187.522 168.145  0.00  0.00     0.210 HD
ENDBRANCH  27  28
BRANCH  27  30
HETATM   30  C   UNK     0     170.925 186.358 166.928  0.00  0.00     0.037 C 
BRANCH  30  31
HETATM   31  C   UNK     0     171.312 185.219 165.967  0.00  0.00     0.040 C 
BRANCH  31  32
HETATM   32  C   UNK     0     170.125 184.359 165.482  0.00  0.00     0.051 C 
HETATM   33  C   UNK     0     170.016 184.449 163.956  0.00  0.00     0.045 C 
HETATM   34  C   UNK     0     170.250 182.894 165.910  0.00  0.00     0.045 C 
BRANCH  32  35
HETATM   35  O   UNK     0     168.924 184.893 166.041  0.00  0.00    -0.391 OA
HETATM   36  H   UNK     0     168.394 185.281 165.325  0.00  0.00     0.210 HD
ENDBRANCH  32  35
ENDBRANCH  31  32
ENDBRANCH  30  31
ENDBRANCH  27  30
ENDBRANCH  23  27
ENDBRANCH   5  23
BRANCH  10  37
HETATM   37  O   UNK     0     173.082 181.685 170.062  0.00  0.00    -0.395 OA
HETATM   38  H   UNK     0     173.151 181.307 169.169  0.00  0.00     0.210 HD
ENDBRANCH  10  37
BRANCH  19  39
HETATM   39  O   UNK     0     172.217 178.924 175.474  0.00  0.00    -0.393 OA
HETATM   40  H   UNK     0     171.564 179.269 176.105  0.00  0.00     0.210 HD
ENDBRANCH  19  39
BRANCH  20  41
HETATM   41  O   UNK     0     171.906 177.315 173.105  0.00  0.00    -0.393 OA
HETATM   42  H   UNK     0     170.977 177.430 172.842  0.00  0.00     0.210 HD
ENDBRANCH  20  41
ENDBRANCH   1   3
TORSDOF 12
ENDMDL
MODEL 7
REMARK VINA RESULT:      -8.4     13.935     17.681
REMARK  12 active torsions:
REMARK  status: ('A' for Active; 'I' for Inactive)
REMARK    1  A    between atoms: O_1  and  C_10 
REMARK    2  A    between atoms: O_2  and  C_17 
REMARK    3  A    between atoms: O_3  and  C_20 
REMARK    4  A    between atoms: O_4  and  C_27 
REMARK    5  A    between atoms: O_6  and  C_29 
REMARK    6  A    between atoms: O_7  and  C_28 
REMARK    7  A    between atoms: O_8  and  C_33 
REMARK    8  A    between atoms: C_11  and  C_20 
REMARK    9  A    between atoms: C_20  and  C_28 
REMARK   10  A    between atoms: C_28  and  C_31 
REMARK   11  A    between atoms: C_31  and  C_32 
REMARK   12  A    between atoms: C_32  and  C_33 
ROOT
HETATM    1  O   UNK     0     165.549 174.281 164.959  0.00  0.00    -0.384 OA
HETATM    2  H   UNK     0     164.593 174.152 165.042  0.00  0.00     0.211 HD
ENDROOT
BRANCH   1   3
HETATM    3  C   UNK     0     166.184 173.119 164.378  0.00  0.00     0.090 C 
HETATM    4  C   UNK     0     165.795 173.008 162.882  0.00  0.00    -0.000 C 
HETATM    5  C   UNK     0     164.266 172.771 162.997  0.00  0.00     0.034 C 
HETATM    6  C   UNK     0     166.173 174.319 162.180  0.00  0.00     0.045 C 
HETATM    7  C   UNK     0     166.485 171.816 162.161  0.00  0.00     0.019 C 
HETATM    8  C   UNK     0     164.132 171.820 164.209  0.00  0.00     0.012 C 
HETATM    9  C   UNK     0     165.462 171.910 164.990  0.00  0.00     0.044 C 
HETATM   10  C   UNK     0     167.678 174.624 162.324  0.00  0.00     0.128 C 
HETATM   11  C   UNK     0     168.213 174.585 163.803  0.00  0.00     0.055 C 
HETATM   12  C   UNK     0     169.791 174.770 163.922  0.00  0.00    -0.021 C 
HETATM   13  C   UNK     0     167.675 173.341 164.540  0.00  0.00    -0.034 C 
HETATM   14  C   UNK     0     170.286 174.289 165.317  0.00  0.00     0.071 C 
HETATM   15  C   UNK     0     170.213 176.269 163.699  0.00  0.00     0.045 C 
HETATM   16  C   UNK     0     170.525 173.920 162.847  0.00  0.00     0.017 C 
HETATM   17  C   UNK     0     169.882 175.185 166.502  0.00  0.00     0.047 C 
HETATM   18  C   UNK     0     169.829 172.874 165.600  0.00  0.00     0.154 C 
HETATM   19  C   UNK     0     169.734 176.658 166.137  0.00  0.00     0.147 C 
HETATM   20  C   UNK     0     170.617 177.043 164.958  0.00  0.00     0.147 C 
HETATM   21  O   UNK     0     170.562 172.046 166.136  0.00  0.00    -0.293 OA
HETATM   22  C   UNK     0     168.424 172.532 165.302  0.00  0.00     0.057 C 
BRANCH   5  23
HETATM   23  C   UNK     0     163.563 172.246 161.753  0.00  0.00     0.084 C 
HETATM   24  C   UNK     0     162.236 172.995 161.550  0.00  0.00     0.049 C 
BRANCH  23  25
HETATM   25  O   UNK     0     164.390 172.522 160.615  0.00  0.00    -0.387 OA
HETATM   26  H   UNK     0     163.833 172.542 159.819  0.00  0.00     0.210 HD
ENDBRANCH  23  25
BRANCH  23  27
HETATM   27  C   UNK     0     163.323 170.713 161.817  0.00  0.00     0.152 C 
BRANCH  27  28
HETATM   28  O   UNK     0     163.903 170.089 160.667  0.00  0.00    -0.393 OA
HETATM   29  H   UNK     0     164.443 170.758 160.214  0.00  0.00     0.210 HD
ENDBRANCH  27  28
BRANCH  27  30
HETATM   30  C   UNK     0     161.838 170.308 161.891  0.00  0.00     0.037 C 
BRANCH  30  31
HETATM   31  C   UNK     0     161.530 169.470 163.146  0.00  0.00     0.040 C 
BRANCH  31  32
HETATM   32  C   UNK     0     160.321 168.521 163.002  0.00  0.00     0.051 C 
HETATM   33  C   UNK     0     160.772 167.212 162.346  0.00  0.00     0.045 C 
HETATM   34  C   UNK     0     159.645 168.226 164.343  0.00  0.00     0.045 C 
BRANCH  32  35
HETATM   35  O   UNK     0     159.365 169.138 162.139  0.00  0.00    -0.391 OA
HETATM   36  H   UNK     0     159.579 168.905 161.220  0.00  0.00     0.210 HD
ENDBRANCH  32  35
ENDBRANCH  31  32
ENDBRANCH  30  31
ENDBRANCH  27  30
ENDBRANCH  23  27
ENDBRANCH   5  23
BRANCH  10  37
HETATM   37  O   UNK     0     167.905 175.904 161.742  0.00  0.00    -0.395 OA
HETATM   38  H   UNK     0     168.239 176.492 162.441  0.00  0.00     0.210 HD
ENDBRANCH  10  37
BRANCH  19  39
HETATM   39  O   UNK     0     170.057 177.448 167.278  0.00  0.00    -0.393 OA
HETATM   40  H   UNK     0     171.024 177.484 167.360  0.00  0.00     0.210 HD
ENDBRANCH  19  39
BRANCH  20  41
HETATM   41  O   UNK     0     171.988 176.768 165.253  0.00  0.00    -0.393 OA
HETATM   42  H   UNK     0     172.283 176.064 164.651  0.00  0.00     0.210 HD
ENDBRANCH  20  41
ENDBRANCH   1   3
TORSDOF 12
ENDMDL
MODEL 8
REMARK VINA RESULT:      -8.2     14.766     17.625
REMARK  12 active torsions:
REMARK  status: ('A' for Active; 'I' for Inactive)
REMARK    1  A    between atoms: O_1  and  C_10 
REMARK    2  A    between atoms: O_2  and  C_17 
REMARK    3  A    between atoms: O_3  and  C_20 
REMARK    4  A    between atoms: O_4  and  C_27 
REMARK    5  A    between atoms: O_6  and  C_29 
REMARK    6  A    between atoms: O_7  and  C_28 
REMARK    7  A    between atoms: O_8  and  C_33 
REMARK    8  A    between atoms: C_11  and  C_20 
REMARK    9  A    between atoms: C_20  and  C_28 
REMARK   10  A    between atoms: C_28  and  C_31 
REMARK   11  A    between atoms: C_31  and  C_32 
REMARK   12  A    between atoms: C_32  and  C_33 
ROOT
HETATM    1  O   UNK     0     169.464 199.207 152.821  0.00  0.00    -0.384 OA
HETATM    2  H   UNK     0     168.753 199.598 152.293  0.00  0.00     0.211 HD
ENDROOT
BRANCH   1   3
HETATM    3  C   UNK     0     169.460 197.765 152.717  0.00  0.00     0.090 C 
HETATM    4  C   UNK     0     167.999 197.255 152.622  0.00  0.00    -0.000 C 
HETATM    5  C   UNK     0     167.450 197.686 154.007  0.00  0.00     0.034 C 
HETATM    6  C   UNK     0     167.316 197.948 151.435  0.00  0.00     0.045 C 
HETATM    7  C   UNK     0     167.903 195.713 152.447  0.00  0.00     0.019 C 
HETATM    8  C   UNK     0     168.622 197.396 154.973  0.00  0.00     0.012 C 
HETATM    9  C   UNK     0     169.889 197.256 154.101  0.00  0.00     0.044 C 
HETATM   10  C   UNK     0     168.068 197.681 150.115  0.00  0.00     0.128 C 
HETATM   11  C   UNK     0     169.607 198.002 150.164  0.00  0.00     0.055 C 
HETATM   12  C   UNK     0     170.392 197.596 148.839  0.00  0.00    -0.021 C 
HETATM   13  C   UNK     0     170.235 197.440 151.457  0.00  0.00    -0.034 C 
HETATM   14  C   UNK     0     171.922 197.529 149.118  0.00  0.00     0.071 C 
HETATM   15  C   UNK     0     170.112 198.612 147.670  0.00  0.00     0.045 C 
HETATM   16  C   UNK     0     169.945 196.192 148.345  0.00  0.00     0.017 C 
HETATM   17  C   UNK     0     172.606 198.887 149.357  0.00  0.00     0.047 C 
HETATM   18  C   UNK     0     172.223 196.620 150.291  0.00  0.00     0.154 C 
HETATM   19  C   UNK     0     171.949 200.046 148.616  0.00  0.00     0.147 C 
HETATM   20  C   UNK     0     171.250 199.584 147.345  0.00  0.00     0.147 C 
HETATM   21  O   UNK     0     173.176 195.843 150.287  0.00  0.00    -0.293 OA
HETATM   22  C   UNK     0     171.389 196.759 151.501  0.00  0.00     0.057 C 
BRANCH   5  23
HETATM   23  C   UNK     0     166.144 197.044 154.452  0.00  0.00     0.084 C 
HETATM   24  C   UNK     0     166.369 195.552 154.746  0.00  0.00     0.049 C 
BRANCH  23  25
HETATM   25  O   UNK     0     165.728 197.664 155.676  0.00  0.00    -0.387 OA
HETATM   26  H   UNK     0     166.413 198.293 155.959  0.00  0.00     0.210 HD
ENDBRANCH  23  25
BRANCH  23  27
HETATM   27  C   UNK     0     165.011 197.232 153.406  0.00  0.00     0.152 C 
BRANCH  27  28
HETATM   28  O   UNK     0     163.936 197.973 153.991  0.00  0.00    -0.393 OA
HETATM   29  H   UNK     0     163.632 197.479 154.771  0.00  0.00     0.210 HD
ENDBRANCH  27  28
BRANCH  27  30
HETATM   30  C   UNK     0     164.442 195.914 152.846  0.00  0.00     0.037 C 
BRANCH  30  31
HETATM   31  C   UNK     0     164.405 195.909 151.307  0.00  0.00     0.040 C 
BRANCH  31  32
HETATM   32  C   UNK     0     164.767 194.555 150.661  0.00  0.00     0.051 C 
HETATM   33  C   UNK     0     165.992 194.728 149.757  0.00  0.00     0.045 C 
HETATM   34  C   UNK     0     165.037 193.464 151.701  0.00  0.00     0.045 C 
BRANCH  32  35
HETATM   35  O   UNK     0     163.672 194.139 149.843  0.00  0.00    -0.391 OA
HETATM   36  H   UNK     0     162.899 194.689 150.056  0.00  0.00     0.210 HD
ENDBRANCH  32  35
ENDBRANCH  31  32
ENDBRANCH  30  31
ENDBRANCH  27  30
ENDBRANCH  23  27
ENDBRANCH   5  23
BRANCH  10  37
HETATM   37  O   UNK     0     167.427 198.452 149.103  0.00  0.00    -0.395 OA
HETATM   38  H   UNK     0     168.110 198.978 148.654  0.00  0.00     0.210 HD
ENDBRANCH  10  37
BRANCH  19  39
HETATM   39  O   UNK     0     172.944 201.019 148.312  0.00  0.00    -0.393 OA
HETATM   40  H   UNK     0     172.674 201.490 147.506  0.00  0.00     0.210 HD
ENDBRANCH  19  39
BRANCH  20  41
HETATM   41  O   UNK     0     172.180 198.938 146.474  0.00  0.00    -0.393 OA
HETATM   42  H   UNK     0     171.803 198.952 145.578  0.00  0.00     0.210 HD
ENDBRANCH  20  41
ENDBRANCH   1   3
TORSDOF 12
ENDMDL
MODEL 9
REMARK VINA RESULT:      -8.2      1.800      2.023
REMARK  12 active torsions:
REMARK  status: ('A' for Active; 'I' for Inactive)
REMARK    1  A    between atoms: O_1  and  C_10 
REMARK    2  A    between atoms: O_2  and  C_17 
REMARK    3  A    between atoms: O_3  and  C_20 
REMARK    4  A    between atoms: O_4  and  C_27 
REMARK    5  A    between atoms: O_6  and  C_29 
REMARK    6  A    between atoms: O_7  and  C_28 
REMARK    7  A    between atoms: O_8  and  C_33 
REMARK    8  A    between atoms: C_11  and  C_20 
REMARK    9  A    between atoms: C_20  and  C_28 
REMARK   10  A    between atoms: C_28  and  C_31 
REMARK   11  A    between atoms: C_31  and  C_32 
REMARK   12  A    between atoms: C_32  and  C_33 
ROOT
HETATM    1  O   UNK     0     159.586 184.894 160.569  0.00  0.00    -0.384 OA
HETATM    2  H   UNK     0     159.443 184.809 159.615  0.00  0.00     0.211 HD
ENDROOT
BRANCH   1   3
HETATM    3  C   UNK     0     159.684 186.282 160.961  0.00  0.00     0.090 C 
HETATM    4  C   UNK     0     161.041 186.862 160.483  0.00  0.00    -0.000 C 
HETATM    5  C   UNK     0     162.031 186.007 161.316  0.00  0.00     0.034 C 
HETATM    6  C   UNK     0     161.155 186.652 158.967  0.00  0.00     0.045 C 
HETATM    7  C   UNK     0     161.206 188.372 160.811  0.00  0.00     0.019 C 
HETATM    8  C   UNK     0     161.346 185.892 162.697  0.00  0.00     0.012 C 
HETATM    9  C   UNK     0     159.861 186.264 162.486  0.00  0.00     0.044 C 
HETATM   10  C   UNK     0     159.987 187.322 158.214  0.00  0.00     0.128 C 
HETATM   11  C   UNK     0     158.558 186.931 158.745  0.00  0.00     0.055 C 
HETATM   12  C   UNK     0     157.370 187.730 158.047  0.00  0.00    -0.021 C 
HETATM   13  C   UNK     0     158.523 186.985 160.287  0.00  0.00    -0.034 C 
HETATM   14  C   UNK     0     156.074 187.626 158.902  0.00  0.00     0.071 C 
HETATM   15  C   UNK     0     157.091 187.193 156.595  0.00  0.00     0.045 C 
HETATM   16  C   UNK     0     157.726 189.238 157.919  0.00  0.00     0.017 C 
HETATM   17  C   UNK     0     155.409 186.238 158.919  0.00  0.00     0.047 C 
HETATM   18  C   UNK     0     156.327 188.061 160.331  0.00  0.00     0.154 C 
HETATM   19  C   UNK     0     155.625 185.437 157.640  0.00  0.00     0.147 C 
HETATM   20  C   UNK     0     155.829 186.340 156.432  0.00  0.00     0.147 C 
HETATM   21  O   UNK     0     155.520 188.746 160.957  0.00  0.00    -0.293 OA
HETATM   22  C   UNK     0     157.540 187.554 161.000  0.00  0.00     0.057 C 
BRANCH   5  23
HETATM   23  C   UNK     0     163.462 186.517 161.406  0.00  0.00     0.084 C 
HETATM   24  C   UNK     0     164.383 185.643 160.539  0.00  0.00     0.049 C 
BRANCH  23  25
HETATM   25  O   UNK     0     163.504 187.846 160.870  0.00  0.00    -0.387 OA
HETATM   26  H   UNK     0     162.626 188.251 160.964  0.00  0.00     0.210 HD
ENDBRANCH  23  25
BRANCH  23  27
HETATM   27  C   UNK     0     163.976 186.570 162.871  0.00  0.00     0.152 C 
BRANCH  27  28
HETATM   28  O   UNK     0     165.056 187.504 162.967  0.00  0.00    -0.393 OA
HETATM   29  H   UNK     0     165.062 187.848 163.876  0.00  0.00     0.210 HD
ENDBRANCH  27  28
BRANCH  27  30
HETATM   30  C   UNK     0     164.457 185.214 163.421  0.00  0.00     0.037 C 
BRANCH  30  31
HETATM   31  C   UNK     0     164.260 185.106 164.944  0.00  0.00     0.040 C 
BRANCH  31  32
HETATM   32  C   UNK     0     163.719 183.743 165.426  0.00  0.00     0.051 C 
HETATM   33  C   UNK     0     164.862 182.724 165.470  0.00  0.00     0.045 C 
HETATM   34  C   UNK     0     163.046 183.831 166.798  0.00  0.00     0.045 C 
BRANCH  32  35
HETATM   35  O   UNK     0     162.755 183.281 164.478  0.00  0.00    -0.391 OA
HETATM   36  H   UNK     0     162.831 183.818 163.672  0.00  0.00     0.210 HD
ENDBRANCH  32  35
ENDBRANCH  31  32
ENDBRANCH  30  31
ENDBRANCH  27  30
ENDBRANCH  23  27
ENDBRANCH   5  23
BRANCH  10  37
HETATM   37  O   UNK     0     160.121 186.977 156.838  0.00  0.00    -0.395 OA
HETATM   38  H   UNK     0     161.045 187.138 156.581  0.00  0.00     0.210 HD
ENDBRANCH  10  37
BRANCH  19  39
HETATM   39  O   UNK     0     154.503 184.583 157.439  0.00  0.00    -0.393 OA
HETATM   40  H   UNK     0     154.718 183.959 156.726  0.00  0.00     0.210 HD
ENDBRANCH  19  39
BRANCH  20  41
HETATM   41  O   UNK     0     154.703 187.202 156.260  0.00  0.00    -0.393 OA
HETATM   42  H   UNK     0     154.939 187.864 155.588  0.00  0.00     0.210 HD
ENDBRANCH  20  41
ENDBRANCH   1   3
TORSDOF 12
ENDMDL
