MODEL 1
REMARK VINA RESULT:      -5.2      0.000      0.000
REMARK  4 active torsions:
REMARK  status: ('A' for Active; 'I' for Inactive)
REMARK    1  A    between atoms: O_1  and  C_10 
REMARK    2  A    between atoms: O_1  and  C_11 
REMARK    3  A    between atoms: N_3  and  C_7 
REMARK    4  A    between atoms: C_4  and  C_10 
ROOT
HETATM    1  O   UNK     0       3.992  42.076  21.794  0.00  0.00    -0.318 OA
ENDROOT
BRANCH   1   2
HETATM    2  C   UNK     0       3.448  42.772  20.748  0.00  0.00     0.293 C 
HETATM    3  O   UNK     0       2.497  42.366  20.067  0.00  0.00    -0.259 OA
BRANCH   2   4
HETATM    4  C   UNK     0       4.125  44.042  20.541  0.00  0.00     0.039 A 
HETATM    5  C   UNK     0       4.892  44.244  19.393  0.00  0.00     0.020 A 
HETATM    6  C   UNK     0       5.543  45.462  19.195  0.00  0.00     0.030 A 
HETATM    7  C   UNK     0       5.427  46.478  20.143  0.00  0.00     0.025 A 
HETATM    8  C   UNK     0       4.661  46.275  21.291  0.00  0.00     0.030 A 
HETATM    9  C   UNK     0       4.010  45.058  21.490  0.00  0.00     0.020 A 
BRANCH   7  10
HETATM   10  N   UNK     0       6.085  47.708  19.942  0.00  0.00    -0.399 N 
HETATM   11  H   UNK     0       7.019  47.847  20.303  0.00  0.00     0.156 HD
HETATM   12  H   UNK     0       5.622  48.453  19.438  0.00  0.00     0.156 HD
ENDBRANCH   7  10
ENDBRANCH   2   4
ENDBRANCH   1   2
BRANCH   1  13
HETATM   13  C   UNK     0       3.210  41.006  22.335  0.00  0.00     0.174 C 
HETATM   14  C   UNK     0       2.394  41.531  23.497  0.00  0.00     0.034 C 
ENDBRANCH   1  13
TORSDOF 4
ENDMDL
MODEL 2
REMARK VINA RESULT:      -5.2      3.430      5.206
REMARK  4 active torsions:
REMARK  status: ('A' for Active; 'I' for Inactive)
REMARK    1  A    between atoms: O_1  and  C_10 
REMARK    2  A    between atoms: O_1  and  C_11 
REMARK    3  A    between atoms: N_3  and  C_7 
REMARK    4  A    between atoms: C_4  and  C_10 
ROOT
HETATM    1  O   UNK     0       6.980  46.609  19.204  0.00  0.00    -0.318 OA
ENDROOT
BRANCH   1   2
HETATM    2  C   UNK     0       5.788  46.927  19.797  0.00  0.00     0.293 C 
HETATM    3  O   UNK     0       5.378  48.085  19.950  0.00  0.00    -0.259 OA
BRANCH   2   4
HETATM    4  C   UNK     0       5.071  45.737  20.225  0.00  0.00     0.039 A 
HETATM    5  C   UNK     0       4.352  45.748  21.421  0.00  0.00     0.020 A 
HETATM    6  C   UNK     0       3.664  44.605  21.831  0.00  0.00     0.030 A 
HETATM    7  C   UNK     0       3.694  43.452  21.046  0.00  0.00     0.025 A 
HETATM    8  C   UNK     0       4.412  43.442  19.851  0.00  0.00     0.030 A 
HETATM    9  C   UNK     0       5.101  44.584  19.440  0.00  0.00     0.020 A 
BRANCH   7  10
HETATM   10  N   UNK     0       2.999  42.298  21.461  0.00  0.00    -0.399 N 
HETATM   11  H   UNK     0       3.505  41.519  21.862  0.00  0.00     0.156 HD
HETATM   12  H   UNK     0       1.994  42.248  21.357  0.00  0.00     0.156 HD
ENDBRANCH   7  10
ENDBRANCH   2   4
ENDBRANCH   1   2
BRANCH   1  13
HETATM   13  C   UNK     0       8.089  46.360  20.074  0.00  0.00     0.174 C 
HETATM   14  C   UNK     0       9.019  45.365  19.415  0.00  0.00     0.034 C 
ENDBRANCH   1  13
TORSDOF 4
ENDMDL
MODEL 3
REMARK VINA RESULT:      -4.9     21.273     22.005
REMARK  4 active torsions:
REMARK  status: ('A' for Active; 'I' for Inactive)
REMARK    1  A    between atoms: O_1  and  C_10 
REMARK    2  A    between atoms: O_1  and  C_11 
REMARK    3  A    between atoms: N_3  and  C_7 
REMARK    4  A    between atoms: C_4  and  C_10 
ROOT
HETATM    1  O   UNK     0     -10.705  47.872   3.874  0.00  0.00    -0.318 OA
ENDROOT
BRANCH   1   2
HETATM    2  C   UNK     0      -9.424  48.339   4.000  0.00  0.00     0.293 C 
HETATM    3  O   UNK     0      -9.138  49.479   4.388  0.00  0.00    -0.259 OA
BRANCH   2   4
HETATM    4  C   UNK     0      -8.448  47.329   3.621  0.00  0.00     0.039 A 
HETATM    5  C   UNK     0      -7.157  47.711   3.254  0.00  0.00     0.020 A 
HETATM    6  C   UNK     0      -6.221  46.742   2.890  0.00  0.00     0.030 A 
HETATM    7  C   UNK     0      -6.576  45.393   2.893  0.00  0.00     0.025 A 
HETATM    8  C   UNK     0      -7.866  45.012   3.260  0.00  0.00     0.030 A 
HETATM    9  C   UNK     0      -8.803  45.980   3.623  0.00  0.00     0.020 A 
BRANCH   7  10
HETATM   10  N   UNK     0      -5.630  44.415   2.525  0.00  0.00    -0.399 N 
HETATM   11  H   UNK     0      -4.668  44.503   2.823  0.00  0.00     0.156 HD
HETATM   12  H   UNK     0      -5.913  43.624   1.960  0.00  0.00     0.156 HD
ENDBRANCH   7  10
ENDBRANCH   2   4
ENDBRANCH   1   2
BRANCH   1  13
HETATM   13  C   UNK     0     -11.583  48.086   4.984  0.00  0.00     0.174 C 
HETATM   14  C   UNK     0     -12.887  47.363   4.727  0.00  0.00     0.034 C 
ENDBRANCH   1  13
TORSDOF 4
ENDMDL
MODEL 4
REMARK VINA RESULT:      -4.8     18.694     20.074
REMARK  4 active torsions:
REMARK  status: ('A' for Active; 'I' for Inactive)
REMARK    1  A    between atoms: O_1  and  C_10 
REMARK    2  A    between atoms: O_1  and  C_11 
REMARK    3  A    between atoms: N_3  and  C_7 
REMARK    4  A    between atoms: C_4  and  C_10 
ROOT
HETATM    1  O   UNK     0      13.809  55.528  36.968  0.00  0.00    -0.318 OA
ENDROOT
BRANCH   1   2
HETATM    2  C   UNK     0      12.681  54.790  36.730  0.00  0.00     0.293 C 
HETATM    3  O   UNK     0      11.762  54.647  37.547  0.00  0.00    -0.259 OA
BRANCH   2   4
HETATM    4  C   UNK     0      12.701  54.199  35.401  0.00  0.00     0.039 A 
HETATM    5  C   UNK     0      11.812  54.649  34.425  0.00  0.00     0.020 A 
HETATM    6  C   UNK     0      11.831  54.081  33.150  0.00  0.00     0.030 A 
HETATM    7  C   UNK     0      12.738  53.064  32.853  0.00  0.00     0.025 A 
HETATM    8  C   UNK     0      13.625  52.614  33.830  0.00  0.00     0.030 A 
HETATM    9  C   UNK     0      13.607  53.181  35.104  0.00  0.00     0.020 A 
BRANCH   7  10
HETATM   10  N   UNK     0      12.756  52.490  31.565  0.00  0.00    -0.399 N 
HETATM   11  H   UNK     0      12.252  52.931  30.807  0.00  0.00     0.156 HD
HETATM   12  H   UNK     0      13.272  51.635  31.399  0.00  0.00     0.156 HD
ENDBRANCH   7  10
ENDBRANCH   2   4
ENDBRANCH   1   2
BRANCH   1  13
HETATM   13  C   UNK     0      14.469  55.313  38.221  0.00  0.00     0.174 C 
HETATM   14  C   UNK     0      15.547  54.268  38.036  0.00  0.00     0.034 C 
ENDBRANCH   1  13
TORSDOF 4
ENDMDL
MODEL 5
REMARK VINA RESULT:      -4.8     27.738     28.703
REMARK  4 active torsions:
REMARK  status: ('A' for Active; 'I' for Inactive)
REMARK    1  A    between atoms: O_1  and  C_10 
REMARK    2  A    between atoms: O_1  and  C_11 
REMARK    3  A    between atoms: N_3  and  C_7 
REMARK    4  A    between atoms: C_4  and  C_10 
ROOT
HETATM    1  O   UNK     0      14.897  68.441  11.322  0.00  0.00    -0.318 OA
ENDROOT
BRANCH   1   2
HETATM    2  C   UNK     0      16.076  68.547  12.008  0.00  0.00     0.293 C 
HETATM    3  O   UNK     0      16.269  69.345  12.935  0.00  0.00    -0.259 OA
BRANCH   2   4
HETATM    4  C   UNK     0      17.070  67.609  11.511  0.00  0.00     0.039 A 
HETATM    5  C   UNK     0      16.664  66.431  10.884  0.00  0.00     0.020 A 
HETATM    6  C   UNK     0      17.617  65.530  10.408  0.00  0.00     0.030 A 
HETATM    7  C   UNK     0      18.976  65.808  10.557  0.00  0.00     0.025 A 
HETATM    8  C   UNK     0      19.381  66.986  11.184  0.00  0.00     0.030 A 
HETATM    9  C   UNK     0      18.429  67.886  11.661  0.00  0.00     0.020 A 
BRANCH   7  10
HETATM   10  N   UNK     0      19.939  64.898  10.076  0.00  0.00    -0.399 N 
HETATM   11  H   UNK     0      20.480  64.343  10.725  0.00  0.00     0.156 HD
HETATM   12  H   UNK     0      20.090  64.801   9.080  0.00  0.00     0.156 HD
ENDBRANCH   7  10
ENDBRANCH   2   4
ENDBRANCH   1   2
BRANCH   1  13
HETATM   13  C   UNK     0      14.740  69.279  10.172  0.00  0.00     0.174 C 
HETATM   14  C   UNK     0      14.198  68.449   9.029  0.00  0.00     0.034 C 
ENDBRANCH   1  13
TORSDOF 4
ENDMDL
MODEL 6
REMARK VINA RESULT:      -4.7     18.625     19.918
REMARK  4 active torsions:
REMARK  status: ('A' for Active; 'I' for Inactive)
REMARK    1  A    between atoms: O_1  and  C_10 
REMARK    2  A    between atoms: O_1  and  C_11 
REMARK    3  A    between atoms: N_3  and  C_7 
REMARK    4  A    between atoms: C_4  and  C_10 
ROOT
HETATM    1  O   UNK     0      11.778  54.841  37.434  0.00  0.00    -0.318 OA
ENDROOT
BRANCH   1   2
HETATM    2  C   UNK     0      12.941  54.987  36.729  0.00  0.00     0.293 C 
HETATM    3  O   UNK     0      13.940  55.582  37.155  0.00  0.00    -0.259 OA
BRANCH   2   4
HETATM    4  C   UNK     0      12.855  54.359  35.420  0.00  0.00     0.039 A 
HETATM    5  C   UNK     0      13.733  53.328  35.082  0.00  0.00     0.020 A 
HETATM    6  C   UNK     0      13.650  52.726  33.826  0.00  0.00     0.030 A 
HETATM    7  C   UNK     0      12.689  53.153  32.909  0.00  0.00     0.025 A 
HETATM    8  C   UNK     0      11.812  54.183  33.247  0.00  0.00     0.030 A 
HETATM    9  C   UNK     0      11.895  54.786  34.503  0.00  0.00     0.020 A 
BRANCH   7  10
HETATM   10  N   UNK     0      12.606  52.545  31.640  0.00  0.00    -0.399 N 
HETATM   11  H   UNK     0      11.911  52.855  30.974  0.00  0.00     0.156 HD
HETATM   12  H   UNK     0      13.240  51.795  31.396  0.00  0.00     0.156 HD
ENDBRANCH   7  10
ENDBRANCH   2   4
ENDBRANCH   1   2
BRANCH   1  13
HETATM   13  C   UNK     0      11.890  54.781  38.861  0.00  0.00     0.174 C 
HETATM   14  C   UNK     0      11.237  53.508  39.352  0.00  0.00     0.034 C 
ENDBRANCH   1  13
TORSDOF 4
ENDMDL
MODEL 7
REMARK VINA RESULT:      -4.7      3.110      5.024
REMARK  4 active torsions:
REMARK  status: ('A' for Active; 'I' for Inactive)
REMARK    1  A    between atoms: O_1  and  C_10 
REMARK    2  A    between atoms: O_1  and  C_11 
REMARK    3  A    between atoms: N_3  and  C_7 
REMARK    4  A    between atoms: C_4  and  C_10 
ROOT
HETATM    1  O   UNK     0       5.572  44.737  20.400  0.00  0.00    -0.318 OA
ENDROOT
BRANCH   1   2
HETATM    2  C   UNK     0       4.816  43.912  19.611  0.00  0.00     0.293 C 
HETATM    3  O   UNK     0       4.722  44.025  18.382  0.00  0.00    -0.259 OA
BRANCH   2   4
HETATM    4  C   UNK     0       4.141  42.893  20.398  0.00  0.00     0.039 A 
HETATM    5  C   UNK     0       4.872  42.089  21.273  0.00  0.00     0.020 A 
HETATM    6  C   UNK     0       4.224  41.110  22.027  0.00  0.00     0.030 A 
HETATM    7  C   UNK     0       2.845  40.936  21.907  0.00  0.00     0.025 A 
HETATM    8  C   UNK     0       2.114  41.740  21.033  0.00  0.00     0.030 A 
HETATM    9  C   UNK     0       2.762  42.718  20.278  0.00  0.00     0.020 A 
BRANCH   7  10
HETATM   10  N   UNK     0       2.191  39.947  22.669  0.00  0.00    -0.399 N 
HETATM   11  H   UNK     0       2.639  39.055  22.834  0.00  0.00     0.156 HD
HETATM   12  H   UNK     0       1.271  40.127  23.051  0.00  0.00     0.156 HD
ENDBRANCH   7  10
ENDBRANCH   2   4
ENDBRANCH   1   2
BRANCH   1  13
HETATM   13  C   UNK     0       4.914  45.881  20.956  0.00  0.00     0.174 C 
HETATM   14  C   UNK     0       5.266  47.100  20.132  0.00  0.00     0.034 C 
ENDBRANCH   1  13
TORSDOF 4
ENDMDL
MODEL 8
REMARK VINA RESULT:      -4.7      1.742      2.311
REMARK  4 active torsions:
REMARK  status: ('A' for Active; 'I' for Inactive)
REMARK    1  A    between atoms: O_1  and  C_10 
REMARK    2  A    between atoms: O_1  and  C_11 
REMARK    3  A    between atoms: N_3  and  C_7 
REMARK    4  A    between atoms: C_4  and  C_10 
ROOT
HETATM    1  O   UNK     0       3.855  42.189  23.381  0.00  0.00    -0.318 OA
ENDROOT
BRANCH   1   2
HETATM    2  C   UNK     0       4.154  43.524  23.417  0.00  0.00     0.293 C 
HETATM    3  O   UNK     0       4.151  44.206  24.450  0.00  0.00    -0.259 OA
BRANCH   2   4
HETATM    4  C   UNK     0       4.472  44.036  22.094  0.00  0.00     0.039 A 
HETATM    5  C   UNK     0       4.719  43.151  21.045  0.00  0.00     0.020 A 
HETATM    6  C   UNK     0       5.026  43.643  19.775  0.00  0.00     0.030 A 
HETATM    7  C   UNK     0       5.084  45.019  19.555  0.00  0.00     0.025 A 
HETATM    8  C   UNK     0       4.836  45.903  20.604  0.00  0.00     0.030 A 
HETATM    9  C   UNK     0       4.531  45.412  21.874  0.00  0.00     0.020 A 
BRANCH   7  10
HETATM   10  N   UNK     0       5.393  45.515  18.273  0.00  0.00    -0.399 N 
HETATM   11  H   UNK     0       4.666  45.607  17.576  0.00  0.00     0.156 HD
HETATM   12  H   UNK     0       6.344  45.779  18.047  0.00  0.00     0.156 HD
ENDBRANCH   7  10
ENDBRANCH   2   4
ENDBRANCH   1   2
BRANCH   1  13
HETATM   13  C   UNK     0       2.521  41.815  23.744  0.00  0.00     0.174 C 
HETATM   14  C   UNK     0       2.563  41.045  25.046  0.00  0.00     0.034 C 
ENDBRANCH   1  13
TORSDOF 4
ENDMDL
MODEL 9
REMARK VINA RESULT:      -4.7     27.881     28.840
REMARK  4 active torsions:
REMARK  status: ('A' for Active; 'I' for Inactive)
REMARK    1  A    between atoms: O_1  and  C_10 
REMARK    2  A    between atoms: O_1  and  C_11 
REMARK    3  A    between atoms: N_3  and  C_7 
REMARK    4  A    between atoms: C_4  and  C_10 
ROOT
HETATM    1  O   UNK     0      17.937  67.239  11.069  0.00  0.00    -0.318 OA
ENDROOT
BRANCH   1   2
HETATM    2  C   UNK     0      17.006  66.440  10.463  0.00  0.00     0.293 C 
HETATM    3  O   UNK     0      17.131  65.217  10.319  0.00  0.00    -0.259 OA
BRANCH   2   4
HETATM    4  C   UNK     0      15.856  67.207  10.012  0.00  0.00     0.039 A 
HETATM    5  C   UNK     0      15.238  66.890   8.802  0.00  0.00     0.020 A 
HETATM    6  C   UNK     0      14.135  67.627   8.369  0.00  0.00     0.030 A 
HETATM    7  C   UNK     0      13.650  68.680   9.145  0.00  0.00     0.025 A 
HETATM    8  C   UNK     0      14.268  68.996  10.354  0.00  0.00     0.030 A 
HETATM    9  C   UNK     0      15.371  68.260  10.788  0.00  0.00     0.020 A 
BRANCH   7  10
HETATM   10  N   UNK     0      12.536  69.424   8.707  0.00  0.00    -0.399 N 
HETATM   11  H   UNK     0      11.605  69.167   9.006  0.00  0.00     0.156 HD
HETATM   12  H   UNK     0      12.667  70.216   8.090  0.00  0.00     0.156 HD
ENDBRANCH   7  10
ENDBRANCH   2   4
ENDBRANCH   1   2
BRANCH   1  13
HETATM   13  C   UNK     0      19.012  67.713  10.250  0.00  0.00     0.174 C 
HETATM   14  C   UNK     0      19.105  69.218  10.384  0.00  0.00     0.034 C 
ENDBRANCH   1  13
TORSDOF 4
ENDMDL
