MODEL 1
REMARK VINA RESULT:      -7.2      0.000      0.000
REMARK  30 active torsions:
REMARK  status: ('A' for Active; 'I' for Inactive)
REMARK    1  A    between atoms: C_1  and  C_7 
REMARK    2  A    between atoms: C_4  and  O_9 
REMARK    3  A    between atoms: C_5  and  O_11 
REMARK    4  A    between atoms: C_6  and  O_10 
REMARK    5  A    between atoms: C_7  and  O_78 
REMARK    6  A    between atoms: C_12  and  C_18 
REMARK    7  A    between atoms: C_15  and  O_76 
REMARK    8  A    between atoms: C_16  and  O_78 
REMARK    9  A    between atoms: C_17  and  O_77 
REMARK   10  A    between atoms: C_18  and  O_74 
REMARK   11  A    between atoms: C_19  and  O_27 
REMARK   12  A    between atoms: C_21  and  O_25 
REMARK   13  A    between atoms: C_23  and  O_26 
REMARK   14  A    between atoms: C_28  and  O_37 
REMARK   15  A    between atoms: C_30  and  O_35 
REMARK   16  A    between atoms: C_32  and  O_36 
REMARK   17  A    between atoms: O_36  and  C_67 
REMARK   18  A    between atoms: C_39  and  O_60 
REMARK   19  A    between atoms: C_41  and  O_58 
REMARK   20  A    between atoms: C_42  and  C_45 
REMARK   21  A    between atoms: C_43  and  O_59 
REMARK   22  A    between atoms: C_45  and  O_53 
REMARK   23  A    between atoms: C_47  and  O_53 
REMARK   24  A    between atoms: C_51  and  C_54 
REMARK   25  A    between atoms: C_54  and  O_74 
REMARK   26  A    between atoms: C_64  and  O_69 
REMARK   27  A    between atoms: C_65  and  C_72 
REMARK   28  A    between atoms: C_66  and  O_70 
REMARK   29  A    between atoms: C_68  and  O_71 
REMARK   30  A    between atoms: C_72  and  O_73 
ROOT
HETATM    1  C   UNK     0      -4.079  -1.472 -36.406  0.00  0.00     0.045 A 
HETATM    2  C   UNK     0      -4.399  -2.768 -36.029  0.00  0.00     0.057 A 
HETATM    3  C   UNK     0      -4.940  -0.755 -37.221  0.00  0.00     0.057 A 
HETATM    4  C   UNK     0      -5.580  -3.345 -36.467  0.00  0.00     0.102 A 
HETATM    5  C   UNK     0      -6.120  -1.334 -37.659  0.00  0.00     0.102 A 
HETATM    6  C   UNK     0      -6.440  -2.628 -37.282  0.00  0.00     0.132 A 
ENDROOT
BRANCH   1   7
HETATM    7  C   UNK     0      -2.830  -0.859 -35.940  0.00  0.00     0.298 C 
HETATM    8  O   UNK     0      -1.931  -0.654 -36.723  0.00  0.00    -0.259 OA
BRANCH   7   9
HETATM    9  O   UNK     0      -2.675  -0.520 -34.628  0.00  0.00    -0.272 OA
BRANCH   9  10
HETATM   10  C   UNK     0      -2.769   0.780 -34.220  0.00  0.00     0.116 A 
HETATM   11  C   UNK     0      -1.645   1.593 -34.243  0.00  0.00     0.058 A 
HETATM   12  C   UNK     0      -1.731   2.916 -33.836  0.00  0.00     0.045 A 
HETATM   13  C   UNK     0      -2.947   3.426 -33.404  0.00  0.00     0.057 A 
HETATM   14  C   UNK     0      -4.072   2.615 -33.375  0.00  0.00     0.102 A 
HETATM   15  C   UNK     0      -3.983   1.293 -33.784  0.00  0.00     0.133 A 
BRANCH  12  16
HETATM   16  C   UNK     0      -0.537   3.782 -33.860  0.00  0.00     0.293 C 
HETATM   17  O   UNK     0      -0.580   4.846 -34.435  0.00  0.00    -0.259 OA
BRANCH  16  18
HETATM   18  O   UNK     0       0.617   3.384 -33.257  0.00  0.00    -0.315 OA
BRANCH  18  19
HETATM   19  C   UNK     0       1.373   4.342 -32.532  0.00  0.00     0.213 C 
BRANCH  19  20
HETATM   20  C   UNK     0       0.925   4.561 -31.076  0.00  0.00     0.181 C 
HETATM   21  O   UNK     0       0.129   5.773 -31.019  0.00  0.00    -0.348 OA
HETATM   22  C   UNK     0      -0.934   5.883 -30.067  0.00  0.00     0.302 C 
HETATM   23  C   UNK     0      -1.815   4.665 -30.245  0.00  0.00     0.219 C 
HETATM   24  C   UNK     0      -1.018   3.533 -29.770  0.00  0.00     0.185 C 
HETATM   25  O   UNK     0      -3.013   4.686 -29.481  0.00  0.00    -0.304 OA
HETATM   26  C   UNK     0       0.157   3.264 -30.654  0.00  0.00     0.194 C 
HETATM   27  O   UNK     0      -1.837   2.376 -29.747  0.00  0.00    -0.388 OA
HETATM   28  O   UNK     0       0.996   2.396 -29.897  0.00  0.00    -0.307 OA
HETATM   29  C   UNK     0       0.407   1.376 -29.178  0.00  0.00     0.291 C 
HETATM   30  C   UNK     0      -0.757   0.647 -29.755  0.00  0.00     0.039 A 
HETATM   31  O   UNK     0       0.855   1.050 -28.104  0.00  0.00    -0.260 OA
HETATM   32  C   UNK     0      -2.079   0.698 -29.268  0.00  0.00     0.086 A 
HETATM   33  C   UNK     0      -0.471  -0.141 -30.861  0.00  0.00     0.054 A 
HETATM   34  C   UNK     0      -3.056  -0.047 -29.917  0.00  0.00     0.096 A 
HETATM   35  C   UNK     0      -2.559   1.447 -28.046  0.00  0.00     0.013 A 
HETATM   36  H   UNK     0      -2.008   1.895 -28.874  0.00  0.00     0.229 HD
HETATM   37  C   UNK     0      -2.753  -0.828 -31.019  0.00  0.00     0.129 A 
HETATM   38  C   UNK     0      -1.457  -0.876 -31.493  0.00  0.00     0.102 A 
HETATM   39  C   UNK     0      -2.323   0.822 -26.827  0.00  0.00     0.110 A 
HETATM   40  C   UNK     0      -3.275   2.661 -28.054  0.00  0.00     0.052 A 
HETATM   41  C   UNK     0      -2.786   1.365 -25.639  0.00  0.00     0.133 A 
HETATM   42  C   UNK     0      -3.503   2.547 -25.650  0.00  0.00     0.113 A 
HETATM   43  C   UNK     0      -3.733   3.185 -26.857  0.00  0.00     0.058 A 
HETATM   44  C   UNK     0      -3.605   3.454 -29.272  0.00  0.00     0.294 C 
HETATM   45  O   UNK     0      -4.402   3.021 -30.073  0.00  0.00    -0.259 OA
BRANCH  22  46
HETATM   46  O   UNK     0      -1.658   7.094 -30.273  0.00  0.00    -0.283 OA
BRANCH  46  47
HETATM   47  C   UNK     0      -1.991   7.854 -29.185  0.00  0.00     0.295 C 
HETATM   48  O   UNK     0      -1.110   8.291 -28.481  0.00  0.00    -0.259 OA
BRANCH  47  49
HETATM   49  C   UNK     0      -3.405   8.150 -28.833  0.00  0.00     0.045 A 
HETATM   50  C   UNK     0      -3.841   8.115 -27.515  0.00  0.00     0.057 A 
HETATM   51  C   UNK     0      -5.168   8.392 -27.213  0.00  0.00     0.102 A 
HETATM   52  C   UNK     0      -6.063   8.703 -28.225  0.00  0.00     0.132 A 
HETATM   53  C   UNK     0      -5.631   8.740 -29.541  0.00  0.00     0.102 A 
HETATM   54  C   UNK     0      -4.304   8.465 -29.842  0.00  0.00     0.057 A 
BRANCH  51  55
HETATM   55  O   UNK     0      -5.595   8.356 -25.923  0.00  0.00    -0.358 OA
HETATM   56  H   UNK     0      -6.263   9.041 -25.592  0.00  0.00     0.217 HD
ENDBRANCH  51  55
BRANCH  52  57
HETATM   57  O   UNK     0      -7.364   8.975 -27.930  0.00  0.00    -0.356 OA
HETATM   58  H   UNK     0      -8.105   8.585 -28.499  0.00  0.00     0.218 HD
ENDBRANCH  52  57
BRANCH  53  59
HETATM   59  O   UNK     0      -6.509   9.042 -30.537  0.00  0.00    -0.358 OA
HETATM   60  H   UNK     0      -7.317   9.619 -30.341  0.00  0.00     0.217 HD
ENDBRANCH  53  59
ENDBRANCH  47  49
ENDBRANCH  46  47
ENDBRANCH  22  46
BRANCH  34  61
HETATM   61  O   UNK     0      -4.334  -0.022 -29.448  0.00  0.00    -0.361 OA
HETATM   62  H   UNK     0      -4.599   0.647 -28.736  0.00  0.00     0.217 HD
ENDBRANCH  34  61
BRANCH  37  63
HETATM   63  O   UNK     0      -3.727  -1.550 -31.631  0.00  0.00    -0.356 OA
HETATM   64  H   UNK     0      -4.679  -1.209 -31.640  0.00  0.00     0.218 HD
ENDBRANCH  37  63
BRANCH  38  65
HETATM   65  O   UNK     0      -1.153  -1.647 -32.572  0.00  0.00    -0.358 OA
HETATM   66  H   UNK     0      -1.101  -1.232 -33.494  0.00  0.00     0.217 HD
ENDBRANCH  38  65
BRANCH  39  67
HETATM   67  O   UNK     0      -1.641  -0.355 -26.797  0.00  0.00    -0.357 OA
HETATM   68  H   UNK     0      -1.988  -1.127 -26.242  0.00  0.00     0.217 HD
ENDBRANCH  39  67
BRANCH  41  69
HETATM   69  O   UNK     0      -2.542   0.727 -24.463  0.00  0.00    -0.356 OA
HETATM   70  H   UNK     0      -1.672   0.886 -23.972  0.00  0.00     0.218 HD
ENDBRANCH  41  69
BRANCH  42  71
HETATM   71  O   UNK     0      -3.979   3.072 -24.481  0.00  0.00    -0.304 OA
BRANCH  71  72
HETATM   72  C   UNK     0      -5.282   3.462 -24.329  0.00  0.00     0.120 A 
HETATM   73  C   UNK     0      -6.227   2.548 -23.890  0.00  0.00     0.005 A 
HETATM   74  C   UNK     0      -7.547   2.935 -23.732  0.00  0.00     0.051 A 
HETATM   75  C   UNK     0      -7.929   4.238 -24.013  0.00  0.00     0.102 A 
HETATM   76  C   UNK     0      -6.986   5.153 -24.453  0.00  0.00     0.135 A 
HETATM   77  C   UNK     0      -5.664   4.768 -24.611  0.00  0.00     0.136 A 
BRANCH  73  78
HETATM   78  C   UNK     0      -5.817   1.130 -23.581  0.00  0.00     0.205 C 
BRANCH  78  79
HETATM   79  O   UNK     0      -5.768   0.382 -24.786  0.00  0.00    -0.396 OA
HETATM   80  H   UNK     0      -6.549  -0.206 -25.047  0.00  0.00     0.209 HD
ENDBRANCH  78  79
ENDBRANCH  73  78
BRANCH  75  81
HETATM   81  O   UNK     0      -9.227   4.614 -23.858  0.00  0.00    -0.358 OA
HETATM   82  H   UNK     0      -9.534   5.022 -22.985  0.00  0.00     0.217 HD
ENDBRANCH  75  81
BRANCH  76  83
HETATM   83  O   UNK     0      -7.357   6.432 -24.731  0.00  0.00    -0.356 OA
HETATM   84  H   UNK     0      -8.230   6.794 -24.370  0.00  0.00     0.218 HD
ENDBRANCH  76  83
BRANCH  77  85
HETATM   85  O   UNK     0      -4.743   5.673 -25.043  0.00  0.00    -0.356 OA
HETATM   86  H   UNK     0      -3.869   5.354 -25.443  0.00  0.00     0.218 HD
ENDBRANCH  77  85
ENDBRANCH  71  72
ENDBRANCH  42  71
ENDBRANCH  19  20
ENDBRANCH  18  19
ENDBRANCH  16  18
ENDBRANCH  12  16
BRANCH  14  87
HETATM   87  O   UNK     0      -5.263   3.113 -32.947  0.00  0.00    -0.358 OA
HETATM   88  H   UNK     0      -5.398   3.329 -31.968  0.00  0.00     0.217 HD
ENDBRANCH  14  87
BRANCH  15  89
HETATM   89  O   UNK     0      -5.085   0.496 -33.759  0.00  0.00    -0.356 OA
HETATM   90  H   UNK     0      -5.030  -0.453 -34.104  0.00  0.00     0.218 HD
ENDBRANCH  15  89
ENDBRANCH   9  10
ENDBRANCH   7   9
ENDBRANCH   1   7
BRANCH   4  91
HETATM   91  O   UNK     0      -5.896  -4.615 -36.099  0.00  0.00    -0.358 OA
HETATM   92  H   UNK     0      -6.034  -5.327 -36.805  0.00  0.00     0.217 HD
ENDBRANCH   4  91
BRANCH   5  93
HETATM   93  O   UNK     0      -6.965  -0.633 -38.464  0.00  0.00    -0.358 OA
HETATM   94  H   UNK     0      -6.605  -0.158 -39.283  0.00  0.00     0.217 HD
ENDBRANCH   5  93
BRANCH   6  95
HETATM   95  O   UNK     0      -7.598  -3.195 -37.714  0.00  0.00    -0.356 OA
HETATM   96  H   UNK     0      -8.400  -3.238 -37.098  0.00  0.00     0.218 HD
ENDBRANCH   6  95
TORSDOF 30
ENDMDL
MODEL 2
REMARK VINA RESULT:      -7.0      2.238      4.026
REMARK  30 active torsions:
REMARK  status: ('A' for Active; 'I' for Inactive)
REMARK    1  A    between atoms: C_1  and  C_7 
REMARK    2  A    between atoms: C_4  and  O_9 
REMARK    3  A    between atoms: C_5  and  O_11 
REMARK    4  A    between atoms: C_6  and  O_10 
REMARK    5  A    between atoms: C_7  and  O_78 
REMARK    6  A    between atoms: C_12  and  C_18 
REMARK    7  A    between atoms: C_15  and  O_76 
REMARK    8  A    between atoms: C_16  and  O_78 
REMARK    9  A    between atoms: C_17  and  O_77 
REMARK   10  A    between atoms: C_18  and  O_74 
REMARK   11  A    between atoms: C_19  and  O_27 
REMARK   12  A    between atoms: C_21  and  O_25 
REMARK   13  A    between atoms: C_23  and  O_26 
REMARK   14  A    between atoms: C_28  and  O_37 
REMARK   15  A    between atoms: C_30  and  O_35 
REMARK   16  A    between atoms: C_32  and  O_36 
REMARK   17  A    between atoms: O_36  and  C_67 
REMARK   18  A    between atoms: C_39  and  O_60 
REMARK   19  A    between atoms: C_41  and  O_58 
REMARK   20  A    between atoms: C_42  and  C_45 
REMARK   21  A    between atoms: C_43  and  O_59 
REMARK   22  A    between atoms: C_45  and  O_53 
REMARK   23  A    between atoms: C_47  and  O_53 
REMARK   24  A    between atoms: C_51  and  C_54 
REMARK   25  A    between atoms: C_54  and  O_74 
REMARK   26  A    between atoms: C_64  and  O_69 
REMARK   27  A    between atoms: C_65  and  C_72 
REMARK   28  A    between atoms: C_66  and  O_70 
REMARK   29  A    between atoms: C_68  and  O_71 
REMARK   30  A    between atoms: C_72  and  O_73 
ROOT
HETATM    1  C   UNK     0      -6.947  -2.813 -36.712  0.00  0.00     0.045 A 
HETATM    2  C   UNK     0      -7.065  -4.139 -36.323  0.00  0.00     0.057 A 
HETATM    3  C   UNK     0      -8.067  -1.997 -36.741  0.00  0.00     0.057 A 
HETATM    4  C   UNK     0      -8.303  -4.648 -35.964  0.00  0.00     0.102 A 
HETATM    5  C   UNK     0      -9.304  -2.508 -36.383  0.00  0.00     0.102 A 
HETATM    6  C   UNK     0      -9.422  -3.832 -35.994  0.00  0.00     0.132 A 
ENDROOT
BRANCH   1   7
HETATM    7  C   UNK     0      -5.636  -2.273 -37.090  0.00  0.00     0.298 C 
HETATM    8  O   UNK     0      -5.420  -1.966 -38.240  0.00  0.00    -0.259 OA
BRANCH   7   9
HETATM    9  O   UNK     0      -4.658  -2.116 -36.152  0.00  0.00    -0.272 OA
BRANCH   9  10
HETATM   10  C   UNK     0      -4.189  -0.875 -35.823  0.00  0.00     0.116 A 
HETATM   11  C   UNK     0      -2.984  -0.433 -36.350  0.00  0.00     0.058 A 
HETATM   12  C   UNK     0      -2.501   0.826 -36.027  0.00  0.00     0.045 A 
HETATM   13  C   UNK     0      -3.228   1.645 -35.173  0.00  0.00     0.057 A 
HETATM   14  C   UNK     0      -4.431   1.203 -34.642  0.00  0.00     0.102 A 
HETATM   15  C   UNK     0      -4.911  -0.056 -34.968  0.00  0.00     0.133 A 
BRANCH  12  16
HETATM   16  C   UNK     0      -1.221   1.299 -36.584  0.00  0.00     0.293 C 
HETATM   17  O   UNK     0      -1.123   1.502 -37.774  0.00  0.00    -0.259 OA
BRANCH  16  18
HETATM   18  O   UNK     0      -0.143   1.490 -35.774  0.00  0.00    -0.315 OA
BRANCH  18  19
HETATM   19  C   UNK     0       0.341   2.811 -35.584  0.00  0.00     0.213 C 
BRANCH  19  20
HETATM   20  C   UNK     0       0.388   3.283 -34.120  0.00  0.00     0.181 C 
HETATM   21  O   UNK     0      -0.264   4.577 -34.034  0.00  0.00    -0.348 OA
HETATM   22  C   UNK     0      -0.965   4.944 -32.841  0.00  0.00     0.302 C 
HETATM   23  C   UNK     0      -1.938   3.825 -32.538  0.00  0.00     0.219 C 
HETATM   24  C   UNK     0      -1.111   2.685 -32.138  0.00  0.00     0.185 C 
HETATM   25  O   UNK     0      -2.831   4.093 -31.466  0.00  0.00    -0.304 OA
HETATM   26  C   UNK     0      -0.295   2.158 -33.274  0.00  0.00     0.194 C 
HETATM   27  O   UNK     0      -1.959   1.647 -31.675  0.00  0.00    -0.388 OA
HETATM   28  O   UNK     0       0.679   1.313 -32.666  0.00  0.00    -0.307 OA
HETATM   29  C   UNK     0       0.276   0.480 -31.642  0.00  0.00     0.291 C 
HETATM   30  C   UNK     0      -1.057  -0.181 -31.712  0.00  0.00     0.039 A 
HETATM   31  O   UNK     0       1.016   0.257 -30.712  0.00  0.00    -0.260 OA
HETATM   32  C   UNK     0      -2.152   0.093 -30.868  0.00  0.00     0.086 A 
HETATM   33  C   UNK     0      -1.187  -1.144 -32.702  0.00  0.00     0.054 A 
HETATM   34  C   UNK     0      -3.332  -0.616 -31.058  0.00  0.00     0.096 A 
HETATM   35  C   UNK     0      -2.172   1.057 -29.704  0.00  0.00     0.013 A 
HETATM   36  H   UNK     0      -1.879   1.316 -30.722  0.00  0.00     0.229 HD
HETATM   37  C   UNK     0      -3.445  -1.574 -32.052  0.00  0.00     0.129 A 
HETATM   38  C   UNK     0      -2.369  -1.840 -32.876  0.00  0.00     0.102 A 
HETATM   39  C   UNK     0      -1.609   0.586 -28.524  0.00  0.00     0.110 A 
HETATM   40  C   UNK     0      -2.770   2.333 -29.704  0.00  0.00     0.052 A 
HETATM   41  C   UNK     0      -1.637   1.341 -27.362  0.00  0.00     0.133 A 
HETATM   42  C   UNK     0      -2.238   2.585 -27.359  0.00  0.00     0.113 A 
HETATM   43  C   UNK     0      -2.792   3.071 -28.531  0.00  0.00     0.058 A 
HETATM   44  C   UNK     0      -3.411   2.981 -30.883  0.00  0.00     0.294 C 
HETATM   45  O   UNK     0      -4.446   2.536 -31.324  0.00  0.00    -0.259 OA
BRANCH  22  46
HETATM   46  O   UNK     0      -1.632   6.190 -33.024  0.00  0.00    -0.283 OA
BRANCH  46  47
HETATM   47  C   UNK     0      -2.130   6.496 -34.261  0.00  0.00     0.295 C 
HETATM   48  O   UNK     0      -1.502   7.237 -34.981  0.00  0.00    -0.259 OA
BRANCH  47  49
HETATM   49  C   UNK     0      -3.428   5.955 -34.743  0.00  0.00     0.045 A 
HETATM   50  C   UNK     0      -3.504   5.188 -35.898  0.00  0.00     0.057 A 
HETATM   51  C   UNK     0      -4.730   4.697 -36.329  0.00  0.00     0.102 A 
HETATM   52  C   UNK     0      -5.882   4.972 -35.610  0.00  0.00     0.132 A 
HETATM   53  C   UNK     0      -5.810   5.736 -34.456  0.00  0.00     0.102 A 
HETATM   54  C   UNK     0      -4.584   6.224 -34.025  0.00  0.00     0.057 A 
BRANCH  51  55
HETATM   55  O   UNK     0      -4.804   3.948 -37.461  0.00  0.00    -0.358 OA
HETATM   56  H   UNK     0      -5.623   4.005 -38.053  0.00  0.00     0.217 HD
ENDBRANCH  51  55
BRANCH  52  57
HETATM   57  O   UNK     0      -7.085   4.491 -36.031  0.00  0.00    -0.356 OA
HETATM   58  H   UNK     0      -7.311   3.513 -35.905  0.00  0.00     0.218 HD
ENDBRANCH  52  57
BRANCH  53  59
HETATM   59  O   UNK     0      -6.942   6.010 -33.750  0.00  0.00    -0.358 OA
HETATM   60  H   UNK     0      -7.238   6.969 -33.622  0.00  0.00     0.217 HD
ENDBRANCH  53  59
ENDBRANCH  47  49
ENDBRANCH  46  47
ENDBRANCH  22  46
BRANCH  34  61
HETATM   61  O   UNK     0      -4.394  -0.375 -30.240  0.00  0.00    -0.361 OA
HETATM   62  H   UNK     0      -5.327  -0.309 -30.627  0.00  0.00     0.217 HD
ENDBRANCH  34  61
BRANCH  37  63
HETATM   63  O   UNK     0      -4.608  -2.255 -32.212  0.00  0.00    -0.356 OA
HETATM   64  H   UNK     0      -5.024  -2.337 -33.131  0.00  0.00     0.218 HD
ENDBRANCH  37  63
BRANCH  38  65
HETATM   65  O   UNK     0      -2.473  -2.786 -33.849  0.00  0.00    -0.358 OA
HETATM   66  H   UNK     0      -2.875  -3.690 -33.635  0.00  0.00     0.217 HD
ENDBRANCH  38  65
BRANCH  39  67
HETATM   67  O   UNK     0      -1.034  -0.647 -28.500  0.00  0.00    -0.357 OA
HETATM   68  H   UNK     0      -1.553  -1.453 -28.824  0.00  0.00     0.217 HD
ENDBRANCH  39  67
BRANCH  41  69
HETATM   69  O   UNK     0      -1.081   0.851 -26.222  0.00  0.00    -0.356 OA
HETATM   70  H   UNK     0      -1.620   0.247 -25.615  0.00  0.00     0.218 HD
ENDBRANCH  41  69
BRANCH  42  71
HETATM   71  O   UNK     0      -2.287   3.322 -26.208  0.00  0.00    -0.304 OA
BRANCH  71  72
HETATM   72  C   UNK     0      -3.454   3.546 -25.528  0.00  0.00     0.120 A 
HETATM   73  C   UNK     0      -4.097   4.768 -25.651  0.00  0.00     0.005 A 
HETATM   74  C   UNK     0      -5.279   5.002 -24.969  0.00  0.00     0.051 A 
HETATM   75  C   UNK     0      -5.822   4.016 -24.159  0.00  0.00     0.102 A 
HETATM   76  C   UNK     0      -5.179   2.794 -24.033  0.00  0.00     0.135 A 
HETATM   77  C   UNK     0      -3.997   2.557 -24.717  0.00  0.00     0.136 A 
BRANCH  73  78
HETATM   78  C   UNK     0      -3.511   5.842 -26.532  0.00  0.00     0.205 C 
BRANCH  78  79
HETATM   79  O   UNK     0      -2.406   6.440 -25.872  0.00  0.00    -0.396 OA
HETATM   80  H   UNK     0      -2.558   7.028 -25.063  0.00  0.00     0.209 HD
ENDBRANCH  78  79
ENDBRANCH  73  78
BRANCH  75  81
HETATM   81  O   UNK     0      -6.982   4.251 -23.488  0.00  0.00    -0.358 OA
HETATM   82  H   UNK     0      -7.869   4.172 -23.970  0.00  0.00     0.217 HD
ENDBRANCH  75  81
BRANCH  76  83
HETATM   83  O   UNK     0      -5.709   1.826 -23.238  0.00  0.00    -0.356 OA
HETATM   84  H   UNK     0      -6.249   2.082 -22.423  0.00  0.00     0.218 HD
ENDBRANCH  76  83
BRANCH  77  85
HETATM   85  O   UNK     0      -3.372   1.355 -24.589  0.00  0.00    -0.356 OA
HETATM   86  H   UNK     0      -2.983   1.079 -23.696  0.00  0.00     0.218 HD
ENDBRANCH  77  85
ENDBRANCH  71  72
ENDBRANCH  42  71
ENDBRANCH  19  20
ENDBRANCH  18  19
ENDBRANCH  16  18
ENDBRANCH  12  16
BRANCH  14  87
HETATM   87  O   UNK     0      -5.141   2.003 -33.801  0.00  0.00    -0.358 OA
HETATM   88  H   UNK     0      -6.152   1.967 -33.802  0.00  0.00     0.217 HD
ENDBRANCH  14  87
BRANCH  15  89
HETATM   89  O   UNK     0      -6.092  -0.490 -34.449  0.00  0.00    -0.356 OA
HETATM   90  H   UNK     0      -6.524  -1.330 -34.812  0.00  0.00     0.218 HD
ENDBRANCH  15  89
ENDBRANCH   9  10
ENDBRANCH   7   9
ENDBRANCH   1   7
BRANCH   4  91
HETATM   91  O   UNK     0      -8.421  -5.948 -35.583  0.00  0.00    -0.358 OA
HETATM   92  H   UNK     0      -8.806  -6.176 -34.675  0.00  0.00     0.217 HD
ENDBRANCH   4  91
BRANCH   5  93
HETATM   93  O   UNK     0     -10.406  -1.709 -36.417  0.00  0.00    -0.358 OA
HETATM   94  H   UNK     0     -10.671  -1.250 -37.279  0.00  0.00     0.217 HD
ENDBRANCH   5  93
BRANCH   6  95
HETATM   95  O   UNK     0     -10.637  -4.332 -35.643  0.00  0.00    -0.356 OA
HETATM   96  H   UNK     0     -10.865  -5.297 -35.845  0.00  0.00     0.218 HD
ENDBRANCH   6  95
TORSDOF 30
ENDMDL
MODEL 3
REMARK VINA RESULT:      -7.0      2.767     10.416
REMARK  30 active torsions:
REMARK  status: ('A' for Active; 'I' for Inactive)
REMARK    1  A    between atoms: C_1  and  C_7 
REMARK    2  A    between atoms: C_4  and  O_9 
REMARK    3  A    between atoms: C_5  and  O_11 
REMARK    4  A    between atoms: C_6  and  O_10 
REMARK    5  A    between atoms: C_7  and  O_78 
REMARK    6  A    between atoms: C_12  and  C_18 
REMARK    7  A    between atoms: C_15  and  O_76 
REMARK    8  A    between atoms: C_16  and  O_78 
REMARK    9  A    between atoms: C_17  and  O_77 
REMARK   10  A    between atoms: C_18  and  O_74 
REMARK   11  A    between atoms: C_19  and  O_27 
REMARK   12  A    between atoms: C_21  and  O_25 
REMARK   13  A    between atoms: C_23  and  O_26 
REMARK   14  A    between atoms: C_28  and  O_37 
REMARK   15  A    between atoms: C_30  and  O_35 
REMARK   16  A    between atoms: C_32  and  O_36 
REMARK   17  A    between atoms: O_36  and  C_67 
REMARK   18  A    between atoms: C_39  and  O_60 
REMARK   19  A    between atoms: C_41  and  O_58 
REMARK   20  A    between atoms: C_42  and  C_45 
REMARK   21  A    between atoms: C_43  and  O_59 
REMARK   22  A    between atoms: C_45  and  O_53 
REMARK   23  A    between atoms: C_47  and  O_53 
REMARK   24  A    between atoms: C_51  and  C_54 
REMARK   25  A    between atoms: C_54  and  O_74 
REMARK   26  A    between atoms: C_64  and  O_69 
REMARK   27  A    between atoms: C_65  and  C_72 
REMARK   28  A    between atoms: C_66  and  O_70 
REMARK   29  A    between atoms: C_68  and  O_71 
REMARK   30  A    between atoms: C_72  and  O_73 
ROOT
HETATM    1  C   UNK     0      -7.158   3.887 -23.540  0.00  0.00     0.045 A 
HETATM    2  C   UNK     0      -6.493   2.679 -23.686  0.00  0.00     0.057 A 
HETATM    3  C   UNK     0      -8.163   4.016 -22.596  0.00  0.00     0.057 A 
HETATM    4  C   UNK     0      -6.835   1.600 -22.887  0.00  0.00     0.102 A 
HETATM    5  C   UNK     0      -8.504   2.936 -21.797  0.00  0.00     0.102 A 
HETATM    6  C   UNK     0      -7.841   1.729 -21.943  0.00  0.00     0.132 A 
ENDROOT
BRANCH   1   7
HETATM    7  C   UNK     0      -6.795   5.031 -24.385  0.00  0.00     0.298 C 
HETATM    8  O   UNK     0      -5.972   4.894 -25.261  0.00  0.00    -0.259 OA
BRANCH   7   9
HETATM    9  O   UNK     0      -7.379   6.248 -24.189  0.00  0.00    -0.272 OA
BRANCH   9  10
HETATM   10  C   UNK     0      -6.641   7.397 -24.222  0.00  0.00     0.116 A 
HETATM   11  C   UNK     0      -5.520   7.519 -23.414  0.00  0.00     0.058 A 
HETATM   12  C   UNK     0      -4.761   8.680 -23.442  0.00  0.00     0.045 A 
HETATM   13  C   UNK     0      -5.128   9.721 -24.283  0.00  0.00     0.057 A 
HETATM   14  C   UNK     0      -6.252   9.605 -25.088  0.00  0.00     0.102 A 
HETATM   15  C   UNK     0      -7.007   8.443 -25.058  0.00  0.00     0.133 A 
BRANCH  12  16
HETATM   16  C   UNK     0      -3.569   8.812 -22.585  0.00  0.00     0.293 C 
HETATM   17  O   UNK     0      -3.679   8.706 -21.385  0.00  0.00    -0.259 OA
BRANCH  16  18
HETATM   18  O   UNK     0      -2.350   9.071 -23.133  0.00  0.00    -0.315 OA
BRANCH  18  19
HETATM   19  C   UNK     0      -1.246   8.261 -22.756  0.00  0.00     0.213 C 
BRANCH  19  20
HETATM   20  C   UNK     0      -0.697   7.349 -23.868  0.00  0.00     0.181 C 
HETATM   21  O   UNK     0      -1.101   5.984 -23.582  0.00  0.00    -0.348 OA
HETATM   22  C   UNK     0      -1.353   5.076 -24.659  0.00  0.00     0.302 C 
HETATM   23  C   UNK     0      -2.342   5.751 -25.585  0.00  0.00     0.219 C 
HETATM   24  C   UNK     0      -1.607   6.855 -26.205  0.00  0.00     0.185 C 
HETATM   25  O   UNK     0      -2.826   4.926 -26.635  0.00  0.00    -0.304 OA
HETATM   26  C   UNK     0      -1.252   7.918 -25.216  0.00  0.00     0.194 C 
HETATM   27  O   UNK     0      -2.419   7.434 -27.213  0.00  0.00    -0.388 OA
HETATM   28  O   UNK     0      -0.274   8.720 -25.873  0.00  0.00    -0.307 OA
HETATM   29  C   UNK     0      -0.469   9.032 -27.204  0.00  0.00     0.291 C 
HETATM   30  C   UNK     0      -1.843   9.329 -27.697  0.00  0.00     0.039 A 
HETATM   31  O   UNK     0       0.474   9.102 -27.956  0.00  0.00    -0.260 OA
HETATM   32  C   UNK     0      -2.585   8.526 -28.586  0.00  0.00     0.086 A 
HETATM   33  C   UNK     0      -2.400  10.506 -27.219  0.00  0.00     0.054 A 
HETATM   34  C   UNK     0      -3.858   8.944 -28.956  0.00  0.00     0.096 A 
HETATM   35  C   UNK     0      -2.117   7.252 -29.251  0.00  0.00     0.013 A 
HETATM   36  H   UNK     0      -2.108   7.432 -28.176  0.00  0.00     0.229 HD
HETATM   37  C   UNK     0      -4.398  10.122 -28.469  0.00  0.00     0.129 A 
HETATM   38  C   UNK     0      -3.668  10.906 -27.598  0.00  0.00     0.102 A 
HETATM   39  C   UNK     0      -1.302   7.420 -30.364  0.00  0.00     0.110 A 
HETATM   40  C   UNK     0      -2.497   5.945 -28.884  0.00  0.00     0.052 A 
HETATM   41  C   UNK     0      -0.873   6.335 -31.112  0.00  0.00     0.133 A 
HETATM   42  C   UNK     0      -1.260   5.055 -30.761  0.00  0.00     0.113 A 
HETATM   43  C   UNK     0      -2.062   4.874 -29.647  0.00  0.00     0.058 A 
HETATM   44  C   UNK     0      -3.360   5.597 -27.720  0.00  0.00     0.294 C 
HETATM   45  O   UNK     0      -4.533   5.896 -27.731  0.00  0.00    -0.259 OA
BRANCH  22  46
HETATM   46  O   UNK     0      -1.856   3.841 -24.157  0.00  0.00    -0.283 OA
BRANCH  46  47
HETATM   47  C   UNK     0      -1.280   2.674 -24.579  0.00  0.00     0.295 C 
HETATM   48  O   UNK     0      -0.144   2.425 -24.245  0.00  0.00    -0.259 OA
BRANCH  47  49
HETATM   49  C   UNK     0      -2.001   1.707 -25.447  0.00  0.00     0.045 A 
HETATM   50  C   UNK     0      -3.358   1.466 -25.284  0.00  0.00     0.057 A 
HETATM   51  C   UNK     0      -4.008   0.555 -26.108  0.00  0.00     0.102 A 
HETATM   52  C   UNK     0      -3.305  -0.117 -27.095  0.00  0.00     0.132 A 
HETATM   53  C   UNK     0      -1.950   0.123 -27.262  0.00  0.00     0.102 A 
HETATM   54  C   UNK     0      -1.302   1.034 -26.440  0.00  0.00     0.057 A 
BRANCH  51  55
HETATM   55  O   UNK     0      -5.337   0.318 -25.945  0.00  0.00    -0.358 OA
HETATM   56  H   UNK     0      -5.792   0.566 -25.076  0.00  0.00     0.217 HD
ENDBRANCH  51  55
BRANCH  52  57
HETATM   57  O   UNK     0      -3.941  -1.009 -27.903  0.00  0.00    -0.356 OA
HETATM   58  H   UNK     0      -3.622  -1.969 -27.947  0.00  0.00     0.218 HD
ENDBRANCH  52  57
BRANCH  53  59
HETATM   59  O   UNK     0      -1.257  -0.540 -28.229  0.00  0.00    -0.358 OA
HETATM   60  H   UNK     0      -1.426  -1.525 -28.387  0.00  0.00     0.217 HD
ENDBRANCH  53  59
ENDBRANCH  47  49
ENDBRANCH  46  47
ENDBRANCH  22  46
BRANCH  34  61
HETATM   61  O   UNK     0      -4.580   8.188 -29.828  0.00  0.00    -0.361 OA
HETATM   62  H   UNK     0      -4.716   7.201 -29.650  0.00  0.00     0.217 HD
ENDBRANCH  34  61
BRANCH  37  63
HETATM   63  O   UNK     0      -5.642  10.509 -28.851  0.00  0.00    -0.356 OA
HETATM   64  H   UNK     0      -6.455  10.150 -28.368  0.00  0.00     0.218 HD
ENDBRANCH  37  63
BRANCH  38  65
HETATM   65  O   UNK     0      -4.192  12.069 -27.124  0.00  0.00    -0.358 OA
HETATM   66  H   UNK     0      -4.476  12.138 -26.154  0.00  0.00     0.217 HD
ENDBRANCH  38  65
BRANCH  39  67
HETATM   67  O   UNK     0      -0.931   8.673 -30.742  0.00  0.00    -0.357 OA
HETATM   68  H   UNK     0      -0.914   8.923 -31.722  0.00  0.00     0.217 HD
ENDBRANCH  39  67
BRANCH  41  69
HETATM   69  O   UNK     0      -0.080   6.532 -32.198  0.00  0.00    -0.356 OA
HETATM   70  H   UNK     0       0.926   6.454 -32.111  0.00  0.00     0.218 HD
ENDBRANCH  41  69
BRANCH  42  71
HETATM   71  O   UNK     0      -0.856   3.985 -31.511  0.00  0.00    -0.304 OA
BRANCH  71  72
HETATM   72  C   UNK     0      -1.695   2.949 -31.824  0.00  0.00     0.120 A 
HETATM   73  C   UNK     0      -2.569   3.072 -32.893  0.00  0.00     0.005 A 
HETATM   74  C   UNK     0      -3.419   2.028 -33.217  0.00  0.00     0.051 A 
HETATM   75  C   UNK     0      -3.400   0.858 -32.473  0.00  0.00     0.102 A 
HETATM   76  C   UNK     0      -2.527   0.734 -31.403  0.00  0.00     0.135 A 
HETATM   77  C   UNK     0      -1.675   1.777 -31.078  0.00  0.00     0.136 A 
BRANCH  73  78
HETATM   78  C   UNK     0      -2.592   4.341 -33.705  0.00  0.00     0.205 C 
BRANCH  78  79
HETATM   79  O   UNK     0      -1.310   4.561 -34.272  0.00  0.00    -0.396 OA
HETATM   80  H   UNK     0      -1.228   4.965 -35.195  0.00  0.00     0.209 HD
ENDBRANCH  78  79
ENDBRANCH  73  78
BRANCH  75  81
HETATM   81  O   UNK     0      -4.238  -0.164 -32.793  0.00  0.00    -0.358 OA
HETATM   82  H   UNK     0      -4.027  -1.106 -32.488  0.00  0.00     0.217 HD
ENDBRANCH  75  81
BRANCH  76  83
HETATM   83  O   UNK     0      -2.507  -0.412 -30.671  0.00  0.00    -0.356 OA
HETATM   84  H   UNK     0      -2.628  -1.305 -31.129  0.00  0.00     0.218 HD
ENDBRANCH  76  83
BRANCH  77  85
HETATM   85  O   UNK     0      -0.820   1.649 -30.026  0.00  0.00    -0.356 OA
HETATM   86  H   UNK     0      -0.114   0.924 -30.033  0.00  0.00     0.218 HD
ENDBRANCH  77  85
ENDBRANCH  71  72
ENDBRANCH  42  71
ENDBRANCH  19  20
ENDBRANCH  18  19
ENDBRANCH  16  18
ENDBRANCH  12  16
BRANCH  14  87
HETATM   87  O   UNK     0      -6.614  10.628 -25.907  0.00  0.00    -0.358 OA
HETATM   88  H   UNK     0      -7.588  10.891 -25.988  0.00  0.00     0.217 HD
ENDBRANCH  14  87
BRANCH  15  89
HETATM   89  O   UNK     0      -8.108   8.325 -25.848  0.00  0.00    -0.356 OA
HETATM   90  H   UNK     0      -8.982   8.749 -25.563  0.00  0.00     0.218 HD
ENDBRANCH  15  89
ENDBRANCH   9  10
ENDBRANCH   7   9
ENDBRANCH   1   7
BRANCH   4  91
HETATM   91  O   UNK     0      -6.186   0.413 -23.028  0.00  0.00    -0.358 OA
HETATM   92  H   UNK     0      -5.184   0.365 -22.893  0.00  0.00     0.217 HD
ENDBRANCH   4  91
BRANCH   5  93
HETATM   93  O   UNK     0      -9.496   3.059 -20.873  0.00  0.00    -0.358 OA
HETATM   94  H   UNK     0      -9.599   3.922 -20.354  0.00  0.00     0.217 HD
ENDBRANCH   5  93
BRANCH   6  95
HETATM   95  O   UNK     0      -8.177   0.669 -21.159  0.00  0.00    -0.356 OA
HETATM   96  H   UNK     0      -7.859   0.628 -20.199  0.00  0.00     0.218 HD
ENDBRANCH   6  95
TORSDOF 30
ENDMDL
MODEL 4
REMARK VINA RESULT:      -7.0      2.738      5.997
REMARK  30 active torsions:
REMARK  status: ('A' for Active; 'I' for Inactive)
REMARK    1  A    between atoms: C_1  and  C_7 
REMARK    2  A    between atoms: C_4  and  O_9 
REMARK    3  A    between atoms: C_5  and  O_11 
REMARK    4  A    between atoms: C_6  and  O_10 
REMARK    5  A    between atoms: C_7  and  O_78 
REMARK    6  A    between atoms: C_12  and  C_18 
REMARK    7  A    between atoms: C_15  and  O_76 
REMARK    8  A    between atoms: C_16  and  O_78 
REMARK    9  A    between atoms: C_17  and  O_77 
REMARK   10  A    between atoms: C_18  and  O_74 
REMARK   11  A    between atoms: C_19  and  O_27 
REMARK   12  A    between atoms: C_21  and  O_25 
REMARK   13  A    between atoms: C_23  and  O_26 
REMARK   14  A    between atoms: C_28  and  O_37 
REMARK   15  A    between atoms: C_30  and  O_35 
REMARK   16  A    between atoms: C_32  and  O_36 
REMARK   17  A    between atoms: O_36  and  C_67 
REMARK   18  A    between atoms: C_39  and  O_60 
REMARK   19  A    between atoms: C_41  and  O_58 
REMARK   20  A    between atoms: C_42  and  C_45 
REMARK   21  A    between atoms: C_43  and  O_59 
REMARK   22  A    between atoms: C_45  and  O_53 
REMARK   23  A    between atoms: C_47  and  O_53 
REMARK   24  A    between atoms: C_51  and  C_54 
REMARK   25  A    between atoms: C_54  and  O_74 
REMARK   26  A    between atoms: C_64  and  O_69 
REMARK   27  A    between atoms: C_65  and  C_72 
REMARK   28  A    between atoms: C_66  and  O_70 
REMARK   29  A    between atoms: C_68  and  O_71 
REMARK   30  A    between atoms: C_72  and  O_73 
ROOT
HETATM    1  C   UNK     0      -8.029  -2.467 -37.269  0.00  0.00     0.045 A 
HETATM    2  C   UNK     0      -7.792  -3.582 -38.059  0.00  0.00     0.057 A 
HETATM    3  C   UNK     0      -8.961  -2.529 -36.246  0.00  0.00     0.057 A 
HETATM    4  C   UNK     0      -8.487  -4.758 -37.825  0.00  0.00     0.102 A 
HETATM    5  C   UNK     0      -9.657  -3.704 -36.013  0.00  0.00     0.102 A 
HETATM    6  C   UNK     0      -9.420  -4.818 -36.802  0.00  0.00     0.132 A 
ENDROOT
BRANCH   1   7
HETATM    7  C   UNK     0      -7.291  -1.223 -37.516  0.00  0.00     0.298 C 
HETATM    8  O   UNK     0      -7.858  -0.273 -38.005  0.00  0.00    -0.259 OA
BRANCH   7   9
HETATM    9  O   UNK     0      -5.967  -1.131 -37.197  0.00  0.00    -0.272 OA
BRANCH   9  10
HETATM   10  C   UNK     0      -5.559  -0.493 -36.061  0.00  0.00     0.116 A 
HETATM   11  C   UNK     0      -5.418   0.888 -36.059  0.00  0.00     0.058 A 
HETATM   12  C   UNK     0      -5.008   1.547 -34.910  0.00  0.00     0.045 A 
HETATM   13  C   UNK     0      -4.739   0.820 -33.758  0.00  0.00     0.057 A 
HETATM   14  C   UNK     0      -4.874  -0.561 -33.759  0.00  0.00     0.102 A 
HETATM   15  C   UNK     0      -5.285  -1.216 -34.909  0.00  0.00     0.133 A 
BRANCH  12  16
HETATM   16  C   UNK     0      -4.857   3.013 -34.905  0.00  0.00     0.293 C 
HETATM   17  O   UNK     0      -4.819   3.615 -35.955  0.00  0.00    -0.259 OA
BRANCH  16  18
HETATM   18  O   UNK     0      -4.741   3.692 -33.731  0.00  0.00    -0.315 OA
BRANCH  18  19
HETATM   19  C   UNK     0      -3.693   4.639 -33.591  0.00  0.00     0.213 C 
BRANCH  19  20
HETATM   20  C   UNK     0      -2.701   4.348 -32.450  0.00  0.00     0.181 C 
HETATM   21  O   UNK     0      -3.419   4.413 -31.191  0.00  0.00    -0.348 OA
HETATM   22  C   UNK     0      -3.017   3.581 -30.098  0.00  0.00     0.302 C 
HETATM   23  C   UNK     0      -2.965   2.161 -30.618  0.00  0.00     0.219 C 
HETATM   24  C   UNK     0      -1.829   2.124 -31.541  0.00  0.00     0.185 C 
HETATM   25  O   UNK     0      -2.732   1.174 -29.623  0.00  0.00    -0.304 OA
HETATM   26  C   UNK     0      -2.070   2.950 -32.762  0.00  0.00     0.194 C 
HETATM   27  O   UNK     0      -1.611   0.781 -31.942  0.00  0.00    -0.388 OA
HETATM   28  O   UNK     0      -0.789   3.092 -33.370  0.00  0.00    -0.307 OA
HETATM   29  C   UNK     0       0.039   1.988 -33.418  0.00  0.00     0.291 C 
HETATM   30  C   UNK     0      -0.543   0.641 -33.673  0.00  0.00     0.039 A 
HETATM   31  O   UNK     0       1.234   2.119 -33.292  0.00  0.00    -0.260 OA
HETATM   32  C   UNK     0      -0.598  -0.417 -32.743  0.00  0.00     0.086 A 
HETATM   33  C   UNK     0      -1.060   0.453 -34.947  0.00  0.00     0.054 A 
HETATM   34  C   UNK     0      -1.172  -1.620 -33.138  0.00  0.00     0.096 A 
HETATM   35  C   UNK     0      -0.033  -0.412 -31.341  0.00  0.00     0.013 A 
HETATM   36  H   UNK     0      -0.732   0.328 -31.733  0.00  0.00     0.229 HD
HETATM   37  C   UNK     0      -1.683  -1.789 -34.413  0.00  0.00     0.129 A 
HETATM   38  C   UNK     0      -1.626  -0.751 -35.321  0.00  0.00     0.102 A 
HETATM   39  C   UNK     0       1.336  -0.635 -31.245  0.00  0.00     0.110 A 
HETATM   40  C   UNK     0      -0.780  -0.280 -30.154  0.00  0.00     0.052 A 
HETATM   41  C   UNK     0       1.963  -0.737 -30.013  0.00  0.00     0.133 A 
HETATM   42  C   UNK     0       1.226  -0.623 -28.849  0.00  0.00     0.113 A 
HETATM   43  C   UNK     0      -0.136  -0.389 -28.933  0.00  0.00     0.058 A 
HETATM   44  C   UNK     0      -2.249  -0.035 -30.087  0.00  0.00     0.294 C 
HETATM   45  O   UNK     0      -3.018  -0.903 -30.432  0.00  0.00    -0.259 OA
BRANCH  22  46
HETATM   46  O   UNK     0      -3.933   3.714 -29.013  0.00  0.00    -0.283 OA
BRANCH  46  47
HETATM   47  C   UNK     0      -3.437   3.844 -27.745  0.00  0.00     0.295 C 
HETATM   48  O   UNK     0      -2.782   4.823 -27.467  0.00  0.00    -0.259 OA
BRANCH  47  49
HETATM   49  C   UNK     0      -3.665   2.813 -26.698  0.00  0.00     0.045 A 
HETATM   50  C   UNK     0      -3.306   1.488 -26.903  0.00  0.00     0.057 A 
HETATM   51  C   UNK     0      -3.533   0.543 -25.910  0.00  0.00     0.102 A 
HETATM   52  C   UNK     0      -4.120   0.919 -24.712  0.00  0.00     0.132 A 
HETATM   53  C   UNK     0      -4.478   2.241 -24.504  0.00  0.00     0.102 A 
HETATM   54  C   UNK     0      -4.249   3.184 -25.496  0.00  0.00     0.057 A 
BRANCH  51  55
HETATM   55  O   UNK     0      -3.183  -0.755 -26.112  0.00  0.00    -0.358 OA
HETATM   56  H   UNK     0      -2.363  -1.134 -25.656  0.00  0.00     0.217 HD
ENDBRANCH  51  55
BRANCH  52  57
HETATM   57  O   UNK     0      -4.342  -0.006 -23.738  0.00  0.00    -0.356 OA
HETATM   58  H   UNK     0      -3.780  -0.846 -23.698  0.00  0.00     0.218 HD
ENDBRANCH  52  57
BRANCH  53  59
HETATM   59  O   UNK     0      -5.058   2.611 -23.328  0.00  0.00    -0.358 OA
HETATM   60  H   UNK     0      -5.342   1.905 -22.661  0.00  0.00     0.217 HD
ENDBRANCH  53  59
ENDBRANCH  47  49
ENDBRANCH  46  47
ENDBRANCH  22  46
BRANCH  34  61
HETATM   61  O   UNK     0      -1.217  -2.657 -32.257  0.00  0.00    -0.361 OA
HETATM   62  H   UNK     0      -1.104  -3.607 -32.587  0.00  0.00     0.217 HD
ENDBRANCH  34  61
BRANCH  37  63
HETATM   63  O   UNK     0      -2.233  -2.977 -34.773  0.00  0.00    -0.356 OA
HETATM   64  H   UNK     0      -2.408  -3.687 -34.073  0.00  0.00     0.218 HD
ENDBRANCH  37  63
BRANCH  38  65
HETATM   65  O   UNK     0      -2.120  -0.916 -36.578  0.00  0.00    -0.358 OA
HETATM   66  H   UNK     0      -2.849  -1.598 -36.751  0.00  0.00     0.217 HD
ENDBRANCH  38  65
BRANCH  39  67
HETATM   67  O   UNK     0       2.075  -0.775 -32.379  0.00  0.00    -0.357 OA
HETATM   68  H   UNK     0       1.616  -0.824 -33.279  0.00  0.00     0.217 HD
ENDBRANCH  39  67
BRANCH  41  69
HETATM   69  O   UNK     0       3.303  -0.959 -29.952  0.00  0.00    -0.356 OA
HETATM   70  H   UNK     0       3.923  -0.496 -30.604  0.00  0.00     0.218 HD
ENDBRANCH  41  69
BRANCH  42  71
HETATM   71  O   UNK     0       1.840  -0.746 -27.633  0.00  0.00    -0.304 OA
BRANCH  71  72
HETATM   72  C   UNK     0       1.974   0.308 -26.769  0.00  0.00     0.120 A 
HETATM   73  C   UNK     0       1.210   0.349 -25.613  0.00  0.00     0.005 A 
HETATM   74  C   UNK     0       1.341   1.410 -24.733  0.00  0.00     0.051 A 
HETATM   75  C   UNK     0       2.233   2.435 -25.005  0.00  0.00     0.102 A 
HETATM   76  C   UNK     0       2.997   2.396 -26.162  0.00  0.00     0.135 A 
HETATM   77  C   UNK     0       2.869   1.334 -27.043  0.00  0.00     0.136 A 
BRANCH  73  78
HETATM   78  C   UNK     0       0.239  -0.764 -25.311  0.00  0.00     0.205 C 
BRANCH  78  79
HETATM   79  O   UNK     0       0.942  -1.865 -24.757  0.00  0.00    -0.396 OA
HETATM   80  H   UNK     0       0.742  -2.169 -23.814  0.00  0.00     0.209 HD
ENDBRANCH  78  79
ENDBRANCH  73  78
BRANCH  75  81
HETATM   81  O   UNK     0       2.357   3.476 -24.139  0.00  0.00    -0.358 OA
HETATM   82  H   UNK     0       2.220   3.328 -23.147  0.00  0.00     0.217 HD
ENDBRANCH  75  81
BRANCH  76  83
HETATM   83  O   UNK     0       3.872   3.401 -26.433  0.00  0.00    -0.356 OA
HETATM   84  H   UNK     0       4.687   3.220 -27.004  0.00  0.00     0.218 HD
ENDBRANCH  76  83
BRANCH  77  85
HETATM   85  O   UNK     0       3.621   1.303 -28.177  0.00  0.00    -0.356 OA
HETATM   86  H   UNK     0       4.595   1.030 -28.131  0.00  0.00     0.218 HD
ENDBRANCH  77  85
ENDBRANCH  71  72
ENDBRANCH  42  71
ENDBRANCH  19  20
ENDBRANCH  18  19
ENDBRANCH  16  18
ENDBRANCH  12  16
BRANCH  14  87
HETATM   87  O   UNK     0      -4.605  -1.274 -32.632  0.00  0.00    -0.358 OA
HETATM   88  H   UNK     0      -4.971  -0.968 -31.740  0.00  0.00     0.217 HD
ENDBRANCH  14  87
BRANCH  15  89
HETATM   89  O   UNK     0      -5.420  -2.569 -34.911  0.00  0.00    -0.356 OA
HETATM   90  H   UNK     0      -6.133  -3.005 -35.482  0.00  0.00     0.218 HD
ENDBRANCH  15  89
ENDBRANCH   9  10
ENDBRANCH   7   9
ENDBRANCH   1   7
BRANCH   4  91
HETATM   91  O   UNK     0      -8.257  -5.852 -38.598  0.00  0.00    -0.358 OA
HETATM   92  H   UNK     0      -7.414  -6.396 -38.468  0.00  0.00     0.217 HD
ENDBRANCH   4  91
BRANCH   5  93
HETATM   93  O   UNK     0     -10.577  -3.764 -35.012  0.00  0.00    -0.358 OA
HETATM   94  H   UNK     0     -11.407  -4.333 -35.122  0.00  0.00     0.217 HD
ENDBRANCH   5  93
BRANCH   6  95
HETATM   95  O   UNK     0     -10.103  -5.971 -36.573  0.00  0.00    -0.356 OA
HETATM   96  H   UNK     0     -10.730  -6.039 -35.782  0.00  0.00     0.218 HD
ENDBRANCH   6  95
TORSDOF 30
ENDMDL
MODEL 5
REMARK VINA RESULT:      -6.9      8.675     13.040
REMARK  30 active torsions:
REMARK  status: ('A' for Active; 'I' for Inactive)
REMARK    1  A    between atoms: C_1  and  C_7 
REMARK    2  A    between atoms: C_4  and  O_9 
REMARK    3  A    between atoms: C_5  and  O_11 
REMARK    4  A    between atoms: C_6  and  O_10 
REMARK    5  A    between atoms: C_7  and  O_78 
REMARK    6  A    between atoms: C_12  and  C_18 
REMARK    7  A    between atoms: C_15  and  O_76 
REMARK    8  A    between atoms: C_16  and  O_78 
REMARK    9  A    between atoms: C_17  and  O_77 
REMARK   10  A    between atoms: C_18  and  O_74 
REMARK   11  A    between atoms: C_19  and  O_27 
REMARK   12  A    between atoms: C_21  and  O_25 
REMARK   13  A    between atoms: C_23  and  O_26 
REMARK   14  A    between atoms: C_28  and  O_37 
REMARK   15  A    between atoms: C_30  and  O_35 
REMARK   16  A    between atoms: C_32  and  O_36 
REMARK   17  A    between atoms: O_36  and  C_67 
REMARK   18  A    between atoms: C_39  and  O_60 
REMARK   19  A    between atoms: C_41  and  O_58 
REMARK   20  A    between atoms: C_42  and  C_45 
REMARK   21  A    between atoms: C_43  and  O_59 
REMARK   22  A    between atoms: C_45  and  O_53 
REMARK   23  A    between atoms: C_47  and  O_53 
REMARK   24  A    between atoms: C_51  and  C_54 
REMARK   25  A    between atoms: C_54  and  O_74 
REMARK   26  A    between atoms: C_64  and  O_69 
REMARK   27  A    between atoms: C_65  and  C_72 
REMARK   28  A    between atoms: C_66  and  O_70 
REMARK   29  A    between atoms: C_68  and  O_71 
REMARK   30  A    between atoms: C_72  and  O_73 
ROOT
HETATM    1  C   UNK     0       8.606 -11.664 -23.758  0.00  0.00     0.045 A 
HETATM    2  C   UNK     0       8.810 -12.806 -22.997  0.00  0.00     0.057 A 
HETATM    3  C   UNK     0       9.154 -10.457 -23.355  0.00  0.00     0.057 A 
HETATM    4  C   UNK     0       9.560 -12.739 -21.834  0.00  0.00     0.102 A 
HETATM    5  C   UNK     0       9.904 -10.391 -22.192  0.00  0.00     0.102 A 
HETATM    6  C   UNK     0      10.107 -11.531 -21.432  0.00  0.00     0.132 A 
ENDROOT
BRANCH   1   7
HETATM    7  C   UNK     0       7.814 -11.736 -24.991  0.00  0.00     0.298 C 
HETATM    8  O   UNK     0       8.274 -12.274 -25.971  0.00  0.00    -0.259 OA
BRANCH   7   9
HETATM    9  O   UNK     0       6.560 -11.199 -25.038  0.00  0.00    -0.272 OA
BRANCH   9  10
HETATM   10  C   UNK     0       6.307 -10.062 -25.750  0.00  0.00     0.116 A 
HETATM   11  C   UNK     0       6.320  -8.831 -25.109  0.00  0.00     0.058 A 
HETATM   12  C   UNK     0       6.069  -7.669 -25.823  0.00  0.00     0.045 A 
HETATM   13  C   UNK     0       5.804  -7.741 -27.184  0.00  0.00     0.057 A 
HETATM   14  C   UNK     0       5.785  -8.970 -27.826  0.00  0.00     0.102 A 
HETATM   15  C   UNK     0       6.038 -10.129 -27.110  0.00  0.00     0.133 A 
BRANCH  12  16
HETATM   16  C   UNK     0       6.081  -6.360 -25.145  0.00  0.00     0.293 C 
HETATM   17  O   UNK     0       5.877  -6.300 -23.953  0.00  0.00    -0.259 OA
BRANCH  16  18
HETATM   18  O   UNK     0       6.302  -5.218 -25.852  0.00  0.00    -0.315 OA
BRANCH  18  19
HETATM   19  C   UNK     0       5.819  -3.989 -25.330  0.00  0.00     0.213 C 
BRANCH  19  20
HETATM   20  C   UNK     0       4.311  -3.746 -25.524  0.00  0.00     0.181 C 
HETATM   21  O   UNK     0       3.791  -3.115 -24.325  0.00  0.00    -0.348 OA
HETATM   22  C   UNK     0       2.701  -2.193 -24.422  0.00  0.00     0.302 C 
HETATM   23  C   UNK     0       3.087  -1.156 -25.455  0.00  0.00     0.219 C 
HETATM   24  C   UNK     0       3.081  -1.862 -26.738  0.00  0.00     0.185 C 
HETATM   25  O   UNK     0       2.180  -0.069 -25.569  0.00  0.00    -0.304 OA
HETATM   26  C   UNK     0       4.170  -2.882 -26.822  0.00  0.00     0.194 C 
HETATM   27  O   UNK     0       3.270  -0.917 -27.778  0.00  0.00    -0.388 OA
HETATM   28  O   UNK     0       3.827  -3.695 -27.942  0.00  0.00    -0.307 OA
HETATM   29  C   UNK     0       3.352  -3.075 -29.080  0.00  0.00     0.291 C 
HETATM   30  C   UNK     0       3.934  -1.772 -29.506  0.00  0.00     0.039 A 
HETATM   31  O   UNK     0       2.496  -3.605 -29.749  0.00  0.00    -0.260 OA
HETATM   32  C   UNK     0       3.262  -0.533 -29.498  0.00  0.00     0.086 A 
HETATM   33  C   UNK     0       5.249  -1.828 -29.945  0.00  0.00     0.054 A 
HETATM   34  C   UNK     0       3.944   0.597 -29.933  0.00  0.00     0.096 A 
HETATM   35  C   UNK     0       1.819  -0.296 -29.115  0.00  0.00     0.013 A 
HETATM   36  H   UNK     0       2.556  -0.795 -28.485  0.00  0.00     0.229 HD
HETATM   37  C   UNK     0       5.256   0.523 -30.367  0.00  0.00     0.129 A 
HETATM   38  C   UNK     0       5.912  -0.693 -30.374  0.00  0.00     0.102 A 
HETATM   39  C   UNK     0       0.880  -0.597 -30.095  0.00  0.00     0.110 A 
HETATM   40  C   UNK     0       1.372   0.265 -27.902  0.00  0.00     0.052 A 
HETATM   41  C   UNK     0      -0.469  -0.347 -29.899  0.00  0.00     0.133 A 
HETATM   42  C   UNK     0      -0.904   0.218 -28.715  0.00  0.00     0.113 A 
HETATM   43  C   UNK     0       0.020   0.511 -27.727  0.00  0.00     0.058 A 
HETATM   44  C   UNK     0       2.247   0.639 -26.755  0.00  0.00     0.294 C 
HETATM   45  O   UNK     0       3.011   1.571 -26.862  0.00  0.00    -0.259 OA
BRANCH  22  46
HETATM   46  O   UNK     0       2.440  -1.602 -23.151  0.00  0.00    -0.283 OA
BRANCH  46  47
HETATM   47  C   UNK     0       1.764  -2.331 -22.212  0.00  0.00     0.295 C 
HETATM   48  O   UNK     0       2.204  -2.394 -21.087  0.00  0.00    -0.259 OA
BRANCH  47  49
HETATM   49  C   UNK     0       0.510  -3.063 -22.533  0.00  0.00     0.045 A 
HETATM   50  C   UNK     0       0.434  -4.445 -22.421  0.00  0.00     0.057 A 
HETATM   51  C   UNK     0      -0.749  -5.104 -22.730  0.00  0.00     0.102 A 
HETATM   52  C   UNK     0      -1.857  -4.387 -23.154  0.00  0.00     0.132 A 
HETATM   53  C   UNK     0      -1.784  -3.008 -23.266  0.00  0.00     0.102 A 
HETATM   54  C   UNK     0      -0.603  -2.349 -22.955  0.00  0.00     0.057 A 
BRANCH  51  55
HETATM   55  O   UNK     0      -0.823  -6.457 -22.622  0.00  0.00    -0.358 OA
HETATM   56  H   UNK     0      -1.694  -6.933 -22.817  0.00  0.00     0.217 HD
ENDBRANCH  51  55
BRANCH  52  57
HETATM   57  O   UNK     0      -3.017  -5.032 -23.458  0.00  0.00    -0.356 OA
HETATM   58  H   UNK     0      -3.497  -5.571 -22.748  0.00  0.00     0.218 HD
ENDBRANCH  52  57
BRANCH  53  59
HETATM   59  O   UNK     0      -2.871  -2.302 -23.686  0.00  0.00    -0.358 OA
HETATM   60  H   UNK     0      -2.827  -1.293 -23.743  0.00  0.00     0.217 HD
ENDBRANCH  53  59
ENDBRANCH  47  49
ENDBRANCH  46  47
ENDBRANCH  22  46
BRANCH  34  61
HETATM   61  O   UNK     0       3.303   1.798 -29.947  0.00  0.00    -0.361 OA
HETATM   62  H   UNK     0       2.326   1.853 -29.687  0.00  0.00     0.217 HD
ENDBRANCH  34  61
BRANCH  37  63
HETATM   63  O   UNK     0       5.897   1.642 -30.791  0.00  0.00    -0.356 OA
HETATM   64  H   UNK     0       5.577   2.553 -30.489  0.00  0.00     0.218 HD
ENDBRANCH  37  63
BRANCH  38  65
HETATM   65  O   UNK     0       7.199  -0.771 -30.807  0.00  0.00    -0.358 OA
HETATM   66  H   UNK     0       7.867  -0.059 -30.542  0.00  0.00     0.217 HD
ENDBRANCH  38  65
BRANCH  39  67
HETATM   67  O   UNK     0       1.291  -1.130 -31.277  0.00  0.00    -0.357 OA
HETATM   68  H   UNK     0       1.400  -0.536 -32.089  0.00  0.00     0.217 HD
ENDBRANCH  39  67
BRANCH  41  69
HETATM   69  O   UNK     0      -1.363  -0.649 -30.878  0.00  0.00    -0.356 OA
HETATM   70  H   UNK     0      -1.114  -1.310 -31.604  0.00  0.00     0.218 HD
ENDBRANCH  41  69
BRANCH  42  71
HETATM   71  O   UNK     0      -2.233   0.486 -28.529  0.00  0.00    -0.304 OA
BRANCH  71  72
HETATM   72  C   UNK     0      -2.712   1.060 -27.383  0.00  0.00     0.120 A 
HETATM   73  C   UNK     0      -2.763   2.442 -27.276  0.00  0.00     0.005 A 
HETATM   74  C   UNK     0      -3.249   3.031 -26.121  0.00  0.00     0.051 A 
HETATM   75  C   UNK     0      -3.684   2.243 -25.068  0.00  0.00     0.102 A 
HETATM   76  C   UNK     0      -3.633   0.861 -25.172  0.00  0.00     0.135 A 
HETATM   77  C   UNK     0      -3.149   0.269 -26.328  0.00  0.00     0.136 A 
BRANCH  73  78
HETATM   78  C   UNK     0      -2.291   3.304 -28.420  0.00  0.00     0.205 C 
BRANCH  78  79
HETATM   79  O   UNK     0      -2.988   2.940 -29.601  0.00  0.00    -0.396 OA
HETATM   80  H   UNK     0      -3.877   2.463 -29.537  0.00  0.00     0.209 HD
ENDBRANCH  78  79
ENDBRANCH  73  78
BRANCH  75  81
HETATM   81  O   UNK     0      -4.159   2.825 -23.934  0.00  0.00    -0.358 OA
HETATM   82  H   UNK     0      -3.533   3.351 -23.336  0.00  0.00     0.217 HD
ENDBRANCH  75  81
BRANCH  76  83
HETATM   83  O   UNK     0      -4.059   0.085 -24.140  0.00  0.00    -0.356 OA
HETATM   84  H   UNK     0      -4.098   0.467 -23.204  0.00  0.00     0.218 HD
ENDBRANCH  76  83
BRANCH  77  85
HETATM   85  O   UNK     0      -3.102  -1.088 -26.424  0.00  0.00    -0.356 OA
HETATM   86  H   UNK     0      -3.947  -1.611 -26.615  0.00  0.00     0.218 HD
ENDBRANCH  77  85
ENDBRANCH  71  72
ENDBRANCH  42  71
ENDBRANCH  19  20
ENDBRANCH  18  19
ENDBRANCH  16  18
ENDBRANCH  12  16
BRANCH  14  87
HETATM   87  O   UNK     0       5.520  -9.041 -29.158  0.00  0.00    -0.358 OA
HETATM   88  H   UNK     0       4.993  -8.304 -29.609  0.00  0.00     0.217 HD
ENDBRANCH  14  87
BRANCH  15  89
HETATM   89  O   UNK     0       6.023 -11.336 -27.738  0.00  0.00    -0.356 OA
HETATM   90  H   UNK     0       5.147 -11.826 -27.869  0.00  0.00     0.218 HD
ENDBRANCH  15  89
ENDBRANCH   9  10
ENDBRANCH   7   9
ENDBRANCH   1   7
BRANCH   4  91
HETATM   91  O   UNK     0       9.760 -13.856 -21.085  0.00  0.00    -0.358 OA
HETATM   92  H   UNK     0       9.652 -14.771 -21.503  0.00  0.00     0.217 HD
ENDBRANCH   4  91
BRANCH   5  93
HETATM   93  O   UNK     0      10.438  -9.204 -21.793  0.00  0.00    -0.358 OA
HETATM   94  H   UNK     0      11.011  -9.163 -20.959  0.00  0.00     0.217 HD
ENDBRANCH   5  93
BRANCH   6  95
HETATM   95  O   UNK     0      10.842 -11.465 -20.290  0.00  0.00    -0.356 OA
HETATM   96  H   UNK     0      11.708 -10.942 -20.275  0.00  0.00     0.218 HD
ENDBRANCH   6  95
TORSDOF 30
ENDMDL
MODEL 6
REMARK VINA RESULT:      -6.7     25.763     29.123
REMARK  30 active torsions:
REMARK  status: ('A' for Active; 'I' for Inactive)
REMARK    1  A    between atoms: C_1  and  C_7 
REMARK    2  A    between atoms: C_4  and  O_9 
REMARK    3  A    between atoms: C_5  and  O_11 
REMARK    4  A    between atoms: C_6  and  O_10 
REMARK    5  A    between atoms: C_7  and  O_78 
REMARK    6  A    between atoms: C_12  and  C_18 
REMARK    7  A    between atoms: C_15  and  O_76 
REMARK    8  A    between atoms: C_16  and  O_78 
REMARK    9  A    between atoms: C_17  and  O_77 
REMARK   10  A    between atoms: C_18  and  O_74 
REMARK   11  A    between atoms: C_19  and  O_27 
REMARK   12  A    between atoms: C_21  and  O_25 
REMARK   13  A    between atoms: C_23  and  O_26 
REMARK   14  A    between atoms: C_28  and  O_37 
REMARK   15  A    between atoms: C_30  and  O_35 
REMARK   16  A    between atoms: C_32  and  O_36 
REMARK   17  A    between atoms: O_36  and  C_67 
REMARK   18  A    between atoms: C_39  and  O_60 
REMARK   19  A    between atoms: C_41  and  O_58 
REMARK   20  A    between atoms: C_42  and  C_45 
REMARK   21  A    between atoms: C_43  and  O_59 
REMARK   22  A    between atoms: C_45  and  O_53 
REMARK   23  A    between atoms: C_47  and  O_53 
REMARK   24  A    between atoms: C_51  and  C_54 
REMARK   25  A    between atoms: C_54  and  O_74 
REMARK   26  A    between atoms: C_64  and  O_69 
REMARK   27  A    between atoms: C_65  and  C_72 
REMARK   28  A    between atoms: C_66  and  O_70 
REMARK   29  A    between atoms: C_68  and  O_71 
REMARK   30  A    between atoms: C_72  and  O_73 
ROOT
HETATM    1  C   UNK     0      -3.229 -24.695 -22.133  0.00  0.00     0.045 A 
HETATM    2  C   UNK     0      -4.378 -25.327 -22.585  0.00  0.00     0.057 A 
HETATM    3  C   UNK     0      -2.508 -23.875 -22.986  0.00  0.00     0.057 A 
HETATM    4  C   UNK     0      -4.803 -25.140 -23.890  0.00  0.00     0.102 A 
HETATM    5  C   UNK     0      -2.934 -23.689 -24.291  0.00  0.00     0.102 A 
HETATM    6  C   UNK     0      -4.081 -24.321 -24.743  0.00  0.00     0.132 A 
ENDROOT
BRANCH   1   7
HETATM    7  C   UNK     0      -2.780 -24.891 -20.750  0.00  0.00     0.298 C 
HETATM    8  O   UNK     0      -2.148 -25.880 -20.457  0.00  0.00    -0.259 OA
BRANCH   7   9
HETATM    9  O   UNK     0      -3.071 -23.965 -19.791  0.00  0.00    -0.272 OA
BRANCH   9  10
HETATM   10  C   UNK     0      -4.362 -23.612 -19.520  0.00  0.00     0.116 A 
HETATM   11  C   UNK     0      -5.242 -24.556 -19.011  0.00  0.00     0.058 A 
HETATM   12  C   UNK     0      -6.554 -24.208 -18.728  0.00  0.00     0.045 A 
HETATM   13  C   UNK     0      -6.986 -22.908 -18.957  0.00  0.00     0.057 A 
HETATM   14  C   UNK     0      -6.110 -21.963 -19.470  0.00  0.00     0.102 A 
HETATM   15  C   UNK     0      -4.799 -22.315 -19.750  0.00  0.00     0.133 A 
BRANCH  12  16
HETATM   16  C   UNK     0      -7.491 -25.209 -18.188  0.00  0.00     0.293 C 
HETATM   17  O   UNK     0      -7.571 -26.299 -18.709  0.00  0.00    -0.259 OA
BRANCH  16  18
HETATM   18  O   UNK     0      -8.280 -24.911 -17.119  0.00  0.00    -0.315 OA
BRANCH  18  19
HETATM   19  C   UNK     0      -7.671 -24.747 -15.847  0.00  0.00     0.213 C 
BRANCH  19  20
HETATM   20  C   UNK     0      -7.971 -23.407 -15.149  0.00  0.00     0.181 C 
HETATM   21  O   UNK     0      -8.460 -23.688 -13.812  0.00  0.00    -0.348 OA
HETATM   22  C   UNK     0      -8.186 -22.772 -12.747  0.00  0.00     0.302 C 
HETATM   23  C   UNK     0      -6.690 -22.538 -12.738  0.00  0.00     0.219 C 
HETATM   24  C   UNK     0      -6.407 -21.776 -13.956  0.00  0.00     0.185 C 
HETATM   25  O   UNK     0      -6.218 -21.769 -11.641  0.00  0.00    -0.304 OA
HETATM   26  C   UNK     0      -6.641 -22.583 -15.191  0.00  0.00     0.194 C 
HETATM   27  O   UNK     0      -5.047 -21.372 -13.934  0.00  0.00    -0.388 OA
HETATM   28  O   UNK     0      -6.662 -21.634 -16.253  0.00  0.00    -0.307 OA
HETATM   29  C   UNK     0      -5.727 -20.618 -16.243  0.00  0.00     0.291 C 
HETATM   30  C   UNK     0      -4.337 -20.901 -15.786  0.00  0.00     0.039 A 
HETATM   31  O   UNK     0      -6.023 -19.514 -16.637  0.00  0.00    -0.260 OA
HETATM   32  C   UNK     0      -3.743 -20.400 -14.611  0.00  0.00     0.086 A 
HETATM   33  C   UNK     0      -3.599 -21.728 -16.621  0.00  0.00     0.054 A 
HETATM   34  C   UNK     0      -2.430 -20.754 -14.326  0.00  0.00     0.096 A 
HETATM   35  C   UNK     0      -4.371 -19.443 -13.623  0.00  0.00     0.013 A 
HETATM   36  H   UNK     0      -4.812 -20.388 -13.940  0.00  0.00     0.229 HD
HETATM   37  C   UNK     0      -1.708 -21.581 -15.170  0.00  0.00     0.129 A 
HETATM   38  C   UNK     0      -2.294 -22.069 -16.321  0.00  0.00     0.102 A 
HETATM   39  C   UNK     0      -4.352 -18.103 -13.991  0.00  0.00     0.110 A 
HETATM   40  C   UNK     0      -4.889 -19.788 -12.360  0.00  0.00     0.052 A 
HETATM   41  C   UNK     0      -4.822 -17.116 -13.139  0.00  0.00     0.133 A 
HETATM   42  C   UNK     0      -5.315 -17.455 -11.892  0.00  0.00     0.113 A 
HETATM   43  C   UNK     0      -5.350 -18.788 -11.519  0.00  0.00     0.058 A 
HETATM   44  C   UNK     0      -4.983 -21.175 -11.820  0.00  0.00     0.294 C 
HETATM   45  O   UNK     0      -3.973 -21.775 -11.529  0.00  0.00    -0.259 OA
BRANCH  22  46
HETATM   46  O   UNK     0      -8.645 -23.304 -11.507  0.00  0.00    -0.283 OA
BRANCH  46  47
HETATM   47  C   UNK     0      -9.749 -22.748 -10.920  0.00  0.00     0.295 C 
HETATM   48  O   UNK     0     -10.848 -23.084 -11.297  0.00  0.00    -0.259 OA
BRANCH  47  49
HETATM   49  C   UNK     0      -9.641 -21.730  -9.842  0.00  0.00     0.045 A 
HETATM   50  C   UNK     0     -10.766 -21.093  -9.337  0.00  0.00     0.057 A 
HETATM   51  C   UNK     0     -10.637 -20.144  -8.330  0.00  0.00     0.102 A 
HETATM   52  C   UNK     0      -9.385 -19.828  -7.827  0.00  0.00     0.132 A 
HETATM   53  C   UNK     0      -8.260 -20.463  -8.328  0.00  0.00     0.102 A 
HETATM   54  C   UNK     0      -8.390 -21.412  -9.332  0.00  0.00     0.057 A 
BRANCH  51  55
HETATM   55  O   UNK     0     -11.740 -19.519  -7.838  0.00  0.00    -0.358 OA
HETATM   56  H   UNK     0     -11.705 -18.532  -7.618  0.00  0.00     0.217 HD
ENDBRANCH  51  55
BRANCH  52  57
HETATM   57  O   UNK     0      -9.257 -18.898  -6.841  0.00  0.00    -0.356 OA
HETATM   58  H   UNK     0      -9.697 -17.992  -6.939  0.00  0.00     0.218 HD
ENDBRANCH  52  57
BRANCH  53  59
HETATM   59  O   UNK     0      -7.028 -20.151  -7.837  0.00  0.00    -0.358 OA
HETATM   60  H   UNK     0      -6.937 -19.782  -6.899  0.00  0.00     0.217 HD
ENDBRANCH  53  59
ENDBRANCH  47  49
ENDBRANCH  46  47
ENDBRANCH  22  46
BRANCH  34  61
HETATM   61  O   UNK     0      -1.836 -20.264 -13.203  0.00  0.00    -0.361 OA
HETATM   62  H   UNK     0      -2.338 -20.264 -12.324  0.00  0.00     0.217 HD
ENDBRANCH  34  61
BRANCH  37  63
HETATM   63  O   UNK     0      -0.425 -21.906 -14.870  0.00  0.00    -0.356 OA
HETATM   64  H   UNK     0      -0.132 -21.973 -13.904  0.00  0.00     0.218 HD
ENDBRANCH  37  63
BRANCH  38  65
HETATM   65  O   UNK     0      -1.586 -22.876 -17.158  0.00  0.00    -0.358 OA
HETATM   66  H   UNK     0      -1.252 -23.775 -16.833  0.00  0.00     0.217 HD
ENDBRANCH  38  65
BRANCH  39  67
HETATM   67  O   UNK     0      -3.848 -17.746 -15.204  0.00  0.00    -0.357 OA
HETATM   68  H   UNK     0      -2.906 -17.381 -15.272  0.00  0.00     0.217 HD
ENDBRANCH  39  67
BRANCH  41  69
HETATM   69  O   UNK     0      -4.787 -15.813 -13.526  0.00  0.00    -0.356 OA
HETATM   70  H   UNK     0      -4.598 -15.577 -14.492  0.00  0.00     0.218 HD
ENDBRANCH  41  69
BRANCH  42  71
HETATM   71  O   UNK     0      -5.758 -16.480 -11.041  0.00  0.00    -0.304 OA
BRANCH  71  72
HETATM   72  C   UNK     0      -5.437 -16.467  -9.710  0.00  0.00     0.120 A 
HETATM   73  C   UNK     0      -4.181 -16.039  -9.310  0.00  0.00     0.005 A 
HETATM   74  C   UNK     0      -3.849 -16.020  -7.966  0.00  0.00     0.051 A 
HETATM   75  C   UNK     0      -4.771 -16.432  -7.016  0.00  0.00     0.102 A 
HETATM   76  C   UNK     0      -6.027 -16.862  -7.414  0.00  0.00     0.135 A 
HETATM   77  C   UNK     0      -6.362 -16.879  -8.759  0.00  0.00     0.136 A 
BRANCH  73  78
HETATM   78  C   UNK     0      -3.175 -15.589 -10.340  0.00  0.00     0.205 C 
BRANCH  78  79
HETATM   79  O   UNK     0      -3.648 -14.413 -10.977  0.00  0.00    -0.396 OA
HETATM   80  H   UNK     0      -4.496 -14.443 -11.529  0.00  0.00     0.209 HD
ENDBRANCH  78  79
ENDBRANCH  73  78
BRANCH  75  81
HETATM   81  O   UNK     0      -4.440 -16.415  -5.697  0.00  0.00    -0.358 OA
HETATM   82  H   UNK     0      -3.916 -17.183  -5.297  0.00  0.00     0.217 HD
ENDBRANCH  75  81
BRANCH  76  83
HETATM   83  O   UNK     0      -6.933 -17.267  -6.484  0.00  0.00    -0.356 OA
HETATM   84  H   UNK     0      -6.617 -17.606  -5.585  0.00  0.00     0.218 HD
ENDBRANCH  76  83
BRANCH  77  85
HETATM   85  O   UNK     0      -7.597 -17.303  -9.142  0.00  0.00    -0.356 OA
HETATM   86  H   UNK     0      -8.424 -16.907  -8.712  0.00  0.00     0.218 HD
ENDBRANCH  77  85
ENDBRANCH  71  72
ENDBRANCH  42  71
ENDBRANCH  19  20
ENDBRANCH  18  19
ENDBRANCH  16  18
ENDBRANCH  12  16
BRANCH  14  87
HETATM   87  O   UNK     0      -6.534 -20.691 -19.699  0.00  0.00    -0.358 OA
HETATM   88  H   UNK     0      -7.493 -20.520 -19.972  0.00  0.00     0.217 HD
ENDBRANCH  14  87
BRANCH  15  89
HETATM   89  O   UNK     0      -3.937 -21.389 -20.252  0.00  0.00    -0.356 OA
HETATM   90  H   UNK     0      -3.343 -21.624 -21.037  0.00  0.00     0.218 HD
ENDBRANCH  15  89
ENDBRANCH   9  10
ENDBRANCH   7   9
ENDBRANCH   1   7
BRANCH   4  91
HETATM   91  O   UNK     0      -5.929 -25.759 -24.336  0.00  0.00    -0.358 OA
HETATM   92  H   UNK     0      -5.887 -26.722 -24.646  0.00  0.00     0.217 HD
ENDBRANCH   4  91
BRANCH   5  93
HETATM   93  O   UNK     0      -2.223 -22.890 -25.132  0.00  0.00    -0.358 OA
HETATM   94  H   UNK     0      -2.703 -22.339 -25.833  0.00  0.00     0.217 HD
ENDBRANCH   5  93
BRANCH   6  95
HETATM   95  O   UNK     0      -4.498 -24.139 -26.024  0.00  0.00    -0.356 OA
HETATM   96  H   UNK     0      -5.201 -24.750 -26.420  0.00  0.00     0.218 HD
ENDBRANCH   6  95
TORSDOF 30
ENDMDL
MODEL 7
REMARK VINA RESULT:      -6.7     20.112     24.365
REMARK  30 active torsions:
REMARK  status: ('A' for Active; 'I' for Inactive)
REMARK    1  A    between atoms: C_1  and  C_7 
REMARK    2  A    between atoms: C_4  and  O_9 
REMARK    3  A    between atoms: C_5  and  O_11 
REMARK    4  A    between atoms: C_6  and  O_10 
REMARK    5  A    between atoms: C_7  and  O_78 
REMARK    6  A    between atoms: C_12  and  C_18 
REMARK    7  A    between atoms: C_15  and  O_76 
REMARK    8  A    between atoms: C_16  and  O_78 
REMARK    9  A    between atoms: C_17  and  O_77 
REMARK   10  A    between atoms: C_18  and  O_74 
REMARK   11  A    between atoms: C_19  and  O_27 
REMARK   12  A    between atoms: C_21  and  O_25 
REMARK   13  A    between atoms: C_23  and  O_26 
REMARK   14  A    between atoms: C_28  and  O_37 
REMARK   15  A    between atoms: C_30  and  O_35 
REMARK   16  A    between atoms: C_32  and  O_36 
REMARK   17  A    between atoms: O_36  and  C_67 
REMARK   18  A    between atoms: C_39  and  O_60 
REMARK   19  A    between atoms: C_41  and  O_58 
REMARK   20  A    between atoms: C_42  and  C_45 
REMARK   21  A    between atoms: C_43  and  O_59 
REMARK   22  A    between atoms: C_45  and  O_53 
REMARK   23  A    between atoms: C_47  and  O_53 
REMARK   24  A    between atoms: C_51  and  C_54 
REMARK   25  A    between atoms: C_54  and  O_74 
REMARK   26  A    between atoms: C_64  and  O_69 
REMARK   27  A    between atoms: C_65  and  C_72 
REMARK   28  A    between atoms: C_66  and  O_70 
REMARK   29  A    between atoms: C_68  and  O_71 
REMARK   30  A    between atoms: C_72  and  O_73 
ROOT
HETATM    1  C   UNK     0     -21.194   0.920 -29.991  0.00  0.00     0.045 A 
HETATM    2  C   UNK     0     -21.429   0.518 -28.684  0.00  0.00     0.057 A 
HETATM    3  C   UNK     0     -20.759  -0.000 -30.930  0.00  0.00     0.057 A 
HETATM    4  C   UNK     0     -21.229  -0.803 -28.319  0.00  0.00     0.102 A 
HETATM    5  C   UNK     0     -20.558  -1.321 -30.564  0.00  0.00     0.102 A 
HETATM    6  C   UNK     0     -20.793  -1.722 -29.259  0.00  0.00     0.132 A 
ENDROOT
BRANCH   1   7
HETATM    7  C   UNK     0     -21.408   2.319 -30.378  0.00  0.00     0.298 C 
HETATM    8  O   UNK     0     -20.458   3.036 -30.593  0.00  0.00    -0.259 OA
BRANCH   7   9
HETATM    9  O   UNK     0     -22.673   2.817 -30.496  0.00  0.00    -0.272 OA
BRANCH   9  10
HETATM   10  C   UNK     0     -23.511   2.384 -31.485  0.00  0.00     0.116 A 
HETATM   11  C   UNK     0     -24.800   1.980 -31.167  0.00  0.00     0.058 A 
HETATM   12  C   UNK     0     -25.660   1.543 -32.163  0.00  0.00     0.045 A 
HETATM   13  C   UNK     0     -25.228   1.511 -33.481  0.00  0.00     0.057 A 
HETATM   14  C   UNK     0     -23.938   1.910 -33.801  0.00  0.00     0.102 A 
HETATM   15  C   UNK     0     -23.081   2.347 -32.804  0.00  0.00     0.133 A 
BRANCH  12  16
HETATM   16  C   UNK     0     -27.030   1.114 -31.828  0.00  0.00     0.293 C 
HETATM   17  O   UNK     0     -27.656   0.438 -32.614  0.00  0.00    -0.259 OA
BRANCH  16  18
HETATM   18  O   UNK     0     -27.603   1.487 -30.650  0.00  0.00    -0.315 OA
BRANCH  18  19
HETATM   19  C   UNK     0     -28.782   0.822 -30.224  0.00  0.00     0.213 C 
BRANCH  19  20
HETATM   20  C   UNK     0     -28.623  -0.041 -28.960  0.00  0.00     0.181 C 
HETATM   21  O   UNK     0     -29.837  -0.815 -28.777  0.00  0.00    -0.348 OA
HETATM   22  C   UNK     0     -29.771  -2.114 -28.180  0.00  0.00     0.302 C 
HETATM   23  C   UNK     0     -28.737  -2.904 -28.952  0.00  0.00     0.219 C 
HETATM   24  C   UNK     0     -27.450  -2.288 -28.626  0.00  0.00     0.185 C 
HETATM   25  O   UNK     0     -28.651  -4.275 -28.592  0.00  0.00    -0.304 OA
HETATM   26  C   UNK     0     -27.335  -0.904 -29.177  0.00  0.00     0.194 C 
HETATM   27  O   UNK     0     -26.412  -3.080 -29.181  0.00  0.00    -0.388 OA
HETATM   28  O   UNK     0     -26.217  -0.331 -28.503  0.00  0.00    -0.307 OA
HETATM   29  C   UNK     0     -25.094  -1.112 -28.317  0.00  0.00     0.291 C 
HETATM   30  C   UNK     0     -24.665  -2.052 -29.390  0.00  0.00     0.039 A 
HETATM   31  O   UNK     0     -24.440  -1.006 -27.306  0.00  0.00    -0.260 OA
HETATM   32  C   UNK     0     -24.697  -3.458 -29.308  0.00  0.00     0.086 A 
HETATM   33  C   UNK     0     -24.197  -1.450 -30.549  0.00  0.00     0.054 A 
HETATM   34  C   UNK     0     -24.255  -4.198 -30.399  0.00  0.00     0.096 A 
HETATM   35  C   UNK     0     -25.113  -4.280 -28.110  0.00  0.00     0.013 A 
HETATM   36  H   UNK     0     -25.723  -3.505 -28.575  0.00  0.00     0.229 HD
HETATM   37  C   UNK     0     -23.792  -3.580 -31.548  0.00  0.00     0.129 A 
HETATM   38  C   UNK     0     -23.762  -2.202 -31.624  0.00  0.00     0.102 A 
HETATM   39  C   UNK     0     -24.151  -4.422 -27.116  0.00  0.00     0.110 A 
HETATM   40  C   UNK     0     -26.339  -4.958 -27.963  0.00  0.00     0.052 A 
HETATM   41  C   UNK     0     -24.378  -5.217 -26.004  0.00  0.00     0.133 A 
HETATM   42  C   UNK     0     -25.576  -5.895 -25.870  0.00  0.00     0.113 A 
HETATM   43  C   UNK     0     -26.546  -5.752 -26.847  0.00  0.00     0.058 A 
HETATM   44  C   UNK     0     -27.469  -4.906 -28.934  0.00  0.00     0.294 C 
HETATM   45  O   UNK     0     -27.352  -5.428 -30.020  0.00  0.00    -0.259 OA
BRANCH  22  46
HETATM   46  O   UNK     0     -31.052  -2.740 -28.216  0.00  0.00    -0.283 OA
BRANCH  46  47
HETATM   47  C   UNK     0     -31.559  -3.268 -27.061  0.00  0.00     0.295 C 
HETATM   48  O   UNK     0     -32.183  -4.303 -27.111  0.00  0.00    -0.259 OA
BRANCH  47  49
HETATM   49  C   UNK     0     -31.381  -2.602 -25.744  0.00  0.00     0.045 A 
HETATM   50  C   UNK     0     -32.019  -1.404 -25.450  0.00  0.00     0.057 A 
HETATM   51  C   UNK     0     -31.833  -0.801 -24.213  0.00  0.00     0.102 A 
HETATM   52  C   UNK     0     -31.008  -1.389 -23.267  0.00  0.00     0.132 A 
HETATM   53  C   UNK     0     -30.370  -2.585 -23.557  0.00  0.00     0.102 A 
HETATM   54  C   UNK     0     -30.559  -3.188 -24.792  0.00  0.00     0.057 A 
BRANCH  51  55
HETATM   55  O   UNK     0     -32.458   0.372 -23.927  0.00  0.00    -0.358 OA
HETATM   56  H   UNK     0     -32.527   0.687 -22.967  0.00  0.00     0.217 HD
ENDBRANCH  51  55
BRANCH  52  57
HETATM   57  O   UNK     0     -30.825  -0.799 -22.054  0.00  0.00    -0.356 OA
HETATM   58  H   UNK     0     -31.517  -0.153 -21.696  0.00  0.00     0.218 HD
ENDBRANCH  52  57
BRANCH  53  59
HETATM   59  O   UNK     0     -29.557  -3.163 -22.630  0.00  0.00    -0.358 OA
HETATM   60  H   UNK     0     -28.567  -2.951 -22.624  0.00  0.00     0.217 HD
ENDBRANCH  53  59
ENDBRANCH  47  49
ENDBRANCH  46  47
ENDBRANCH  22  46
BRANCH  34  61
HETATM   61  O   UNK     0     -24.264  -5.558 -30.328  0.00  0.00    -0.361 OA
HETATM   62  H   UNK     0     -23.484  -6.048 -29.908  0.00  0.00     0.217 HD
ENDBRANCH  34  61
BRANCH  37  63
HETATM   63  O   UNK     0     -23.362  -4.328 -32.596  0.00  0.00    -0.356 OA
HETATM   64  H   UNK     0     -22.380  -4.556 -32.687  0.00  0.00     0.218 HD
ENDBRANCH  37  63
BRANCH  38  65
HETATM   65  O   UNK     0     -23.300  -1.591 -32.748  0.00  0.00    -0.358 OA
HETATM   66  H   UNK     0     -22.542  -2.006 -33.276  0.00  0.00     0.217 HD
ENDBRANCH  38  65
BRANCH  39  67
HETATM   67  O   UNK     0     -22.956  -3.783 -27.241  0.00  0.00    -0.357 OA
HETATM   68  H   UNK     0     -22.196  -4.003 -26.610  0.00  0.00     0.217 HD
ENDBRANCH  39  67
BRANCH  41  69
HETATM   69  O   UNK     0     -23.417  -5.339 -25.050  0.00  0.00    -0.356 OA
HETATM   70  H   UNK     0     -22.862  -4.534 -24.785  0.00  0.00     0.218 HD
ENDBRANCH  41  69
BRANCH  42  71
HETATM   71  O   UNK     0     -25.792  -6.698 -24.785  0.00  0.00    -0.304 OA
BRANCH  71  72
HETATM   72  C   UNK     0     -27.024  -7.219 -24.491  0.00  0.00     0.120 A 
HETATM   73  C   UNK     0     -27.246  -8.580 -24.633  0.00  0.00     0.005 A 
HETATM   74  C   UNK     0     -28.488  -9.115 -24.336  0.00  0.00     0.051 A 
HETATM   75  C   UNK     0     -29.514  -8.292 -23.897  0.00  0.00     0.102 A 
HETATM   76  C   UNK     0     -29.294  -6.930 -23.755  0.00  0.00     0.135 A 
HETATM   77  C   UNK     0     -28.051  -6.393 -24.050  0.00  0.00     0.136 A 
BRANCH  73  78
HETATM   78  C   UNK     0     -26.134  -9.479 -25.109  0.00  0.00     0.205 C 
BRANCH  78  79
HETATM   79  O   UNK     0     -25.066  -9.441 -24.176  0.00  0.00    -0.396 OA
HETATM   80  H   UNK     0     -25.026 -10.116 -23.424  0.00  0.00     0.209 HD
ENDBRANCH  78  79
ENDBRANCH  73  78
BRANCH  75  81
HETATM   81  O   UNK     0     -30.733  -8.821 -23.609  0.00  0.00    -0.358 OA
HETATM   82  H   UNK     0     -30.798  -9.698 -23.106  0.00  0.00     0.217 HD
ENDBRANCH  75  81
BRANCH  76  83
HETATM   83  O   UNK     0     -30.298  -6.120 -23.326  0.00  0.00    -0.356 OA
HETATM   84  H   UNK     0     -30.803  -6.348 -22.480  0.00  0.00     0.218 HD
ENDBRANCH  76  83
BRANCH  77  85
HETATM   85  O   UNK     0     -27.841  -5.056 -23.908  0.00  0.00    -0.356 OA
HETATM   86  H   UNK     0     -28.021  -4.607 -23.019  0.00  0.00     0.218 HD
ENDBRANCH  77  85
ENDBRANCH  71  72
ENDBRANCH  42  71
ENDBRANCH  19  20
ENDBRANCH  18  19
ENDBRANCH  16  18
ENDBRANCH  12  16
BRANCH  14  87
HETATM   87  O   UNK     0     -23.513   1.873 -35.093  0.00  0.00    -0.358 OA
HETATM   88  H   UNK     0     -24.174   2.003 -35.847  0.00  0.00     0.217 HD
ENDBRANCH  14  87
BRANCH  15  89
HETATM   89  O   UNK     0     -21.817   2.740 -33.115  0.00  0.00    -0.356 OA
HETATM   90  H   UNK     0     -21.030   2.148 -32.879  0.00  0.00     0.218 HD
ENDBRANCH  15  89
ENDBRANCH   9  10
ENDBRANCH   7   9
ENDBRANCH   1   7
BRANCH   4  91
HETATM   91  O   UNK     0     -21.458  -1.199 -27.038  0.00  0.00    -0.358 OA
HETATM   92  H   UNK     0     -22.041  -0.638 -26.431  0.00  0.00     0.217 HD
ENDBRANCH   4  91
BRANCH   5  93
HETATM   93  O   UNK     0     -20.126  -2.225 -31.485  0.00  0.00    -0.358 OA
HETATM   94  H   UNK     0     -20.479  -3.174 -31.467  0.00  0.00     0.217 HD
ENDBRANCH   5  93
BRANCH   6  95
HETATM   95  O   UNK     0     -20.595  -3.019 -28.900  0.00  0.00    -0.356 OA
HETATM   96  H   UNK     0     -19.663  -3.347 -28.682  0.00  0.00     0.218 HD
ENDBRANCH   6  95
TORSDOF 30
ENDMDL
MODEL 8
REMARK VINA RESULT:      -6.6     20.078     24.414
REMARK  30 active torsions:
REMARK  status: ('A' for Active; 'I' for Inactive)
REMARK    1  A    between atoms: C_1  and  C_7 
REMARK    2  A    between atoms: C_4  and  O_9 
REMARK    3  A    between atoms: C_5  and  O_11 
REMARK    4  A    between atoms: C_6  and  O_10 
REMARK    5  A    between atoms: C_7  and  O_78 
REMARK    6  A    between atoms: C_12  and  C_18 
REMARK    7  A    between atoms: C_15  and  O_76 
REMARK    8  A    between atoms: C_16  and  O_78 
REMARK    9  A    between atoms: C_17  and  O_77 
REMARK   10  A    between atoms: C_18  and  O_74 
REMARK   11  A    between atoms: C_19  and  O_27 
REMARK   12  A    between atoms: C_21  and  O_25 
REMARK   13  A    between atoms: C_23  and  O_26 
REMARK   14  A    between atoms: C_28  and  O_37 
REMARK   15  A    between atoms: C_30  and  O_35 
REMARK   16  A    between atoms: C_32  and  O_36 
REMARK   17  A    between atoms: O_36  and  C_67 
REMARK   18  A    between atoms: C_39  and  O_60 
REMARK   19  A    between atoms: C_41  and  O_58 
REMARK   20  A    between atoms: C_42  and  C_45 
REMARK   21  A    between atoms: C_43  and  O_59 
REMARK   22  A    between atoms: C_45  and  O_53 
REMARK   23  A    between atoms: C_47  and  O_53 
REMARK   24  A    between atoms: C_51  and  C_54 
REMARK   25  A    between atoms: C_54  and  O_74 
REMARK   26  A    between atoms: C_64  and  O_69 
REMARK   27  A    between atoms: C_65  and  C_72 
REMARK   28  A    between atoms: C_66  and  O_70 
REMARK   29  A    between atoms: C_68  and  O_71 
REMARK   30  A    between atoms: C_72  and  O_73 
ROOT
HETATM    1  C   UNK     0     -20.978   0.685 -30.318  0.00  0.00     0.045 A 
HETATM    2  C   UNK     0     -21.202   0.415 -28.975  0.00  0.00     0.057 A 
HETATM    3  C   UNK     0     -20.597  -0.334 -31.175  0.00  0.00     0.057 A 
HETATM    4  C   UNK     0     -21.043  -0.874 -28.493  0.00  0.00     0.102 A 
HETATM    5  C   UNK     0     -20.438  -1.623 -30.691  0.00  0.00     0.102 A 
HETATM    6  C   UNK     0     -20.661  -1.892 -29.351  0.00  0.00     0.132 A 
ENDROOT
BRANCH   1   7
HETATM    7  C   UNK     0     -21.148   2.050 -30.829  0.00  0.00     0.298 C 
HETATM    8  O   UNK     0     -20.240   2.588 -31.421  0.00  0.00    -0.259 OA
BRANCH   7   9
HETATM    9  O   UNK     0     -22.323   2.716 -30.642  0.00  0.00    -0.272 OA
BRANCH   9  10
HETATM   10  C   UNK     0     -23.425   2.428 -31.395  0.00  0.00     0.116 A 
HETATM   11  C   UNK     0     -24.690   2.534 -30.835  0.00  0.00     0.058 A 
HETATM   12  C   UNK     0     -25.816   2.248 -31.592  0.00  0.00     0.045 A 
HETATM   13  C   UNK     0     -25.674   1.853 -32.915  0.00  0.00     0.057 A 
HETATM   14  C   UNK     0     -24.411   1.741 -33.477  0.00  0.00     0.102 A 
HETATM   15  C   UNK     0     -23.288   2.029 -32.717  0.00  0.00     0.133 A 
BRANCH  12  16
HETATM   16  C   UNK     0     -27.161   2.361 -30.999  0.00  0.00     0.293 C 
HETATM   17  O   UNK     0     -28.081   2.768 -31.672  0.00  0.00    -0.259 OA
BRANCH  16  18
HETATM   18  O   UNK     0     -27.371   2.028 -29.695  0.00  0.00    -0.315 OA
BRANCH  18  19
HETATM   19  C   UNK     0     -28.480   1.203 -29.372  0.00  0.00     0.213 C 
BRANCH  19  20
HETATM   20  C   UNK     0     -28.265   0.263 -28.171  0.00  0.00     0.181 C 
HETATM   21  O   UNK     0     -29.514  -0.423 -27.897  0.00  0.00    -0.348 OA
HETATM   22  C   UNK     0     -29.496  -1.753 -27.370  0.00  0.00     0.302 C 
HETATM   23  C   UNK     0     -28.613  -2.578 -28.281  0.00  0.00     0.219 C 
HETATM   24  C   UNK     0     -27.254  -2.082 -28.065  0.00  0.00     0.185 C 
HETATM   25  O   UNK     0     -28.604  -3.969 -27.994  0.00  0.00    -0.304 OA
HETATM   26  C   UNK     0     -27.081  -0.683 -28.561  0.00  0.00     0.194 C 
HETATM   27  O   UNK     0     -26.346  -2.920 -28.760  0.00  0.00    -0.388 OA
HETATM   28  O   UNK     0     -25.858  -0.235 -27.983  0.00  0.00    -0.307 OA
HETATM   29  C   UNK     0     -24.789  -1.109 -27.951  0.00  0.00     0.291 C 
HETATM   30  C   UNK     0     -24.549  -2.020 -29.105  0.00  0.00     0.039 A 
HETATM   31  O   UNK     0     -24.030  -1.108 -27.011  0.00  0.00    -0.260 OA
HETATM   32  C   UNK     0     -24.688  -3.422 -29.084  0.00  0.00     0.086 A 
HETATM   33  C   UNK     0     -24.153  -1.395 -30.278  0.00  0.00     0.054 A 
HETATM   34  C   UNK     0     -24.422  -4.135 -30.246  0.00  0.00     0.096 A 
HETATM   35  C   UNK     0     -25.047  -4.272 -27.886  0.00  0.00     0.013 A 
HETATM   36  H   UNK     0     -25.636  -3.429 -28.250  0.00  0.00     0.229 HD
HETATM   37  C   UNK     0     -24.027  -3.494 -31.409  0.00  0.00     0.129 A 
HETATM   38  C   UNK     0     -23.892  -2.121 -31.426  0.00  0.00     0.102 A 
HETATM   39  C   UNK     0     -24.006  -4.540 -27.006  0.00  0.00     0.110 A 
HETATM   40  C   UNK     0     -26.304  -4.860 -27.643  0.00  0.00     0.052 A 
HETATM   41  C   UNK     0     -24.184  -5.374 -25.913  0.00  0.00     0.133 A 
HETATM   42  C   UNK     0     -25.413  -5.964 -25.685  0.00  0.00     0.113 A 
HETATM   43  C   UNK     0     -26.462  -5.695 -26.548  0.00  0.00     0.058 A 
HETATM   44  C   UNK     0     -27.519  -4.671 -28.486  0.00  0.00     0.294 C 
HETATM   45  O   UNK     0     -27.555  -5.141 -29.601  0.00  0.00    -0.259 OA
BRANCH  22  46
HETATM   46  O   UNK     0     -30.820  -2.275 -27.300  0.00  0.00    -0.283 OA
BRANCH  46  47
HETATM   47  C   UNK     0     -31.540  -2.093 -26.150  0.00  0.00     0.295 C 
HETATM   48  O   UNK     0     -32.360  -1.206 -26.104  0.00  0.00    -0.259 OA
BRANCH  47  49
HETATM   49  C   UNK     0     -31.335  -2.945 -24.949  0.00  0.00     0.045 A 
HETATM   50  C   UNK     0     -30.551  -2.515 -23.887  0.00  0.00     0.057 A 
HETATM   51  C   UNK     0     -30.374  -3.331 -22.777  0.00  0.00     0.102 A 
HETATM   52  C   UNK     0     -30.977  -4.578 -22.725  0.00  0.00     0.132 A 
HETATM   53  C   UNK     0     -31.762  -5.009 -23.782  0.00  0.00     0.102 A 
HETATM   54  C   UNK     0     -31.940  -4.192 -24.890  0.00  0.00     0.057 A 
BRANCH  51  55
HETATM   55  O   UNK     0     -29.604  -2.910 -21.738  0.00  0.00    -0.358 OA
HETATM   56  H   UNK     0     -28.850  -2.255 -21.901  0.00  0.00     0.217 HD
ENDBRANCH  51  55
BRANCH  52  57
HETATM   57  O   UNK     0     -30.804  -5.378 -21.637  0.00  0.00    -0.356 OA
HETATM   58  H   UNK     0     -31.561  -5.507 -20.978  0.00  0.00     0.218 HD
ENDBRANCH  52  57
BRANCH  53  59
HETATM   59  O   UNK     0     -32.352  -6.236 -23.734  0.00  0.00    -0.358 OA
HETATM   60  H   UNK     0     -32.144  -6.925 -24.445  0.00  0.00     0.217 HD
ENDBRANCH  53  59
ENDBRANCH  47  49
ENDBRANCH  46  47
ENDBRANCH  22  46
BRANCH  34  61
HETATM   61  O   UNK     0     -24.534  -5.492 -30.237  0.00  0.00    -0.361 OA
HETATM   62  H   UNK     0     -23.995  -6.049 -30.887  0.00  0.00     0.217 HD
ENDBRANCH  34  61
BRANCH  37  63
HETATM   63  O   UNK     0     -23.768  -4.216 -32.529  0.00  0.00    -0.356 OA
HETATM   64  H   UNK     0     -22.816  -4.318 -32.857  0.00  0.00     0.218 HD
ENDBRANCH  37  63
BRANCH  38  65
HETATM   65  O   UNK     0     -23.497  -1.488 -32.564  0.00  0.00    -0.358 OA
HETATM   66  H   UNK     0     -22.512  -1.343 -32.747  0.00  0.00     0.217 HD
ENDBRANCH  38  65
BRANCH  39  67
HETATM   67  O   UNK     0     -22.781  -3.990 -27.227  0.00  0.00    -0.357 OA
HETATM   68  H   UNK     0     -22.200  -3.717 -26.445  0.00  0.00     0.217 HD
ENDBRANCH  39  67
BRANCH  41  69
HETATM   69  O   UNK     0     -23.144  -5.620 -25.073  0.00  0.00    -0.356 OA
HETATM   70  H   UNK     0     -22.446  -4.906 -24.909  0.00  0.00     0.218 HD
ENDBRANCH  41  69
BRANCH  42  71
HETATM   71  O   UNK     0     -25.584  -6.805 -24.621  0.00  0.00    -0.304 OA
BRANCH  71  72
HETATM   72  C   UNK     0     -26.334  -7.948 -24.701  0.00  0.00     0.120 A 
HETATM   73  C   UNK     0     -27.716  -7.869 -24.621  0.00  0.00     0.005 A 
HETATM   74  C   UNK     0     -28.481  -9.020 -24.704  0.00  0.00     0.051 A 
HETATM   75  C   UNK     0     -27.870 -10.254 -24.864  0.00  0.00     0.102 A 
HETATM   76  C   UNK     0     -26.488 -10.334 -24.942  0.00  0.00     0.135 A 
HETATM   77  C   UNK     0     -25.720  -9.183 -24.862  0.00  0.00     0.136 A 
BRANCH  73  78
HETATM   78  C   UNK     0     -28.386  -6.530 -24.448  0.00  0.00     0.205 C 
BRANCH  78  79
HETATM   79  O   UNK     0     -28.096  -6.023 -23.155  0.00  0.00    -0.396 OA
HETATM   80  H   UNK     0     -27.854  -5.048 -23.037  0.00  0.00     0.209 HD
ENDBRANCH  78  79
ENDBRANCH  73  78
BRANCH  75  81
HETATM   81  O   UNK     0     -28.625 -11.382 -24.942  0.00  0.00    -0.358 OA
HETATM   82  H   UNK     0     -29.635 -11.317 -24.910  0.00  0.00     0.217 HD
ENDBRANCH  75  81
BRANCH  76  83
HETATM   83  O   UNK     0     -25.885 -11.543 -25.099  0.00  0.00    -0.356 OA
HETATM   84  H   UNK     0     -26.311 -12.247 -25.686  0.00  0.00     0.218 HD
ENDBRANCH  76  83
BRANCH  77  85
HETATM   85  O   UNK     0     -24.363  -9.270 -24.940  0.00  0.00    -0.356 OA
HETATM   86  H   UNK     0     -23.790  -8.931 -24.178  0.00  0.00     0.218 HD
ENDBRANCH  77  85
ENDBRANCH  71  72
ENDBRANCH  42  71
ENDBRANCH  19  20
ENDBRANCH  18  19
ENDBRANCH  16  18
ENDBRANCH  12  16
BRANCH  14  87
HETATM   87  O   UNK     0     -24.271   1.349 -34.771  0.00  0.00    -0.358 OA
HETATM   88  H   UNK     0     -23.496   0.757 -35.040  0.00  0.00     0.217 HD
ENDBRANCH  14  87
BRANCH  15  89
HETATM   89  O   UNK     0     -22.048   1.921 -33.266  0.00  0.00    -0.356 OA
HETATM   90  H   UNK     0     -21.519   1.065 -33.158  0.00  0.00     0.218 HD
ENDBRANCH  15  89
ENDBRANCH   9  10
ENDBRANCH   7   9
ENDBRANCH   1   7
BRANCH   4  91
HETATM   91  O   UNK     0     -21.261  -1.141 -27.177  0.00  0.00    -0.358 OA
HETATM   92  H   UNK     0     -20.603  -0.820 -26.480  0.00  0.00     0.217 HD
ENDBRANCH   4  91
BRANCH   5  93
HETATM   93  O   UNK     0     -20.058  -2.624 -31.531  0.00  0.00    -0.358 OA
HETATM   94  H   UNK     0     -19.128  -2.623 -31.930  0.00  0.00     0.217 HD
ENDBRANCH   5  93
BRANCH   6  95
HETATM   95  O   UNK     0     -20.504  -3.157 -28.876  0.00  0.00    -0.356 OA
HETATM   96  H   UNK     0     -21.239  -3.587 -28.329  0.00  0.00     0.218 HD
ENDBRANCH   6  95
TORSDOF 30
ENDMDL
MODEL 9
REMARK VINA RESULT:      -6.6      3.641     10.340
REMARK  30 active torsions:
REMARK  status: ('A' for Active; 'I' for Inactive)
REMARK    1  A    between atoms: C_1  and  C_7 
REMARK    2  A    between atoms: C_4  and  O_9 
REMARK    3  A    between atoms: C_5  and  O_11 
REMARK    4  A    between atoms: C_6  and  O_10 
REMARK    5  A    between atoms: C_7  and  O_78 
REMARK    6  A    between atoms: C_12  and  C_18 
REMARK    7  A    between atoms: C_15  and  O_76 
REMARK    8  A    between atoms: C_16  and  O_78 
REMARK    9  A    between atoms: C_17  and  O_77 
REMARK   10  A    between atoms: C_18  and  O_74 
REMARK   11  A    between atoms: C_19  and  O_27 
REMARK   12  A    between atoms: C_21  and  O_25 
REMARK   13  A    between atoms: C_23  and  O_26 
REMARK   14  A    between atoms: C_28  and  O_37 
REMARK   15  A    between atoms: C_30  and  O_35 
REMARK   16  A    between atoms: C_32  and  O_36 
REMARK   17  A    between atoms: O_36  and  C_67 
REMARK   18  A    between atoms: C_39  and  O_60 
REMARK   19  A    between atoms: C_41  and  O_58 
REMARK   20  A    between atoms: C_42  and  C_45 
REMARK   21  A    between atoms: C_43  and  O_59 
REMARK   22  A    between atoms: C_45  and  O_53 
REMARK   23  A    between atoms: C_47  and  O_53 
REMARK   24  A    between atoms: C_51  and  C_54 
REMARK   25  A    between atoms: C_54  and  O_74 
REMARK   26  A    between atoms: C_64  and  O_69 
REMARK   27  A    between atoms: C_65  and  C_72 
REMARK   28  A    between atoms: C_66  and  O_70 
REMARK   29  A    between atoms: C_68  and  O_71 
REMARK   30  A    between atoms: C_72  and  O_73 
ROOT
HETATM    1  C   UNK     0      -2.451   5.786 -28.498  0.00  0.00     0.045 A 
HETATM    2  C   UNK     0      -1.240   5.413 -27.934  0.00  0.00     0.057 A 
HETATM    3  C   UNK     0      -2.886   5.181 -29.667  0.00  0.00     0.057 A 
HETATM    4  C   UNK     0      -0.465   4.437 -28.539  0.00  0.00     0.102 A 
HETATM    5  C   UNK     0      -2.110   4.206 -30.271  0.00  0.00     0.102 A 
HETATM    6  C   UNK     0      -0.900   3.834 -29.708  0.00  0.00     0.132 A 
ENDROOT
BRANCH   1   7
HETATM    7  C   UNK     0      -3.273   6.817 -27.856  0.00  0.00     0.298 C 
HETATM    8  O   UNK     0      -2.768   7.860 -27.509  0.00  0.00    -0.259 OA
BRANCH   7   9
HETATM    9  O   UNK     0      -4.606   6.609 -27.648  0.00  0.00    -0.272 OA
BRANCH   9  10
HETATM   10  C   UNK     0      -5.045   5.866 -26.589  0.00  0.00     0.116 A 
HETATM   11  C   UNK     0      -4.368   4.709 -26.230  0.00  0.00     0.058 A 
HETATM   12  C   UNK     0      -4.803   3.950 -25.155  0.00  0.00     0.045 A 
HETATM   13  C   UNK     0      -5.921   4.352 -24.436  0.00  0.00     0.057 A 
HETATM   14  C   UNK     0      -6.603   5.505 -24.795  0.00  0.00     0.102 A 
HETATM   15  C   UNK     0      -6.165   6.262 -25.870  0.00  0.00     0.133 A 
BRANCH  12  16
HETATM   16  C   UNK     0      -4.085   2.721 -24.771  0.00  0.00     0.293 C 
HETATM   17  O   UNK     0      -3.062   2.800 -24.129  0.00  0.00    -0.259 OA
BRANCH  16  18
HETATM   18  O   UNK     0      -4.554   1.500 -25.151  0.00  0.00    -0.315 OA
BRANCH  18  19
HETATM   19  C   UNK     0      -4.009   0.340 -24.540  0.00  0.00     0.213 C 
BRANCH  19  20
HETATM   20  C   UNK     0      -2.939  -0.391 -25.371  0.00  0.00     0.181 C 
HETATM   21  O   UNK     0      -2.902   0.202 -26.695  0.00  0.00    -0.348 OA
HETATM   22  C   UNK     0      -1.670   0.249 -27.420  0.00  0.00     0.302 C 
HETATM   23  C   UNK     0      -0.645   0.892 -26.511  0.00  0.00     0.219 C 
HETATM   24  C   UNK     0      -0.403  -0.080 -25.445  0.00  0.00     0.185 C 
HETATM   25  O   UNK     0       0.606   1.162 -27.127  0.00  0.00    -0.304 OA
HETATM   26  C   UNK     0      -1.600  -0.265 -24.570  0.00  0.00     0.194 C 
HETATM   27  O   UNK     0       0.673   0.380 -24.643  0.00  0.00    -0.388 OA
HETATM   28  O   UNK     0      -1.335  -1.452 -23.828  0.00  0.00    -0.307 OA
HETATM   29  C   UNK     0      -0.061  -1.643 -23.329  0.00  0.00     0.291 C 
HETATM   30  C   UNK     0       0.702  -0.480 -22.795  0.00  0.00     0.039 A 
HETATM   31  O   UNK     0       0.417  -2.752 -23.290  0.00  0.00    -0.260 OA
HETATM   32  C   UNK     0       1.858   0.077 -23.376  0.00  0.00     0.086 A 
HETATM   33  C   UNK     0       0.199   0.067 -21.623  0.00  0.00     0.054 A 
HETATM   34  C   UNK     0       2.460   1.162 -22.750  0.00  0.00     0.096 A 
HETATM   35  C   UNK     0       2.577  -0.425 -24.607  0.00  0.00     0.013 A 
HETATM   36  H   UNK     0       1.518  -0.171 -24.566  0.00  0.00     0.229 HD
HETATM   37  C   UNK     0       1.945   1.696 -21.582  0.00  0.00     0.129 A 
HETATM   38  C   UNK     0       0.812   1.147 -21.015  0.00  0.00     0.102 A 
HETATM   39  C   UNK     0       3.417  -1.515 -24.410  0.00  0.00     0.110 A 
HETATM   40  C   UNK     0       2.521   0.160 -25.888  0.00  0.00     0.052 A 
HETATM   41  C   UNK     0       4.195  -2.019 -25.441  0.00  0.00     0.133 A 
HETATM   42  C   UNK     0       4.151  -1.433 -26.692  0.00  0.00     0.113 A 
HETATM   43  C   UNK     0       3.309  -0.355 -26.904  0.00  0.00     0.058 A 
HETATM   44  C   UNK     0       1.672   1.327 -26.262  0.00  0.00     0.294 C 
HETATM   45  O   UNK     0       1.924   2.422 -25.812  0.00  0.00    -0.259 OA
BRANCH  22  46
HETATM   46  O   UNK     0      -1.837   0.982 -28.631  0.00  0.00    -0.283 OA
BRANCH  46  47
HETATM   47  C   UNK     0      -2.821   0.600 -29.502  0.00  0.00     0.295 C 
HETATM   48  O   UNK     0      -3.938   1.042 -29.357  0.00  0.00    -0.259 OA
BRANCH  47  49
HETATM   49  C   UNK     0      -2.565  -0.353 -30.613  0.00  0.00     0.045 A 
HETATM   50  C   UNK     0      -3.610  -0.946 -31.309  0.00  0.00     0.057 A 
HETATM   51  C   UNK     0      -3.343  -1.835 -32.342  0.00  0.00     0.102 A 
HETATM   52  C   UNK     0      -2.033  -2.137 -32.681  0.00  0.00     0.132 A 
HETATM   53  C   UNK     0      -0.988  -1.547 -31.989  0.00  0.00     0.102 A 
HETATM   54  C   UNK     0      -1.256  -0.656 -30.959  0.00  0.00     0.057 A 
BRANCH  51  55
HETATM   55  O   UNK     0      -4.367  -2.416 -33.022  0.00  0.00    -0.358 OA
HETATM   56  H   UNK     0      -5.128  -1.849 -33.371  0.00  0.00     0.217 HD
ENDBRANCH  51  55
BRANCH  52  57
HETATM   57  O   UNK     0      -1.770  -3.009 -33.694  0.00  0.00    -0.356 OA
HETATM   58  H   UNK     0      -1.470  -2.662 -34.595  0.00  0.00     0.218 HD
ENDBRANCH  52  57
BRANCH  53  59
HETATM   59  O   UNK     0       0.299  -1.845 -32.319  0.00  0.00    -0.358 OA
HETATM   60  H   UNK     0       0.572  -1.900 -33.292  0.00  0.00     0.217 HD
ENDBRANCH  53  59
ENDBRANCH  47  49
ENDBRANCH  46  47
ENDBRANCH  22  46
BRANCH  34  61
HETATM   61  O   UNK     0       3.588   1.700 -23.290  0.00  0.00    -0.361 OA
HETATM   62  H   UNK     0       3.518   2.381 -24.036  0.00  0.00     0.217 HD
ENDBRANCH  34  61
BRANCH  37  63
HETATM   63  O   UNK     0       2.556   2.754 -20.989  0.00  0.00    -0.356 OA
HETATM   64  H   UNK     0       2.227   3.092 -20.094  0.00  0.00     0.218 HD
ENDBRANCH  37  63
BRANCH  38  65
HETATM   65  O   UNK     0       0.306   1.664 -19.862  0.00  0.00    -0.358 OA
HETATM   66  H   UNK     0      -0.135   2.575 -19.866  0.00  0.00     0.217 HD
ENDBRANCH  38  65
BRANCH  39  67
HETATM   67  O   UNK     0       3.493  -2.090 -23.180  0.00  0.00    -0.357 OA
HETATM   68  H   UNK     0       3.408  -3.094 -23.084  0.00  0.00     0.217 HD
ENDBRANCH  39  67
BRANCH  41  69
HETATM   69  O   UNK     0       5.009  -3.084 -25.216  0.00  0.00    -0.356 OA
HETATM   70  H   UNK     0       5.785  -3.269 -25.840  0.00  0.00     0.218 HD
ENDBRANCH  41  69
BRANCH  42  71
HETATM   71  O   UNK     0       4.935  -1.916 -27.704  0.00  0.00    -0.304 OA
BRANCH  71  72
HETATM   72  C   UNK     0       4.508  -1.965 -29.003  0.00  0.00     0.120 A 
HETATM   73  C   UNK     0       4.965  -1.024 -29.913  0.00  0.00     0.005 A 
HETATM   74  C   UNK     0       4.539  -1.068 -31.230  0.00  0.00     0.051 A 
HETATM   75  C   UNK     0       3.654  -2.052 -31.643  0.00  0.00     0.102 A 
HETATM   76  C   UNK     0       3.195  -2.993 -30.734  0.00  0.00     0.135 A 
HETATM   77  C   UNK     0       3.621  -2.952 -29.416  0.00  0.00     0.136 A 
BRANCH  73  78
HETATM   78  C   UNK     0       5.928   0.047 -29.469  0.00  0.00     0.205 C 
BRANCH  78  79
HETATM   79  O   UNK     0       5.280   1.308 -29.508  0.00  0.00    -0.396 OA
HETATM   80  H   UNK     0       4.588   1.500 -30.221  0.00  0.00     0.209 HD
ENDBRANCH  78  79
ENDBRANCH  73  78
BRANCH  75  81
HETATM   81  O   UNK     0       3.236  -2.091 -32.937  0.00  0.00    -0.358 OA
HETATM   82  H   UNK     0       2.957  -2.971 -33.352  0.00  0.00     0.217 HD
ENDBRANCH  75  81
BRANCH  76  83
HETATM   83  O   UNK     0       2.325  -3.959 -31.136  0.00  0.00    -0.356 OA
HETATM   84  H   UNK     0       2.528  -4.931 -30.947  0.00  0.00     0.218 HD
ENDBRANCH  76  83
BRANCH  77  85
HETATM   85  O   UNK     0       3.166  -3.879 -28.529  0.00  0.00    -0.356 OA
HETATM   86  H   UNK     0       2.172  -4.036 -28.426  0.00  0.00     0.218 HD
ENDBRANCH  77  85
ENDBRANCH  71  72
ENDBRANCH  42  71
ENDBRANCH  19  20
ENDBRANCH  18  19
ENDBRANCH  16  18
ENDBRANCH  12  16
BRANCH  14  87
HETATM   87  O   UNK     0      -7.702   5.895 -24.095  0.00  0.00    -0.358 OA
HETATM   88  H   UNK     0      -8.604   5.484 -24.298  0.00  0.00     0.217 HD
ENDBRANCH  14  87
BRANCH  15  89
HETATM   89  O   UNK     0      -6.831   7.394 -26.223  0.00  0.00    -0.356 OA
HETATM   90  H   UNK     0      -7.431   7.394 -27.038  0.00  0.00     0.218 HD
ENDBRANCH  15  89
ENDBRANCH   9  10
ENDBRANCH   7   9
ENDBRANCH   1   7
BRANCH   4  91
HETATM   91  O   UNK     0       0.723   4.071 -27.988  0.00  0.00    -0.358 OA
HETATM   92  H   UNK     0       0.963   4.375 -27.054  0.00  0.00     0.217 HD
ENDBRANCH   4  91
BRANCH   5  93
HETATM   93  O   UNK     0      -2.533   3.615 -31.422  0.00  0.00    -0.358 OA
HETATM   94  H   UNK     0      -2.888   4.183 -32.181  0.00  0.00     0.217 HD
ENDBRANCH   5  93
BRANCH   6  95
HETATM   95  O   UNK     0      -0.138   2.877 -30.303  0.00  0.00    -0.356 OA
HETATM   96  H   UNK     0       0.517   2.338 -29.752  0.00  0.00     0.218 HD
ENDBRANCH   6  95
TORSDOF 30
ENDMDL
MODEL 10
REMARK VINA RESULT:      -6.4      4.112      8.507
REMARK  30 active torsions:
REMARK  status: ('A' for Active; 'I' for Inactive)
REMARK    1  A    between atoms: C_1  and  C_7 
REMARK    2  A    between atoms: C_4  and  O_9 
REMARK    3  A    between atoms: C_5  and  O_11 
REMARK    4  A    between atoms: C_6  and  O_10 
REMARK    5  A    between atoms: C_7  and  O_78 
REMARK    6  A    between atoms: C_12  and  C_18 
REMARK    7  A    between atoms: C_15  and  O_76 
REMARK    8  A    between atoms: C_16  and  O_78 
REMARK    9  A    between atoms: C_17  and  O_77 
REMARK   10  A    between atoms: C_18  and  O_74 
REMARK   11  A    between atoms: C_19  and  O_27 
REMARK   12  A    between atoms: C_21  and  O_25 
REMARK   13  A    between atoms: C_23  and  O_26 
REMARK   14  A    between atoms: C_28  and  O_37 
REMARK   15  A    between atoms: C_30  and  O_35 
REMARK   16  A    between atoms: C_32  and  O_36 
REMARK   17  A    between atoms: O_36  and  C_67 
REMARK   18  A    between atoms: C_39  and  O_60 
REMARK   19  A    between atoms: C_41  and  O_58 
REMARK   20  A    between atoms: C_42  and  C_45 
REMARK   21  A    between atoms: C_43  and  O_59 
REMARK   22  A    between atoms: C_45  and  O_53 
REMARK   23  A    between atoms: C_47  and  O_53 
REMARK   24  A    between atoms: C_51  and  C_54 
REMARK   25  A    between atoms: C_54  and  O_74 
REMARK   26  A    between atoms: C_64  and  O_69 
REMARK   27  A    between atoms: C_65  and  C_72 
REMARK   28  A    between atoms: C_66  and  O_70 
REMARK   29  A    between atoms: C_68  and  O_71 
REMARK   30  A    between atoms: C_72  and  O_73 
ROOT
HETATM    1  C   UNK     0      -7.909  -2.779 -36.902  0.00  0.00     0.045 A 
HETATM    2  C   UNK     0      -8.926  -3.079 -36.007  0.00  0.00     0.057 A 
HETATM    3  C   UNK     0      -7.575  -3.682 -37.899  0.00  0.00     0.057 A 
HETATM    4  C   UNK     0      -9.607  -4.281 -36.110  0.00  0.00     0.102 A 
HETATM    5  C   UNK     0      -8.256  -4.884 -38.000  0.00  0.00     0.102 A 
HETATM    6  C   UNK     0      -9.271  -5.183 -37.107  0.00  0.00     0.132 A 
ENDROOT
BRANCH   1   7
HETATM    7  C   UNK     0      -7.189  -1.505 -36.794  0.00  0.00     0.298 C 
HETATM    8  O   UNK     0      -7.794  -0.494 -36.519  0.00  0.00    -0.259 OA
BRANCH   7   9
HETATM    9  O   UNK     0      -5.842  -1.453 -37.002  0.00  0.00    -0.272 OA
BRANCH   9  10
HETATM   10  C   UNK     0      -4.967  -1.426 -35.954  0.00  0.00     0.116 A 
HETATM   11  C   UNK     0      -4.500  -0.210 -35.477  0.00  0.00     0.058 A 
HETATM   12  C   UNK     0      -3.615  -0.171 -34.410  0.00  0.00     0.045 A 
HETATM   13  C   UNK     0      -3.197  -1.355 -33.819  0.00  0.00     0.057 A 
HETATM   14  C   UNK     0      -3.658  -2.573 -34.297  0.00  0.00     0.102 A 
HETATM   15  C   UNK     0      -4.543  -2.608 -35.362  0.00  0.00     0.133 A 
BRANCH  12  16
HETATM   16  C   UNK     0      -3.117   1.120 -33.902  0.00  0.00     0.293 C 
HETATM   17  O   UNK     0      -3.008   2.060 -34.656  0.00  0.00    -0.259 OA
BRANCH  16  18
HETATM   18  O   UNK     0      -2.761   1.257 -32.594  0.00  0.00    -0.315 OA
BRANCH  18  19
HETATM   19  C   UNK     0      -1.410   1.022 -32.228  0.00  0.00     0.213 C 
BRANCH  19  20
HETATM   20  C   UNK     0      -1.212   0.014 -31.081  0.00  0.00     0.181 C 
HETATM   21  O   UNK     0       0.175  -0.415 -31.083  0.00  0.00    -0.348 OA
HETATM   22  C   UNK     0       0.816  -0.759 -29.851  0.00  0.00     0.302 C 
HETATM   23  C   UNK     0       0.611   0.405 -28.905  0.00  0.00     0.219 C 
HETATM   24  C   UNK     0      -0.817   0.403 -28.585  0.00  0.00     0.185 C 
HETATM   25  O   UNK     0       1.317   0.300 -27.677  0.00  0.00    -0.304 OA
HETATM   26  C   UNK     0      -1.659   0.746 -29.772  0.00  0.00     0.194 C 
HETATM   27  O   UNK     0      -1.059   1.363 -27.571  0.00  0.00    -0.388 OA
HETATM   28  O   UNK     0      -2.984   0.371 -29.404  0.00  0.00    -0.307 OA
HETATM   29  C   UNK     0      -3.416   0.661 -28.125  0.00  0.00     0.291 C 
HETATM   30  C   UNK     0      -3.011   1.943 -27.485  0.00  0.00     0.039 A 
HETATM   31  O   UNK     0      -4.150  -0.103 -27.544  0.00  0.00    -0.260 OA
HETATM   32  C   UNK     0      -2.147   2.069 -26.379  0.00  0.00     0.086 A 
HETATM   33  C   UNK     0      -3.557   3.085 -28.053  0.00  0.00     0.054 A 
HETATM   34  C   UNK     0      -1.870   3.341 -25.892  0.00  0.00     0.096 A 
HETATM   35  C   UNK     0      -1.515   0.940 -25.598  0.00  0.00     0.013 A 
HETATM   36  H   UNK     0      -1.435   1.071 -26.678  0.00  0.00     0.229 HD
HETATM   37  C   UNK     0      -2.423   4.470 -26.472  0.00  0.00     0.129 A 
HETATM   38  C   UNK     0      -3.270   4.343 -27.556  0.00  0.00     0.102 A 
HETATM   39  C   UNK     0      -2.336   0.324 -24.661  0.00  0.00     0.110 A 
HETATM   40  C   UNK     0      -0.171   0.526 -25.693  0.00  0.00     0.052 A 
HETATM   41  C   UNK     0      -1.853  -0.670 -23.824  0.00  0.00     0.133 A 
HETATM   42  C   UNK     0      -0.530  -1.062 -23.906  0.00  0.00     0.113 A 
HETATM   43  C   UNK     0       0.294  -0.465 -24.845  0.00  0.00     0.058 A 
HETATM   44  C   UNK     0       0.833   1.081 -26.645  0.00  0.00     0.294 C 
HETATM   45  O   UNK     0       1.229   2.216 -26.505  0.00  0.00    -0.259 OA
BRANCH  22  46
HETATM   46  O   UNK     0       2.199  -1.025 -30.071  0.00  0.00    -0.283 OA
BRANCH  46  47
HETATM   47  C   UNK     0       2.616  -2.327 -30.141  0.00  0.00     0.295 C 
HETATM   48  O   UNK     0       1.874  -3.203 -29.760  0.00  0.00    -0.259 OA
BRANCH  47  49
HETATM   49  C   UNK     0       3.960  -2.697 -30.657  0.00  0.00     0.045 A 
HETATM   50  C   UNK     0       4.105  -3.445 -31.817  0.00  0.00     0.057 A 
HETATM   51  C   UNK     0       5.372  -3.780 -32.277  0.00  0.00     0.102 A 
HETATM   52  C   UNK     0       6.497  -3.371 -31.579  0.00  0.00     0.132 A 
HETATM   53  C   UNK     0       6.356  -2.623 -30.421  0.00  0.00     0.102 A 
HETATM   54  C   UNK     0       5.090  -2.287 -29.964  0.00  0.00     0.057 A 
BRANCH  51  55
HETATM   55  O   UNK     0       5.512  -4.515 -33.412  0.00  0.00    -0.358 OA
HETATM   56  H   UNK     0       5.430  -5.523 -33.376  0.00  0.00     0.217 HD
ENDBRANCH  51  55
BRANCH  52  57
HETATM   57  O   UNK     0       7.740  -3.699 -32.028  0.00  0.00    -0.356 OA
HETATM   58  H   UNK     0       8.261  -4.442 -31.581  0.00  0.00     0.218 HD
ENDBRANCH  52  57
BRANCH  53  59
HETATM   59  O   UNK     0       7.461  -2.224 -29.732  0.00  0.00    -0.358 OA
HETATM   60  H   UNK     0       8.374  -2.572 -29.995  0.00  0.00     0.217 HD
ENDBRANCH  53  59
ENDBRANCH  47  49
ENDBRANCH  46  47
ENDBRANCH  22  46
BRANCH  34  61
HETATM   61  O   UNK     0      -1.051   3.478 -24.814  0.00  0.00    -0.361 OA
HETATM   62  H   UNK     0      -1.064   4.334 -24.273  0.00  0.00     0.217 HD
ENDBRANCH  34  61
BRANCH  37  63
HETATM   63  O   UNK     0      -2.139   5.701 -25.973  0.00  0.00    -0.356 OA
HETATM   64  H   UNK     0      -1.431   6.274 -26.413  0.00  0.00     0.218 HD
ENDBRANCH  37  63
BRANCH  38  65
HETATM   65  O   UNK     0      -3.822   5.449 -28.124  0.00  0.00    -0.358 OA
HETATM   66  H   UNK     0      -3.265   6.040 -28.728  0.00  0.00     0.217 HD
ENDBRANCH  38  65
BRANCH  39  67
HETATM   67  O   UNK     0      -3.635   0.714 -24.546  0.00  0.00    -0.357 OA
HETATM   68  H   UNK     0      -3.890   1.678 -24.718  0.00  0.00     0.217 HD
ENDBRANCH  39  67
BRANCH  41  69
HETATM   69  O   UNK     0      -2.680  -1.250 -22.915  0.00  0.00    -0.356 OA
HETATM   70  H   UNK     0      -2.933  -2.226 -23.010  0.00  0.00     0.218 HD
ENDBRANCH  41  69
BRANCH  42  71
HETATM   71  O   UNK     0      -0.047  -2.027 -23.066  0.00  0.00    -0.304 OA
BRANCH  71  72
HETATM   72  C   UNK     0       1.133  -1.884 -22.386  0.00  0.00     0.120 A 
HETATM   73  C   UNK     0       2.194  -2.730 -22.666  0.00  0.00     0.005 A 
HETATM   74  C   UNK     0       3.391  -2.591 -21.984  0.00  0.00     0.051 A 
HETATM   75  C   UNK     0       3.532  -1.607 -21.018  0.00  0.00     0.102 A 
HETATM   76  C   UNK     0       2.471  -0.760 -20.736  0.00  0.00     0.135 A 
HETATM   77  C   UNK     0       1.272  -0.897 -21.418  0.00  0.00     0.136 A 
BRANCH  73  78
HETATM   78  C   UNK     0       2.047  -3.801 -23.717  0.00  0.00     0.205 C 
BRANCH  78  79
HETATM   79  O   UNK     0       2.711  -3.392 -24.902  0.00  0.00    -0.396 OA
HETATM   80  H   UNK     0       2.680  -2.424 -25.191  0.00  0.00     0.209 HD
ENDBRANCH  78  79
ENDBRANCH  73  78
BRANCH  75  81
HETATM   81  O   UNK     0       4.709  -1.475 -20.349  0.00  0.00    -0.358 OA
HETATM   82  H   UNK     0       4.929  -2.102 -19.586  0.00  0.00     0.217 HD
ENDBRANCH  75  81
BRANCH  76  83
HETATM   83  O   UNK     0       2.605   0.205 -19.788  0.00  0.00    -0.356 OA
HETATM   84  H   UNK     0       2.516  -0.032 -18.809  0.00  0.00     0.218 HD
ENDBRANCH  76  83
BRANCH  77  85
HETATM   85  O   UNK     0       0.235  -0.062 -21.136  0.00  0.00    -0.356 OA
HETATM   86  H   UNK     0       0.314   0.928 -21.331  0.00  0.00     0.218 HD
ENDBRANCH  77  85
ENDBRANCH  71  72
ENDBRANCH  42  71
ENDBRANCH  19  20
ENDBRANCH  18  19
ENDBRANCH  16  18
ENDBRANCH  12  16
BRANCH  14  87
HETATM   87  O   UNK     0      -3.244  -3.734 -33.721  0.00  0.00    -0.358 OA
HETATM   88  H   UNK     0      -3.854  -4.229 -33.083  0.00  0.00     0.217 HD
ENDBRANCH  14  87
BRANCH  15  89
HETATM   89  O   UNK     0      -4.999  -3.801 -35.831  0.00  0.00    -0.356 OA
HETATM   90  H   UNK     0      -4.477  -4.649 -35.650  0.00  0.00     0.218 HD
ENDBRANCH  15  89
ENDBRANCH   9  10
ENDBRANCH   7   9
ENDBRANCH   1   7
BRANCH   4  91
HETATM   91  O   UNK     0     -10.603  -4.578 -35.234  0.00  0.00    -0.358 OA
HETATM   92  H   UNK     0     -11.477  -4.070 -35.270  0.00  0.00     0.217 HD
ENDBRANCH   4  91
BRANCH   5  93
HETATM   93  O   UNK     0      -7.926  -5.773 -38.976  0.00  0.00    -0.358 OA
HETATM   94  H   UNK     0      -7.875  -5.471 -39.940  0.00  0.00     0.217 HD
ENDBRANCH   5  93
BRANCH   6  95
HETATM   95  O   UNK     0      -9.939  -6.364 -37.207  0.00  0.00    -0.356 OA
HETATM   96  H   UNK     0      -9.496  -7.223 -36.908  0.00  0.00     0.218 HD
ENDBRANCH   6  95
TORSDOF 30
ENDMDL
MODEL 11
REMARK VINA RESULT:      -6.4      5.508     10.381
REMARK  30 active torsions:
REMARK  status: ('A' for Active; 'I' for Inactive)
REMARK    1  A    between atoms: C_1  and  C_7 
REMARK    2  A    between atoms: C_4  and  O_9 
REMARK    3  A    between atoms: C_5  and  O_11 
REMARK    4  A    between atoms: C_6  and  O_10 
REMARK    5  A    between atoms: C_7  and  O_78 
REMARK    6  A    between atoms: C_12  and  C_18 
REMARK    7  A    between atoms: C_15  and  O_76 
REMARK    8  A    between atoms: C_16  and  O_78 
REMARK    9  A    between atoms: C_17  and  O_77 
REMARK   10  A    between atoms: C_18  and  O_74 
REMARK   11  A    between atoms: C_19  and  O_27 
REMARK   12  A    between atoms: C_21  and  O_25 
REMARK   13  A    between atoms: C_23  and  O_26 
REMARK   14  A    between atoms: C_28  and  O_37 
REMARK   15  A    between atoms: C_30  and  O_35 
REMARK   16  A    between atoms: C_32  and  O_36 
REMARK   17  A    between atoms: O_36  and  C_67 
REMARK   18  A    between atoms: C_39  and  O_60 
REMARK   19  A    between atoms: C_41  and  O_58 
REMARK   20  A    between atoms: C_42  and  C_45 
REMARK   21  A    between atoms: C_43  and  O_59 
REMARK   22  A    between atoms: C_45  and  O_53 
REMARK   23  A    between atoms: C_47  and  O_53 
REMARK   24  A    between atoms: C_51  and  C_54 
REMARK   25  A    between atoms: C_54  and  O_74 
REMARK   26  A    between atoms: C_64  and  O_69 
REMARK   27  A    between atoms: C_65  and  C_72 
REMARK   28  A    between atoms: C_66  and  O_70 
REMARK   29  A    between atoms: C_68  and  O_71 
REMARK   30  A    between atoms: C_72  and  O_73 
ROOT
HETATM    1  C   UNK     0      -2.967  -0.554 -30.843  0.00  0.00     0.045 A 
HETATM    2  C   UNK     0      -3.875  -1.189 -31.678  0.00  0.00     0.057 A 
HETATM    3  C   UNK     0      -1.607  -0.752 -31.021  0.00  0.00     0.057 A 
HETATM    4  C   UNK     0      -3.423  -2.020 -32.689  0.00  0.00     0.102 A 
HETATM    5  C   UNK     0      -1.156  -1.585 -32.033  0.00  0.00     0.102 A 
HETATM    6  C   UNK     0      -2.063  -2.219 -32.866  0.00  0.00     0.132 A 
ENDROOT
BRANCH   1   7
HETATM    7  C   UNK     0      -3.446   0.329 -29.774  0.00  0.00     0.298 C 
HETATM    8  O   UNK     0      -3.894   1.418 -30.048  0.00  0.00    -0.259 OA
BRANCH   7   9
HETATM    9  O   UNK     0      -3.389  -0.071 -28.470  0.00  0.00    -0.272 OA
BRANCH   9  10
HETATM   10  C   UNK     0      -2.976   0.784 -27.488  0.00  0.00     0.116 A 
HETATM   11  C   UNK     0      -1.807   1.513 -27.656  0.00  0.00     0.058 A 
HETATM   12  C   UNK     0      -1.382   2.387 -26.667  0.00  0.00     0.045 A 
HETATM   13  C   UNK     0      -2.130   2.532 -25.507  0.00  0.00     0.057 A 
HETATM   14  C   UNK     0      -3.296   1.801 -25.334  0.00  0.00     0.102 A 
HETATM   15  C   UNK     0      -3.719   0.929 -26.325  0.00  0.00     0.133 A 
BRANCH  12  16
HETATM   16  C   UNK     0      -0.140   3.163 -26.843  0.00  0.00     0.293 C 
HETATM   17  O   UNK     0      -0.145   4.153 -27.538  0.00  0.00    -0.259 OA
BRANCH  16  18
HETATM   18  O   UNK     0       1.015   2.762 -26.244  0.00  0.00    -0.315 OA
BRANCH  18  19
HETATM   19  C   UNK     0       2.242   2.954 -26.931  0.00  0.00     0.213 C 
BRANCH  19  20
HETATM   20  C   UNK     0       3.246   1.793 -26.811  0.00  0.00     0.181 C 
HETATM   21  O   UNK     0       2.676   0.785 -25.937  0.00  0.00    -0.348 OA
HETATM   22  C   UNK     0       2.983  -0.597 -26.149  0.00  0.00     0.302 C 
HETATM   23  C   UNK     0       2.675  -0.902 -27.599  0.00  0.00     0.219 C 
HETATM   24  C   UNK     0       3.687  -0.181 -28.374  0.00  0.00     0.185 C 
HETATM   25  O   UNK     0       2.776  -2.275 -27.949  0.00  0.00    -0.304 OA
HETATM   26  C   UNK     0       3.523   1.300 -28.271  0.00  0.00     0.194 C 
HETATM   27  O   UNK     0       3.567  -0.553 -29.737  0.00  0.00    -0.388 OA
HETATM   28  O   UNK     0       4.743   1.841 -28.770  0.00  0.00    -0.307 OA
HETATM   29  C   UNK     0       5.302   1.271 -29.896  0.00  0.00     0.291 C 
HETATM   30  C   UNK     0       4.417   0.804 -31.000  0.00  0.00     0.039 A 
HETATM   31  O   UNK     0       6.503   1.185 -30.003  0.00  0.00    -0.260 OA
HETATM   32  C   UNK     0       4.216  -0.540 -31.375  0.00  0.00     0.086 A 
HETATM   33  C   UNK     0       3.759   1.808 -31.693  0.00  0.00     0.054 A 
HETATM   34  C   UNK     0       3.359  -0.813 -32.435  0.00  0.00     0.096 A 
HETATM   35  C   UNK     0       4.893  -1.752 -30.777  0.00  0.00     0.013 A 
HETATM   36  H   UNK     0       4.341  -1.003 -30.208  0.00  0.00     0.229 HD
HETATM   37  C   UNK     0       2.710   0.202 -33.116  0.00  0.00     0.129 A 
HETATM   38  C   UNK     0       2.910   1.517 -32.745  0.00  0.00     0.102 A 
HETATM   39  C   UNK     0       6.182  -2.004 -31.231  0.00  0.00     0.110 A 
HETATM   40  C   UNK     0       4.304  -2.663 -29.878  0.00  0.00     0.052 A 
HETATM   41  C   UNK     0       6.881  -3.130 -30.823  0.00  0.00     0.133 A 
HETATM   42  C   UNK     0       6.295  -4.031 -29.954  0.00  0.00     0.113 A 
HETATM   43  C   UNK     0       5.016  -3.784 -29.485  0.00  0.00     0.058 A 
HETATM   44  C   UNK     0       2.937  -2.534 -29.298  0.00  0.00     0.294 C 
HETATM   45  O   UNK     0       1.968  -2.666 -30.010  0.00  0.00    -0.259 OA
BRANCH  22  46
HETATM   46  O   UNK     0       2.221  -1.414 -25.264  0.00  0.00    -0.283 OA
BRANCH  46  47
HETATM   47  C   UNK     0       1.147  -0.863 -24.619  0.00  0.00     0.295 C 
HETATM   48  O   UNK     0       0.151  -0.601 -25.253  0.00  0.00    -0.259 OA
BRANCH  47  49
HETATM   49  C   UNK     0       1.171  -0.561 -23.164  0.00  0.00     0.045 A 
HETATM   50  C   UNK     0       1.925  -1.324 -22.282  0.00  0.00     0.057 A 
HETATM   51  C   UNK     0       1.928  -1.023 -20.926  0.00  0.00     0.102 A 
HETATM   52  C   UNK     0       1.178   0.039 -20.447  0.00  0.00     0.132 A 
HETATM   53  C   UNK     0       0.426   0.804 -21.324  0.00  0.00     0.102 A 
HETATM   54  C   UNK     0       0.425   0.504 -22.678  0.00  0.00     0.057 A 
BRANCH  51  55
HETATM   55  O   UNK     0       2.664  -1.772 -20.064  0.00  0.00    -0.358 OA
HETATM   56  H   UNK     0       3.316  -2.459 -20.420  0.00  0.00     0.217 HD
ENDBRANCH  51  55
BRANCH  52  57
HETATM   57  O   UNK     0       1.180   0.336 -19.118  0.00  0.00    -0.356 OA
HETATM   58  H   UNK     0       0.452   0.920 -18.728  0.00  0.00     0.218 HD
ENDBRANCH  52  57
BRANCH  53  59
HETATM   59  O   UNK     0      -0.315   1.846 -20.853  0.00  0.00    -0.358 OA
HETATM   60  H   UNK     0      -1.300   1.719 -20.659  0.00  0.00     0.217 HD
ENDBRANCH  53  59
ENDBRANCH  47  49
ENDBRANCH  46  47
ENDBRANCH  22  46
BRANCH  34  61
HETATM   61  O   UNK     0       3.168  -2.104 -32.820  0.00  0.00    -0.361 OA
HETATM   62  H   UNK     0       2.884  -2.799 -32.141  0.00  0.00     0.217 HD
ENDBRANCH  34  61
BRANCH  37  63
HETATM   63  O   UNK     0       1.882  -0.093 -34.151  0.00  0.00    -0.356 OA
HETATM   64  H   UNK     0       1.710   0.594 -34.873  0.00  0.00     0.218 HD
ENDBRANCH  37  63
BRANCH  38  65
HETATM   65  O   UNK     0       2.280   2.519 -33.417  0.00  0.00    -0.358 OA
HETATM   66  H   UNK     0       2.254   2.512 -34.429  0.00  0.00     0.217 HD
ENDBRANCH  38  65
BRANCH  39  67
HETATM   67  O   UNK     0       6.767  -1.143 -32.107  0.00  0.00    -0.357 OA
HETATM   68  H   UNK     0       7.703  -0.801 -31.932  0.00  0.00     0.217 HD
ENDBRANCH  39  67
BRANCH  41  69
HETATM   69  O   UNK     0       8.139  -3.351 -31.288  0.00  0.00    -0.356 OA
HETATM   70  H   UNK     0       8.851  -2.640 -31.178  0.00  0.00     0.218 HD
ENDBRANCH  41  69
BRANCH  42  71
HETATM   71  O   UNK     0       6.975  -5.153 -29.568  0.00  0.00    -0.304 OA
BRANCH  71  72
HETATM   72  C   UNK     0       6.654  -5.853 -28.436  0.00  0.00     0.120 A 
HETATM   73  C   UNK     0       5.962  -7.050 -28.542  0.00  0.00     0.005 A 
HETATM   74  C   UNK     0       5.635  -7.765 -27.402  0.00  0.00     0.051 A 
HETATM   75  C   UNK     0       5.996  -7.286 -26.152  0.00  0.00     0.102 A 
HETATM   76  C   UNK     0       6.687  -6.089 -26.045  0.00  0.00     0.135 A 
HETATM   77  C   UNK     0       7.017  -5.373 -27.184  0.00  0.00     0.136 A 
BRANCH  73  78
HETATM   78  C   UNK     0       5.568  -7.575 -29.899  0.00  0.00     0.205 C 
BRANCH  78  79
HETATM   79  O   UNK     0       6.733  -7.774 -30.683  0.00  0.00    -0.396 OA
HETATM   80  H   UNK     0       7.603  -8.038 -30.239  0.00  0.00     0.209 HD
ENDBRANCH  78  79
ENDBRANCH  73  78
BRANCH  75  81
HETATM   81  O   UNK     0       5.671  -7.991 -25.035  0.00  0.00    -0.358 OA
HETATM   82  H   UNK     0       4.712  -8.278 -24.879  0.00  0.00     0.217 HD
ENDBRANCH  75  81
BRANCH  76  83
HETATM   83  O   UNK     0       7.042  -5.617 -24.820  0.00  0.00    -0.356 OA
HETATM   84  H   UNK     0       6.339  -5.497 -24.102  0.00  0.00     0.218 HD
ENDBRANCH  76  83
BRANCH  77  85
HETATM   85  O   UNK     0       7.695  -4.198 -27.071  0.00  0.00    -0.356 OA
HETATM   86  H   UNK     0       8.013  -3.882 -26.164  0.00  0.00     0.218 HD
ENDBRANCH  77  85
ENDBRANCH  71  72
ENDBRANCH  42  71
ENDBRANCH  19  20
ENDBRANCH  18  19
ENDBRANCH  16  18
ENDBRANCH  12  16
BRANCH  14  87
HETATM   87  O   UNK     0      -4.026   1.938 -24.195  0.00  0.00    -0.358 OA
HETATM   88  H   UNK     0      -3.725   1.483 -23.343  0.00  0.00     0.217 HD
ENDBRANCH  14  87
BRANCH  15  89
HETATM   89  O   UNK     0      -4.863   0.212 -26.159  0.00  0.00    -0.356 OA
HETATM   90  H   UNK     0      -5.153  -0.449 -26.868  0.00  0.00     0.218 HD
ENDBRANCH  15  89
ENDBRANCH   9  10
ENDBRANCH   7   9
ENDBRANCH   1   7
BRANCH   4  91
HETATM   91  O   UNK     0      -4.311  -2.644 -33.508  0.00  0.00    -0.358 OA
HETATM   92  H   UNK     0      -5.209  -2.942 -33.147  0.00  0.00     0.217 HD
ENDBRANCH   4  91
BRANCH   5  93
HETATM   93  O   UNK     0       0.179  -1.785 -32.205  0.00  0.00    -0.358 OA
HETATM   94  H   UNK     0       0.844  -1.143 -31.792  0.00  0.00     0.217 HD
ENDBRANCH   5  93
BRANCH   6  95
HETATM   95  O   UNK     0      -1.619  -3.036 -33.858  0.00  0.00    -0.356 OA
HETATM   96  H   UNK     0      -1.810  -2.809 -34.825  0.00  0.00     0.218 HD
ENDBRANCH   6  95
TORSDOF 30
ENDMDL
MODEL 12
REMARK VINA RESULT:      -6.3      2.897      6.281
REMARK  30 active torsions:
REMARK  status: ('A' for Active; 'I' for Inactive)
REMARK    1  A    between atoms: C_1  and  C_7 
REMARK    2  A    between atoms: C_4  and  O_9 
REMARK    3  A    between atoms: C_5  and  O_11 
REMARK    4  A    between atoms: C_6  and  O_10 
REMARK    5  A    between atoms: C_7  and  O_78 
REMARK    6  A    between atoms: C_12  and  C_18 
REMARK    7  A    between atoms: C_15  and  O_76 
REMARK    8  A    between atoms: C_16  and  O_78 
REMARK    9  A    between atoms: C_17  and  O_77 
REMARK   10  A    between atoms: C_18  and  O_74 
REMARK   11  A    between atoms: C_19  and  O_27 
REMARK   12  A    between atoms: C_21  and  O_25 
REMARK   13  A    between atoms: C_23  and  O_26 
REMARK   14  A    between atoms: C_28  and  O_37 
REMARK   15  A    between atoms: C_30  and  O_35 
REMARK   16  A    between atoms: C_32  and  O_36 
REMARK   17  A    between atoms: O_36  and  C_67 
REMARK   18  A    between atoms: C_39  and  O_60 
REMARK   19  A    between atoms: C_41  and  O_58 
REMARK   20  A    between atoms: C_42  and  C_45 
REMARK   21  A    between atoms: C_43  and  O_59 
REMARK   22  A    between atoms: C_45  and  O_53 
REMARK   23  A    between atoms: C_47  and  O_53 
REMARK   24  A    between atoms: C_51  and  C_54 
REMARK   25  A    between atoms: C_54  and  O_74 
REMARK   26  A    between atoms: C_64  and  O_69 
REMARK   27  A    between atoms: C_65  and  C_72 
REMARK   28  A    between atoms: C_66  and  O_70 
REMARK   29  A    between atoms: C_68  and  O_71 
REMARK   30  A    between atoms: C_72  and  O_73 
ROOT
HETATM    1  C   UNK     0      -2.800   0.734 -33.924  0.00  0.00     0.045 A 
HETATM    2  C   UNK     0      -3.003  -0.633 -34.043  0.00  0.00     0.057 A 
HETATM    3  C   UNK     0      -2.978   1.356 -32.698  0.00  0.00     0.057 A 
HETATM    4  C   UNK     0      -3.384  -1.376 -32.938  0.00  0.00     0.102 A 
HETATM    5  C   UNK     0      -3.360   0.612 -31.594  0.00  0.00     0.102 A 
HETATM    6  C   UNK     0      -3.563  -0.753 -31.713  0.00  0.00     0.132 A 
ENDROOT
BRANCH   1   7
HETATM    7  C   UNK     0      -2.394   1.520 -35.094  0.00  0.00     0.298 C 
HETATM    8  O   UNK     0      -1.664   1.029 -35.925  0.00  0.00    -0.259 OA
BRANCH   7   9
HETATM    9  O   UNK     0      -2.833   2.802 -35.251  0.00  0.00    -0.272 OA
BRANCH   9  10
HETATM   10  C   UNK     0      -2.147   3.853 -34.713  0.00  0.00     0.116 A 
HETATM   11  C   UNK     0      -2.586   4.428 -33.529  0.00  0.00     0.058 A 
HETATM   12  C   UNK     0      -1.894   5.493 -32.971  0.00  0.00     0.045 A 
HETATM   13  C   UNK     0      -0.760   5.984 -33.602  0.00  0.00     0.057 A 
HETATM   14  C   UNK     0      -0.321   5.414 -34.789  0.00  0.00     0.102 A 
HETATM   15  C   UNK     0      -1.014   4.349 -35.343  0.00  0.00     0.133 A 
BRANCH  12  16
HETATM   16  C   UNK     0      -2.359   6.106 -31.713  0.00  0.00     0.293 C 
HETATM   17  O   UNK     0      -2.404   7.311 -31.614  0.00  0.00    -0.259 OA
BRANCH  16  18
HETATM   18  O   UNK     0      -2.718   5.326 -30.656  0.00  0.00    -0.315 OA
BRANCH  18  19
HETATM   19  C   UNK     0      -3.130   5.956 -29.453  0.00  0.00     0.213 C 
BRANCH  19  20
HETATM   20  C   UNK     0      -2.593   5.311 -28.162  0.00  0.00     0.181 C 
HETATM   21  O   UNK     0      -3.722   4.858 -27.372  0.00  0.00    -0.348 OA
HETATM   22  C   UNK     0      -3.592   3.698 -26.543  0.00  0.00     0.302 C 
HETATM   23  C   UNK     0      -3.062   2.584 -27.420  0.00  0.00     0.219 C 
HETATM   24  C   UNK     0      -1.684   2.960 -27.740  0.00  0.00     0.185 C 
HETATM   25  O   UNK     0      -3.016   1.310 -26.795  0.00  0.00    -0.304 OA
HETATM   26  C   UNK     0      -1.620   4.171 -28.613  0.00  0.00     0.194 C 
HETATM   27  O   UNK     0      -1.064   1.882 -28.422  0.00  0.00    -0.388 OA
HETATM   28  O   UNK     0      -0.263   4.601 -28.548  0.00  0.00    -0.307 OA
HETATM   29  C   UNK     0       0.731   3.644 -28.597  0.00  0.00     0.291 C 
HETATM   30  C   UNK     0       0.572   2.463 -29.491  0.00  0.00     0.039 A 
HETATM   31  O   UNK     0       1.741   3.783 -27.948  0.00  0.00    -0.260 OA
HETATM   32  C   UNK     0       0.395   1.132 -29.064  0.00  0.00     0.086 A 
HETATM   33  C   UNK     0       0.612   2.741 -30.849  0.00  0.00     0.054 A 
HETATM   34  C   UNK     0       0.266   0.137 -30.026  0.00  0.00     0.096 A 
HETATM   35  C   UNK     0       0.389   0.638 -27.636  0.00  0.00     0.013 A 
HETATM   36  H   UNK     0      -0.251   1.432 -28.022  0.00  0.00     0.229 HD
HETATM   37  C   UNK     0       0.309   0.433 -31.378  0.00  0.00     0.129 A 
HETATM   38  C   UNK     0       0.483   1.738 -31.792  0.00  0.00     0.102 A 
HETATM   39  C   UNK     0       1.639   0.470 -27.053  0.00  0.00     0.110 A 
HETATM   40  C   UNK     0      -0.754   0.272 -26.897  0.00  0.00     0.052 A 
HETATM   41  C   UNK     0       1.774  -0.053 -25.777  0.00  0.00     0.133 A 
HETATM   42  C   UNK     0       0.653  -0.428 -25.060  0.00  0.00     0.113 A 
HETATM   43  C   UNK     0      -0.599  -0.254 -25.625  0.00  0.00     0.058 A 
HETATM   44  C   UNK     0      -2.160   0.393 -27.376  0.00  0.00     0.294 C 
HETATM   45  O   UNK     0      -2.554  -0.322 -28.270  0.00  0.00    -0.259 OA
BRANCH  22  46
HETATM   46  O   UNK     0      -4.849   3.362 -25.962  0.00  0.00    -0.283 OA
BRANCH  46  47
HETATM   47  C   UNK     0      -4.918   3.162 -24.610  0.00  0.00     0.295 C 
HETATM   48  O   UNK     0      -3.898   2.954 -23.994  0.00  0.00    -0.259 OA
BRANCH  47  49
HETATM   49  C   UNK     0      -6.210   3.178 -23.876  0.00  0.00     0.045 A 
HETATM   50  C   UNK     0      -7.251   4.008 -24.268  0.00  0.00     0.057 A 
HETATM   51  C   UNK     0      -8.448   4.005 -23.563  0.00  0.00     0.102 A 
HETATM   52  C   UNK     0      -8.607   3.177 -22.463  0.00  0.00     0.132 A 
HETATM   53  C   UNK     0      -7.570   2.346 -22.069  0.00  0.00     0.102 A 
HETATM   54  C   UNK     0      -6.376   2.348 -22.776  0.00  0.00     0.057 A 
BRANCH  51  55
HETATM   55  O   UNK     0      -9.467   4.820 -23.946  0.00  0.00    -0.358 OA
HETATM   56  H   UNK     0      -9.932   5.403 -23.263  0.00  0.00     0.217 HD
ENDBRANCH  51  55
BRANCH  52  57
HETATM   57  O   UNK     0      -9.780   3.173 -21.771  0.00  0.00    -0.356 OA
HETATM   58  H   UNK     0     -10.119   2.316 -21.354  0.00  0.00     0.218 HD
ENDBRANCH  52  57
BRANCH  53  59
HETATM   59  O   UNK     0      -7.724   1.534 -20.987  0.00  0.00    -0.358 OA
HETATM   60  H   UNK     0      -8.519   1.656 -20.372  0.00  0.00     0.217 HD
ENDBRANCH  53  59
ENDBRANCH  47  49
ENDBRANCH  46  47
ENDBRANCH  22  46
BRANCH  34  61
HETATM   61  O   UNK     0       0.112  -1.156 -29.630  0.00  0.00    -0.361 OA
HETATM   62  H   UNK     0      -0.549  -1.387 -28.899  0.00  0.00     0.217 HD
ENDBRANCH  34  61
BRANCH  37  63
HETATM   63  O   UNK     0       0.185  -0.560 -32.296  0.00  0.00    -0.356 OA
HETATM   64  H   UNK     0       1.007  -1.051 -32.624  0.00  0.00     0.218 HD
ENDBRANCH  37  63
BRANCH  38  65
HETATM   65  O   UNK     0       0.533   2.033 -33.119  0.00  0.00    -0.358 OA
HETATM   66  H   UNK     0       1.088   1.461 -33.744  0.00  0.00     0.217 HD
ENDBRANCH  38  65
BRANCH  39  67
HETATM   67  O   UNK     0       2.757   0.809 -27.752  0.00  0.00    -0.357 OA
HETATM   68  H   UNK     0       3.292   1.626 -27.486  0.00  0.00     0.217 HD
ENDBRANCH  39  67
BRANCH  41  69
HETATM   69  O   UNK     0       3.011  -0.209 -25.235  0.00  0.00    -0.356 OA
HETATM   70  H   UNK     0       3.428   0.543 -24.700  0.00  0.00     0.218 HD
ENDBRANCH  41  69
BRANCH  42  71
HETATM   71  O   UNK     0       0.786  -0.966 -23.810  0.00  0.00    -0.304 OA
BRANCH  71  72
HETATM   72  C   UNK     0       0.357  -2.230 -23.505  0.00  0.00     0.120 A 
HETATM   73  C   UNK     0       1.265  -3.277 -23.486  0.00  0.00     0.005 A 
HETATM   74  C   UNK     0       0.840  -4.558 -23.177  0.00  0.00     0.051 A 
HETATM   75  C   UNK     0      -0.494  -4.799 -22.888  0.00  0.00     0.102 A 
HETATM   76  C   UNK     0      -1.404  -3.753 -22.909  0.00  0.00     0.135 A 
HETATM   77  C   UNK     0      -0.980  -2.470 -23.216  0.00  0.00     0.136 A 
BRANCH  73  78
HETATM   78  C   UNK     0       2.718  -3.021 -23.798  0.00  0.00     0.205 C 
BRANCH  78  79
HETATM   79  O   UNK     0       2.929  -3.152 -25.195  0.00  0.00    -0.396 OA
HETATM   80  H   UNK     0       3.489  -2.470 -25.688  0.00  0.00     0.209 HD
ENDBRANCH  78  79
ENDBRANCH  73  78
BRANCH  75  81
HETATM   81  O   UNK     0      -0.908  -6.059 -22.588  0.00  0.00    -0.358 OA
HETATM   82  H   UNK     0      -1.807  -6.204 -22.144  0.00  0.00     0.217 HD
ENDBRANCH  75  81
BRANCH  76  83
HETATM   83  O   UNK     0      -2.714  -3.986 -22.627  0.00  0.00    -0.356 OA
HETATM   84  H   UNK     0      -3.421  -3.806 -23.328  0.00  0.00     0.218 HD
ENDBRANCH  76  83
BRANCH  77  85
HETATM   85  O   UNK     0      -1.879  -1.447 -23.234  0.00  0.00    -0.356 OA
HETATM   86  H   UNK     0      -1.559  -0.493 -23.342  0.00  0.00     0.218 HD
ENDBRANCH  77  85
ENDBRANCH  71  72
ENDBRANCH  42  71
ENDBRANCH  19  20
ENDBRANCH  18  19
ENDBRANCH  16  18
ENDBRANCH  12  16
BRANCH  14  87
HETATM   87  O   UNK     0       0.787   5.898 -35.410  0.00  0.00    -0.358 OA
HETATM   88  H   UNK     0       1.675   5.913 -34.924  0.00  0.00     0.217 HD
ENDBRANCH  14  87
BRANCH  15  89
HETATM   89  O   UNK     0      -0.585   3.788 -36.505  0.00  0.00    -0.356 OA
HETATM   90  H   UNK     0      -0.868   4.183 -37.392  0.00  0.00     0.218 HD
ENDBRANCH  15  89
ENDBRANCH   9  10
ENDBRANCH   7   9
ENDBRANCH   1   7
BRANCH   4  91
HETATM   91  O   UNK     0      -3.585  -2.716 -33.053  0.00  0.00    -0.358 OA
HETATM   92  H   UNK     0      -3.403  -3.325 -32.265  0.00  0.00     0.217 HD
ENDBRANCH   4  91
BRANCH   5  93
HETATM   93  O   UNK     0      -3.542   1.222 -30.391  0.00  0.00    -0.358 OA
HETATM   94  H   UNK     0      -3.142   2.137 -30.223  0.00  0.00     0.217 HD
ENDBRANCH   5  93
BRANCH   6  95
HETATM   95  O   UNK     0      -3.939  -1.482 -30.629  0.00  0.00    -0.356 OA
HETATM   96  H   UNK     0      -4.909  -1.743 -30.505  0.00  0.00     0.218 HD
ENDBRANCH   6  95
TORSDOF 30
ENDMDL
MODEL 13
REMARK VINA RESULT:      -6.3     17.222     21.848
REMARK  30 active torsions:
REMARK  status: ('A' for Active; 'I' for Inactive)
REMARK    1  A    between atoms: C_1  and  C_7 
REMARK    2  A    between atoms: C_4  and  O_9 
REMARK    3  A    between atoms: C_5  and  O_11 
REMARK    4  A    between atoms: C_6  and  O_10 
REMARK    5  A    between atoms: C_7  and  O_78 
REMARK    6  A    between atoms: C_12  and  C_18 
REMARK    7  A    between atoms: C_15  and  O_76 
REMARK    8  A    between atoms: C_16  and  O_78 
REMARK    9  A    between atoms: C_17  and  O_77 
REMARK   10  A    between atoms: C_18  and  O_74 
REMARK   11  A    between atoms: C_19  and  O_27 
REMARK   12  A    between atoms: C_21  and  O_25 
REMARK   13  A    between atoms: C_23  and  O_26 
REMARK   14  A    between atoms: C_28  and  O_37 
REMARK   15  A    between atoms: C_30  and  O_35 
REMARK   16  A    between atoms: C_32  and  O_36 
REMARK   17  A    between atoms: O_36  and  C_67 
REMARK   18  A    between atoms: C_39  and  O_60 
REMARK   19  A    between atoms: C_41  and  O_58 
REMARK   20  A    between atoms: C_42  and  C_45 
REMARK   21  A    between atoms: C_43  and  O_59 
REMARK   22  A    between atoms: C_45  and  O_53 
REMARK   23  A    between atoms: C_47  and  O_53 
REMARK   24  A    between atoms: C_51  and  C_54 
REMARK   25  A    between atoms: C_54  and  O_74 
REMARK   26  A    between atoms: C_64  and  O_69 
REMARK   27  A    between atoms: C_65  and  C_72 
REMARK   28  A    between atoms: C_66  and  O_70 
REMARK   29  A    between atoms: C_68  and  O_71 
REMARK   30  A    between atoms: C_72  and  O_73 
ROOT
HETATM    1  C   UNK     0     -20.584  -9.322 -37.877  0.00  0.00     0.045 A 
HETATM    2  C   UNK     0     -20.798  -9.123 -39.233  0.00  0.00     0.057 A 
HETATM    3  C   UNK     0     -19.420  -9.933 -37.442  0.00  0.00     0.057 A 
HETATM    4  C   UNK     0     -19.848  -9.537 -40.152  0.00  0.00     0.102 A 
HETATM    5  C   UNK     0     -18.470 -10.348 -38.362  0.00  0.00     0.102 A 
HETATM    6  C   UNK     0     -18.684 -10.150 -39.716  0.00  0.00     0.132 A 
ENDROOT
BRANCH   1   7
HETATM    7  C   UNK     0     -21.589  -8.881 -36.904  0.00  0.00     0.298 C 
HETATM    8  O   UNK     0     -22.766  -8.996 -37.160  0.00  0.00    -0.259 OA
BRANCH   7   9
HETATM    9  O   UNK     0     -21.206  -8.342 -35.710  0.00  0.00    -0.272 OA
BRANCH   9  10
HETATM   10  C   UNK     0     -22.123  -8.050 -34.741  0.00  0.00     0.116 A 
HETATM   11  C   UNK     0     -22.493  -6.732 -34.517  0.00  0.00     0.058 A 
HETATM   12  C   UNK     0     -23.426  -6.425 -33.538  0.00  0.00     0.045 A 
HETATM   13  C   UNK     0     -23.991  -7.443 -32.782  0.00  0.00     0.057 A 
HETATM   14  C   UNK     0     -23.620  -8.761 -33.001  0.00  0.00     0.102 A 
HETATM   15  C   UNK     0     -22.687  -9.065 -33.980  0.00  0.00     0.133 A 
BRANCH  12  16
HETATM   16  C   UNK     0     -23.821  -5.025 -33.298  0.00  0.00     0.293 C 
HETATM   17  O   UNK     0     -23.620  -4.190 -34.151  0.00  0.00    -0.259 OA
BRANCH  16  18
HETATM   18  O   UNK     0     -24.392  -4.661 -32.117  0.00  0.00    -0.315 OA
BRANCH  18  19
HETATM   19  C   UNK     0     -23.629  -3.893 -31.198  0.00  0.00     0.213 C 
BRANCH  19  20
HETATM   20  C   UNK     0     -24.418  -2.808 -30.443  0.00  0.00     0.181 C 
HETATM   21  O   UNK     0     -24.431  -3.151 -29.033  0.00  0.00    -0.348 OA
HETATM   22  C   UNK     0     -24.453  -2.113 -28.048  0.00  0.00     0.302 C 
HETATM   23  C   UNK     0     -23.307  -1.177 -28.366  0.00  0.00     0.219 C 
HETATM   24  C   UNK     0     -23.684  -0.506 -29.611  0.00  0.00     0.185 C 
HETATM   25  O   UNK     0     -23.081  -0.166 -27.394  0.00  0.00    -0.304 OA
HETATM   26  C   UNK     0     -23.717  -1.448 -30.770  0.00  0.00     0.194 C 
HETATM   27  O   UNK     0     -22.736   0.512 -29.886  0.00  0.00    -0.388 OA
HETATM   28  O   UNK     0     -24.415  -0.747 -31.795  0.00  0.00    -0.307 OA
HETATM   29  C   UNK     0     -24.134   0.592 -31.983  0.00  0.00     0.291 C 
HETATM   30  C   UNK     0     -22.732   1.075 -31.845  0.00  0.00     0.039 A 
HETATM   31  O   UNK     0     -25.013   1.360 -32.295  0.00  0.00    -0.260 OA
HETATM   32  C   UNK     0     -22.254   1.922 -30.825  0.00  0.00     0.086 A 
HETATM   33  C   UNK     0     -21.856   0.634 -32.827  0.00  0.00     0.054 A 
HETATM   34  C   UNK     0     -20.914   2.289 -30.839  0.00  0.00     0.096 A 
HETATM   35  C   UNK     0     -23.072   2.546 -29.717  0.00  0.00     0.013 A 
HETATM   36  H   UNK     0     -23.032   1.478 -29.936  0.00  0.00     0.229 HD
HETATM   37  C   UNK     0     -20.054   1.840 -31.826  0.00  0.00     0.129 A 
HETATM   38  C   UNK     0     -20.526   1.010 -32.824  0.00  0.00     0.102 A 
HETATM   39  C   UNK     0     -23.799   3.677 -30.071  0.00  0.00     0.110 A 
HETATM   40  C   UNK     0     -23.092   2.125 -28.373  0.00  0.00     0.052 A 
HETATM   41  C   UNK     0     -24.524   4.389 -29.129  0.00  0.00     0.133 A 
HETATM   42  C   UNK     0     -24.529   3.984 -27.808  0.00  0.00     0.113 A 
HETATM   43  C   UNK     0     -23.819   2.852 -27.445  0.00  0.00     0.058 A 
HETATM   44  C   UNK     0     -22.372   0.935 -27.836  0.00  0.00     0.294 C 
HETATM   45  O   UNK     0     -21.163   0.941 -27.778  0.00  0.00    -0.259 OA
BRANCH  22  46
HETATM   46  O   UNK     0     -24.333  -2.670 -26.741  0.00  0.00    -0.283 OA
BRANCH  46  47
HETATM   47  C   UNK     0     -25.352  -3.448 -26.261  0.00  0.00     0.295 C 
HETATM   48  O   UNK     0     -26.479  -3.009 -26.265  0.00  0.00    -0.259 OA
BRANCH  47  49
HETATM   49  C   UNK     0     -25.114  -4.812 -25.722  0.00  0.00     0.045 A 
HETATM   50  C   UNK     0     -23.862  -5.196 -25.259  0.00  0.00     0.057 A 
HETATM   51  C   UNK     0     -23.666  -6.478 -24.762  0.00  0.00     0.102 A 
HETATM   52  C   UNK     0     -24.718  -7.381 -24.728  0.00  0.00     0.132 A 
HETATM   53  C   UNK     0     -25.969  -7.001 -25.187  0.00  0.00     0.102 A 
HETATM   54  C   UNK     0     -26.164  -5.719 -25.682  0.00  0.00     0.057 A 
BRANCH  51  55
HETATM   55  O   UNK     0     -22.440  -6.854 -24.311  0.00  0.00    -0.358 OA
HETATM   56  H   UNK     0     -22.109  -6.524 -23.413  0.00  0.00     0.217 HD
ENDBRANCH  51  55
BRANCH  52  57
HETATM   57  O   UNK     0     -24.527  -8.638 -24.241  0.00  0.00    -0.356 OA
HETATM   58  H   UNK     0     -24.490  -9.427 -24.874  0.00  0.00     0.218 HD
ENDBRANCH  52  57
BRANCH  53  59
HETATM   59  O   UNK     0     -27.001  -7.888 -25.158  0.00  0.00    -0.358 OA
HETATM   60  H   UNK     0     -27.932  -7.573 -24.913  0.00  0.00     0.217 HD
ENDBRANCH  53  59
ENDBRANCH  47  49
ENDBRANCH  46  47
ENDBRANCH  22  46
BRANCH  34  61
HETATM   61  O   UNK     0     -20.441   3.121 -29.870  0.00  0.00    -0.361 OA
HETATM   62  H   UNK     0     -20.512   4.125 -29.986  0.00  0.00     0.217 HD
ENDBRANCH  34  61
BRANCH  37  63
HETATM   63  O   UNK     0     -18.750   2.218 -31.818  0.00  0.00    -0.356 OA
HETATM   64  H   UNK     0     -18.324   2.583 -32.660  0.00  0.00     0.218 HD
ENDBRANCH  37  63
BRANCH  38  65
HETATM   65  O   UNK     0     -19.686   0.572 -33.801  0.00  0.00    -0.358 OA
HETATM   66  H   UNK     0     -19.889  -0.288 -34.295  0.00  0.00     0.217 HD
ENDBRANCH  38  65
BRANCH  39  67
HETATM   67  O   UNK     0     -23.786   4.106 -31.362  0.00  0.00    -0.357 OA
HETATM   68  H   UNK     0     -24.002   3.462 -32.112  0.00  0.00     0.217 HD
ENDBRANCH  39  67
BRANCH  41  69
HETATM   69  O   UNK     0     -25.222   5.493 -29.506  0.00  0.00    -0.356 OA
HETATM   70  H   UNK     0     -24.768   6.398 -29.523  0.00  0.00     0.218 HD
ENDBRANCH  41  69
BRANCH  42  71
HETATM   71  O   UNK     0     -25.226   4.699 -26.873  0.00  0.00    -0.304 OA
BRANCH  71  72
HETATM   72  C   UNK     0     -26.149   4.120 -26.044  0.00  0.00     0.120 A 
HETATM   73  C   UNK     0     -27.406   3.798 -26.532  0.00  0.00     0.005 A 
HETATM   74  C   UNK     0     -28.344   3.210 -25.701  0.00  0.00     0.051 A 
HETATM   75  C   UNK     0     -28.030   2.943 -24.377  0.00  0.00     0.102 A 
HETATM   76  C   UNK     0     -26.774   3.265 -23.886  0.00  0.00     0.135 A 
HETATM   77  C   UNK     0     -25.833   3.852 -24.718  0.00  0.00     0.136 A 
BRANCH  73  78
HETATM   78  C   UNK     0     -27.751   4.086 -27.971  0.00  0.00     0.205 C 
BRANCH  78  79
HETATM   79  O   UNK     0     -27.780   5.489 -28.177  0.00  0.00    -0.396 OA
HETATM   80  H   UNK     0     -28.549   6.037 -27.814  0.00  0.00     0.209 HD
ENDBRANCH  78  79
ENDBRANCH  73  78
BRANCH  75  81
HETATM   81  O   UNK     0     -28.955   2.367 -23.563  0.00  0.00    -0.358 OA
HETATM   82  H   UNK     0     -28.656   1.810 -22.772  0.00  0.00     0.217 HD
ENDBRANCH  75  81
BRANCH  76  83
HETATM   83  O   UNK     0     -26.464   3.005 -22.588  0.00  0.00    -0.356 OA
HETATM   84  H   UNK     0     -26.922   3.519 -21.847  0.00  0.00     0.218 HD
ENDBRANCH  76  83
BRANCH  77  85
HETATM   85  O   UNK     0     -24.602   4.165 -24.229  0.00  0.00    -0.356 OA
HETATM   86  H   UNK     0     -24.320   3.834 -23.316  0.00  0.00     0.218 HD
ENDBRANCH  77  85
ENDBRANCH  71  72
ENDBRANCH  42  71
ENDBRANCH  19  20
ENDBRANCH  18  19
ENDBRANCH  16  18
ENDBRANCH  12  16
BRANCH  14  87
HETATM   87  O   UNK     0     -24.169  -9.758 -32.256  0.00  0.00    -0.358 OA
HETATM   88  H   UNK     0     -23.830  -9.936 -31.319  0.00  0.00     0.217 HD
ENDBRANCH  14  87
BRANCH  15  89
HETATM   89  O   UNK     0     -22.323 -10.357 -34.198  0.00  0.00    -0.356 OA
HETATM   90  H   UNK     0     -22.211 -10.989 -33.416  0.00  0.00     0.218 HD
ENDBRANCH  15  89
ENDBRANCH   9  10
ENDBRANCH   7   9
ENDBRANCH   1   7
BRANCH   4  91
HETATM   91  O   UNK     0     -20.056  -9.345 -41.482  0.00  0.00    -0.358 OA
HETATM   92  H   UNK     0     -19.277  -9.384 -42.127  0.00  0.00     0.217 HD
ENDBRANCH   4  91
BRANCH   5  93
HETATM   93  O   UNK     0     -17.329 -10.954 -37.936  0.00  0.00    -0.358 OA
HETATM   94  H   UNK     0     -16.801 -10.558 -37.169  0.00  0.00     0.217 HD
ENDBRANCH   5  93
BRANCH   6  95
HETATM   95  O   UNK     0     -17.752 -10.558 -40.619  0.00  0.00    -0.356 OA
HETATM   96  H   UNK     0     -17.084 -11.275 -40.367  0.00  0.00     0.218 HD
ENDBRANCH   6  95
TORSDOF 30
ENDMDL
MODEL 14
REMARK VINA RESULT:      -6.3     17.060     21.109
REMARK  30 active torsions:
REMARK  status: ('A' for Active; 'I' for Inactive)
REMARK    1  A    between atoms: C_1  and  C_7 
REMARK    2  A    between atoms: C_4  and  O_9 
REMARK    3  A    between atoms: C_5  and  O_11 
REMARK    4  A    between atoms: C_6  and  O_10 
REMARK    5  A    between atoms: C_7  and  O_78 
REMARK    6  A    between atoms: C_12  and  C_18 
REMARK    7  A    between atoms: C_15  and  O_76 
REMARK    8  A    between atoms: C_16  and  O_78 
REMARK    9  A    between atoms: C_17  and  O_77 
REMARK   10  A    between atoms: C_18  and  O_74 
REMARK   11  A    between atoms: C_19  and  O_27 
REMARK   12  A    between atoms: C_21  and  O_25 
REMARK   13  A    between atoms: C_23  and  O_26 
REMARK   14  A    between atoms: C_28  and  O_37 
REMARK   15  A    between atoms: C_30  and  O_35 
REMARK   16  A    between atoms: C_32  and  O_36 
REMARK   17  A    between atoms: O_36  and  C_67 
REMARK   18  A    between atoms: C_39  and  O_60 
REMARK   19  A    between atoms: C_41  and  O_58 
REMARK   20  A    between atoms: C_42  and  C_45 
REMARK   21  A    between atoms: C_43  and  O_59 
REMARK   22  A    between atoms: C_45  and  O_53 
REMARK   23  A    between atoms: C_47  and  O_53 
REMARK   24  A    between atoms: C_51  and  C_54 
REMARK   25  A    between atoms: C_54  and  O_74 
REMARK   26  A    between atoms: C_64  and  O_69 
REMARK   27  A    between atoms: C_65  and  C_72 
REMARK   28  A    between atoms: C_66  and  O_70 
REMARK   29  A    between atoms: C_68  and  O_71 
REMARK   30  A    between atoms: C_72  and  O_73 
ROOT
HETATM    1  C   UNK     0     -19.076  -7.849 -37.297  0.00  0.00     0.045 A 
HETATM    2  C   UNK     0     -19.671  -9.090 -37.121  0.00  0.00     0.057 A 
HETATM    3  C   UNK     0     -18.293  -7.609 -38.414  0.00  0.00     0.057 A 
HETATM    4  C   UNK     0     -19.482 -10.089 -38.062  0.00  0.00     0.102 A 
HETATM    5  C   UNK     0     -18.104  -8.609 -39.355  0.00  0.00     0.102 A 
HETATM    6  C   UNK     0     -18.698  -9.848 -39.179  0.00  0.00     0.132 A 
ENDROOT
BRANCH   1   7
HETATM    7  C   UNK     0     -19.279  -6.791 -36.301  0.00  0.00     0.298 C 
HETATM    8  O   UNK     0     -20.234  -6.836 -35.561  0.00  0.00    -0.259 OA
BRANCH   7   9
HETATM    9  O   UNK     0     -18.395  -5.755 -36.204  0.00  0.00    -0.272 OA
BRANCH   9  10
HETATM   10  C   UNK     0     -18.783  -4.472 -36.463  0.00  0.00     0.116 A 
HETATM   11  C   UNK     0     -19.684  -4.217 -37.487  0.00  0.00     0.058 A 
HETATM   12  C   UNK     0     -20.088  -2.918 -37.755  0.00  0.00     0.045 A 
HETATM   13  C   UNK     0     -19.588  -1.870 -36.994  0.00  0.00     0.057 A 
HETATM   14  C   UNK     0     -18.684  -2.121 -35.972  0.00  0.00     0.102 A 
HETATM   15  C   UNK     0     -18.283  -3.421 -35.706  0.00  0.00     0.133 A 
BRANCH  12  16
HETATM   16  C   UNK     0     -21.044  -2.645 -38.844  0.00  0.00     0.293 C 
HETATM   17  O   UNK     0     -20.704  -2.801 -39.995  0.00  0.00    -0.259 OA
BRANCH  16  18
HETATM   18  O   UNK     0     -22.300  -2.200 -38.564  0.00  0.00    -0.315 OA
BRANCH  18  19
HETATM   19  C   UNK     0     -23.306  -3.151 -38.246  0.00  0.00     0.213 C 
BRANCH  19  20
HETATM   20  C   UNK     0     -23.894  -3.029 -36.829  0.00  0.00     0.181 C 
HETATM   21  O   UNK     0     -23.652  -4.274 -36.124  0.00  0.00    -0.348 OA
HETATM   22  C   UNK     0     -23.446  -4.261 -34.708  0.00  0.00     0.302 C 
HETATM   23  C   UNK     0     -22.347  -3.258 -34.429  0.00  0.00     0.219 C 
HETATM   24  C   UNK     0     -22.929  -1.948 -34.723  0.00  0.00     0.185 C 
HETATM   25  O   UNK     0     -21.902  -3.228 -33.080  0.00  0.00    -0.304 OA
HETATM   26  C   UNK     0     -23.218  -1.776 -36.179  0.00  0.00     0.194 C 
HETATM   27  O   UNK     0     -22.013  -0.942 -34.325  0.00  0.00    -0.388 OA
HETATM   28  O   UNK     0     -24.071  -0.638 -36.254  0.00  0.00    -0.307 OA
HETATM   29  C   UNK     0     -23.780   0.453 -35.459  0.00  0.00     0.291 C 
HETATM   30  C   UNK     0     -22.360   0.846 -35.240  0.00  0.00     0.039 A 
HETATM   31  O   UNK     0     -24.673   1.109 -34.976  0.00  0.00    -0.260 OA
HETATM   32  C   UNK     0     -21.665   0.758 -34.018  0.00  0.00     0.086 A 
HETATM   33  C   UNK     0     -21.706   1.340 -36.359  0.00  0.00     0.054 A 
HETATM   34  C   UNK     0     -20.339   1.171 -33.975  0.00  0.00     0.096 A 
HETATM   35  C   UNK     0     -22.233   0.307 -32.691  0.00  0.00     0.013 A 
HETATM   36  H   UNK     0     -22.276  -0.271 -33.615  0.00  0.00     0.229 HD
HETATM   37  C   UNK     0     -19.701   1.661 -35.101  0.00  0.00     0.129 A 
HETATM   38  C   UNK     0     -20.386   1.747 -36.297  0.00  0.00     0.102 A 
HETATM   39  C   UNK     0     -22.971   1.259 -31.998  0.00  0.00     0.110 A 
HETATM   40  C   UNK     0     -22.012  -0.946 -32.086  0.00  0.00     0.052 A 
HETATM   41  C   UNK     0     -23.476   0.999 -30.734  0.00  0.00     0.133 A 
HETATM   42  C   UNK     0     -23.244  -0.225 -30.135  0.00  0.00     0.113 A 
HETATM   43  C   UNK     0     -22.521  -1.187 -30.820  0.00  0.00     0.058 A 
HETATM   44  C   UNK     0     -21.248  -2.072 -32.696  0.00  0.00     0.294 C 
HETATM   45  O   UNK     0     -20.052  -1.974 -32.845  0.00  0.00    -0.259 OA
BRANCH  22  46
HETATM   46  O   UNK     0     -23.101  -5.566 -34.247  0.00  0.00    -0.283 OA
BRANCH  46  47
HETATM   47  C   UNK     0     -24.032  -6.564 -34.338  0.00  0.00     0.295 C 
HETATM   48  O   UNK     0     -25.150  -6.364 -33.921  0.00  0.00    -0.259 OA
BRANCH  47  49
HETATM   49  C   UNK     0     -23.710  -7.892 -34.921  0.00  0.00     0.045 A 
HETATM   50  C   UNK     0     -23.592  -9.021 -34.121  0.00  0.00     0.057 A 
HETATM   51  C   UNK     0     -23.287 -10.250 -34.691  0.00  0.00     0.102 A 
HETATM   52  C   UNK     0     -23.098 -10.356 -36.060  0.00  0.00     0.132 A 
HETATM   53  C   UNK     0     -23.217  -9.232 -36.862  0.00  0.00     0.102 A 
HETATM   54  C   UNK     0     -23.523  -8.005 -36.292  0.00  0.00     0.057 A 
BRANCH  51  55
HETATM   55  O   UNK     0     -23.170 -11.354 -33.906  0.00  0.00    -0.358 OA
HETATM   56  H   UNK     0     -22.877 -12.234 -34.312  0.00  0.00     0.217 HD
ENDBRANCH  51  55
BRANCH  52  57
HETATM   57  O   UNK     0     -22.800 -11.561 -36.620  0.00  0.00    -0.356 OA
HETATM   58  H   UNK     0     -21.934 -11.682 -37.129  0.00  0.00     0.218 HD
ENDBRANCH  52  57
BRANCH  53  59
HETATM   59  O   UNK     0     -23.027  -9.334 -38.206  0.00  0.00    -0.358 OA
HETATM   60  H   UNK     0     -22.943  -8.498 -38.770  0.00  0.00     0.217 HD
ENDBRANCH  53  59
ENDBRANCH  47  49
ENDBRANCH  46  47
ENDBRANCH  22  46
BRANCH  34  61
HETATM   61  O   UNK     0     -19.660   1.108 -32.797  0.00  0.00    -0.361 OA
HETATM   62  H   UNK     0     -19.996   0.514 -32.049  0.00  0.00     0.217 HD
ENDBRANCH  34  61
BRANCH  37  63
HETATM   63  O   UNK     0     -18.406   2.063 -35.030  0.00  0.00    -0.356 OA
HETATM   64  H   UNK     0     -18.065   2.784 -35.652  0.00  0.00     0.218 HD
ENDBRANCH  37  63
BRANCH  38  65
HETATM   65  O   UNK     0     -19.765   2.235 -37.405  0.00  0.00    -0.358 OA
HETATM   66  H   UNK     0     -19.459   3.200 -37.431  0.00  0.00     0.217 HD
ENDBRANCH  38  65
BRANCH  39  67
HETATM   67  O   UNK     0     -23.188   2.479 -32.561  0.00  0.00    -0.357 OA
HETATM   68  H   UNK     0     -22.444   3.165 -32.586  0.00  0.00     0.217 HD
ENDBRANCH  39  67
BRANCH  41  69
HETATM   69  O   UNK     0     -24.190   1.953 -30.081  0.00  0.00    -0.356 OA
HETATM   70  H   UNK     0     -24.701   2.652 -30.606  0.00  0.00     0.218 HD
ENDBRANCH  41  69
BRANCH  42  71
HETATM   71  O   UNK     0     -23.723  -0.476 -28.879  0.00  0.00    -0.304 OA
BRANCH  71  72
HETATM   72  C   UNK     0     -24.130  -1.722 -28.483  0.00  0.00     0.120 A 
HETATM   73  C   UNK     0     -25.391  -2.176 -28.838  0.00  0.00     0.005 A 
HETATM   74  C   UNK     0     -25.811  -3.436 -28.444  0.00  0.00     0.051 A 
HETATM   75  C   UNK     0     -24.973  -4.245 -27.693  0.00  0.00     0.102 A 
HETATM   76  C   UNK     0     -23.712  -3.792 -27.337  0.00  0.00     0.135 A 
HETATM   77  C   UNK     0     -23.289  -2.533 -27.732  0.00  0.00     0.136 A 
BRANCH  73  78
HETATM   78  C   UNK     0     -26.306  -1.300 -29.655  0.00  0.00     0.205 C 
BRANCH  78  79
HETATM   79  O   UNK     0     -26.637  -0.140 -28.908  0.00  0.00    -0.396 OA
HETATM   80  H   UNK     0     -25.904   0.430 -28.507  0.00  0.00     0.209 HD
ENDBRANCH  78  79
ENDBRANCH  73  78
BRANCH  75  81
HETATM   81  O   UNK     0     -25.389  -5.481 -27.306  0.00  0.00    -0.358 OA
HETATM   82  H   UNK     0     -25.619  -5.657 -26.336  0.00  0.00     0.217 HD
ENDBRANCH  75  81
BRANCH  76  83
HETATM   83  O   UNK     0     -22.888  -4.584 -26.600  0.00  0.00    -0.356 OA
HETATM   84  H   UNK     0     -22.549  -5.456 -26.984  0.00  0.00     0.218 HD
ENDBRANCH  76  83
BRANCH  77  85
HETATM   85  O   UNK     0     -22.050  -2.094 -27.379  0.00  0.00    -0.356 OA
HETATM   86  H   UNK     0     -21.764  -2.113 -26.408  0.00  0.00     0.218 HD
ENDBRANCH  77  85
ENDBRANCH  71  72
ENDBRANCH  42  71
ENDBRANCH  19  20
ENDBRANCH  18  19
ENDBRANCH  16  18
ENDBRANCH  12  16
BRANCH  14  87
HETATM   87  O   UNK     0     -18.190  -1.094 -35.230  0.00  0.00    -0.358 OA
HETATM   88  H   UNK     0     -17.604  -0.392 -35.664  0.00  0.00     0.217 HD
ENDBRANCH  14  87
BRANCH  15  89
HETATM   89  O   UNK     0     -17.398  -3.670 -34.704  0.00  0.00    -0.356 OA
HETATM   90  H   UNK     0     -17.457  -3.150 -33.837  0.00  0.00     0.218 HD
ENDBRANCH  15  89
ENDBRANCH   9  10
ENDBRANCH   7   9
ENDBRANCH   1   7
BRANCH   4  91
HETATM   91  O   UNK     0     -20.064 -11.306 -37.892  0.00  0.00    -0.358 OA
HETATM   92  H   UNK     0     -19.607 -12.010 -37.326  0.00  0.00     0.217 HD
ENDBRANCH   4  91
BRANCH   5  93
HETATM   93  O   UNK     0     -17.331  -8.376 -40.450  0.00  0.00    -0.358 OA
HETATM   94  H   UNK     0     -17.710  -7.866 -41.238  0.00  0.00     0.217 HD
ENDBRANCH   5  93
BRANCH   6  95
HETATM   95  O   UNK     0     -18.511 -10.829 -40.102  0.00  0.00    -0.356 OA
HETATM   96  H   UNK     0     -17.603 -10.956 -40.529  0.00  0.00     0.218 HD
ENDBRANCH   6  95
TORSDOF 30
ENDMDL
MODEL 15
REMARK VINA RESULT:      -6.3     26.955     32.720
REMARK  30 active torsions:
REMARK  status: ('A' for Active; 'I' for Inactive)
REMARK    1  A    between atoms: C_1  and  C_7 
REMARK    2  A    between atoms: C_4  and  O_9 
REMARK    3  A    between atoms: C_5  and  O_11 
REMARK    4  A    between atoms: C_6  and  O_10 
REMARK    5  A    between atoms: C_7  and  O_78 
REMARK    6  A    between atoms: C_12  and  C_18 
REMARK    7  A    between atoms: C_15  and  O_76 
REMARK    8  A    between atoms: C_16  and  O_78 
REMARK    9  A    between atoms: C_17  and  O_77 
REMARK   10  A    between atoms: C_18  and  O_74 
REMARK   11  A    between atoms: C_19  and  O_27 
REMARK   12  A    between atoms: C_21  and  O_25 
REMARK   13  A    between atoms: C_23  and  O_26 
REMARK   14  A    between atoms: C_28  and  O_37 
REMARK   15  A    between atoms: C_30  and  O_35 
REMARK   16  A    between atoms: C_32  and  O_36 
REMARK   17  A    between atoms: O_36  and  C_67 
REMARK   18  A    between atoms: C_39  and  O_60 
REMARK   19  A    between atoms: C_41  and  O_58 
REMARK   20  A    between atoms: C_42  and  C_45 
REMARK   21  A    between atoms: C_43  and  O_59 
REMARK   22  A    between atoms: C_45  and  O_53 
REMARK   23  A    between atoms: C_47  and  O_53 
REMARK   24  A    between atoms: C_51  and  C_54 
REMARK   25  A    between atoms: C_54  and  O_74 
REMARK   26  A    between atoms: C_64  and  O_69 
REMARK   27  A    between atoms: C_65  and  C_72 
REMARK   28  A    between atoms: C_66  and  O_70 
REMARK   29  A    between atoms: C_68  and  O_71 
REMARK   30  A    between atoms: C_72  and  O_73 
ROOT
HETATM    1  C   UNK     0     -21.818 -18.981 -32.338  0.00  0.00     0.045 A 
HETATM    2  C   UNK     0     -21.135 -19.693 -31.362  0.00  0.00     0.057 A 
HETATM    3  C   UNK     0     -21.181 -17.957 -33.020  0.00  0.00     0.057 A 
HETATM    4  C   UNK     0     -19.818 -19.380 -31.070  0.00  0.00     0.102 A 
HETATM    5  C   UNK     0     -19.864 -17.644 -32.727  0.00  0.00     0.102 A 
HETATM    6  C   UNK     0     -19.183 -18.355 -31.752  0.00  0.00     0.132 A 
ENDROOT
BRANCH   1   7
HETATM    7  C   UNK     0     -23.212 -19.315 -32.649  0.00  0.00     0.298 C 
HETATM    8  O   UNK     0     -23.459 -20.237 -33.393  0.00  0.00    -0.259 OA
BRANCH   7   9
HETATM    9  O   UNK     0     -24.233 -18.592 -32.105  0.00  0.00    -0.272 OA
BRANCH   9  10
HETATM   10  C   UNK     0     -24.689 -18.853 -30.845  0.00  0.00     0.116 A 
HETATM   11  C   UNK     0     -25.456 -19.986 -30.610  0.00  0.00     0.058 A 
HETATM   12  C   UNK     0     -25.920 -20.263 -29.333  0.00  0.00     0.045 A 
HETATM   13  C   UNK     0     -25.614 -19.403 -28.288  0.00  0.00     0.057 A 
HETATM   14  C   UNK     0     -24.852 -18.268 -28.520  0.00  0.00     0.102 A 
HETATM   15  C   UNK     0     -24.389 -17.994 -29.797  0.00  0.00     0.133 A 
BRANCH  12  16
HETATM   16  C   UNK     0     -26.735 -21.466 -29.082  0.00  0.00     0.293 C 
HETATM   17  O   UNK     0     -27.885 -21.500 -29.458  0.00  0.00    -0.259 OA
BRANCH  16  18
HETATM   18  O   UNK     0     -26.210 -22.529 -28.413  0.00  0.00    -0.315 OA
BRANCH  18  19
HETATM   19  C   UNK     0     -26.250 -22.530 -26.994  0.00  0.00     0.213 C 
BRANCH  19  20
HETATM   20  C   UNK     0     -24.883 -22.679 -26.303  0.00  0.00     0.181 C 
HETATM   21  O   UNK     0     -24.980 -23.743 -25.321  0.00  0.00    -0.348 OA
HETATM   22  C   UNK     0     -23.835 -24.551 -25.030  0.00  0.00     0.302 C 
HETATM   23  C   UNK     0     -23.319 -25.079 -26.352  0.00  0.00     0.219 C 
HETATM   24  C   UNK     0     -22.775 -23.915 -27.053  0.00  0.00     0.185 C 
HETATM   25  O   UNK     0     -22.271 -26.031 -26.239  0.00  0.00    -0.304 OA
HETATM   26  C   UNK     0     -23.842 -22.944 -27.441  0.00  0.00     0.194 C 
HETATM   27  O   UNK     0     -22.120 -24.357 -28.230  0.00  0.00    -0.388 OA
HETATM   28  O   UNK     0     -23.146 -21.749 -27.786  0.00  0.00    -0.307 OA
HETATM   29  C   UNK     0     -21.987 -21.857 -28.528  0.00  0.00     0.291 C 
HETATM   30  C   UNK     0     -21.899 -22.874 -29.612  0.00  0.00     0.039 A 
HETATM   31  O   UNK     0     -21.063 -21.104 -28.325  0.00  0.00    -0.260 OA
HETATM   32  C   UNK     0     -21.069 -24.013 -29.601  0.00  0.00     0.086 A 
HETATM   33  C   UNK     0     -22.717 -22.641 -30.708  0.00  0.00     0.054 A 
HETATM   34  C   UNK     0     -21.098 -24.868 -30.697  0.00  0.00     0.096 A 
HETATM   35  C   UNK     0     -20.073 -24.390 -28.528  0.00  0.00     0.013 A 
HETATM   36  H   UNK     0     -21.130 -24.186 -28.353  0.00  0.00     0.229 HD
HETATM   37  C   UNK     0     -21.921 -24.619 -31.782  0.00  0.00     0.129 A 
HETATM   38  C   UNK     0     -22.733 -23.503 -31.789  0.00  0.00     0.102 A 
HETATM   39  C   UNK     0     -18.856 -23.722 -28.576  0.00  0.00     0.110 A 
HETATM   40  C   UNK     0     -20.254 -25.395 -27.557  0.00  0.00     0.052 A 
HETATM   41  C   UNK     0     -17.829 -24.034 -27.699  0.00  0.00     0.133 A 
HETATM   42  C   UNK     0     -18.001 -25.032 -26.757  0.00  0.00     0.113 A 
HETATM   43  C   UNK     0     -19.214 -25.696 -26.692  0.00  0.00     0.058 A 
HETATM   44  C   UNK     0     -21.496 -26.198 -27.372  0.00  0.00     0.294 C 
HETATM   45  O   UNK     0     -21.820 -27.004 -28.215  0.00  0.00    -0.259 OA
BRANCH  22  46
HETATM   46  O   UNK     0     -24.188 -25.606 -24.140  0.00  0.00    -0.283 OA
BRANCH  46  47
HETATM   47  C   UNK     0     -23.877 -25.480 -22.813  0.00  0.00     0.295 C 
HETATM   48  O   UNK     0     -24.755 -25.206 -22.028  0.00  0.00    -0.259 OA
BRANCH  47  49
HETATM   49  C   UNK     0     -22.491 -25.656 -22.307  0.00  0.00     0.045 A 
HETATM   50  C   UNK     0     -21.606 -24.588 -22.246  0.00  0.00     0.057 A 
HETATM   51  C   UNK     0     -20.314 -24.780 -21.772  0.00  0.00     0.102 A 
HETATM   52  C   UNK     0     -19.903 -26.038 -21.359  0.00  0.00     0.132 A 
HETATM   53  C   UNK     0     -20.784 -27.106 -21.418  0.00  0.00     0.102 A 
HETATM   54  C   UNK     0     -22.075 -26.912 -21.890  0.00  0.00     0.057 A 
BRANCH  51  55
HETATM   55  O   UNK     0     -19.447 -23.734 -21.714  0.00  0.00    -0.358 OA
HETATM   56  H   UNK     0     -18.464 -23.882 -21.904  0.00  0.00     0.217 HD
ENDBRANCH  51  55
BRANCH  52  57
HETATM   57  O   UNK     0     -18.637 -26.227 -20.894  0.00  0.00    -0.356 OA
HETATM   58  H   UNK     0     -18.461 -26.914 -20.172  0.00  0.00     0.218 HD
ENDBRANCH  52  57
BRANCH  53  59
HETATM   59  O   UNK     0     -20.380 -28.343 -21.016  0.00  0.00    -0.358 OA
HETATM   60  H   UNK     0     -21.045 -29.105 -20.981  0.00  0.00     0.217 HD
ENDBRANCH  53  59
ENDBRANCH  47  49
ENDBRANCH  46  47
ENDBRANCH  22  46
BRANCH  34  61
HETATM   61  O   UNK     0     -20.288 -25.962 -30.709  0.00  0.00    -0.361 OA
HETATM   62  H   UNK     0     -19.297 -25.857 -30.883  0.00  0.00     0.217 HD
ENDBRANCH  34  61
BRANCH  37  63
HETATM   63  O   UNK     0     -21.925 -25.469 -32.841  0.00  0.00    -0.356 OA
HETATM   64  H   UNK     0     -21.882 -25.103 -33.783  0.00  0.00     0.218 HD
ENDBRANCH  37  63
BRANCH  38  65
HETATM   65  O   UNK     0     -23.537 -23.251 -32.857  0.00  0.00    -0.358 OA
HETATM   66  H   UNK     0     -24.470 -22.886 -32.713  0.00  0.00     0.217 HD
ENDBRANCH  38  65
BRANCH  39  67
HETATM   67  O   UNK     0     -18.657 -22.754 -29.511  0.00  0.00    -0.357 OA
HETATM   68  H   UNK     0     -17.764 -22.680 -29.981  0.00  0.00     0.217 HD
ENDBRANCH  39  67
BRANCH  41  69
HETATM   69  O   UNK     0     -16.648 -23.365 -27.773  0.00  0.00    -0.356 OA
HETATM   70  H   UNK     0     -16.239 -23.159 -28.676  0.00  0.00     0.218 HD
ENDBRANCH  41  69
BRANCH  42  71
HETATM   71  O   UNK     0     -16.981 -25.356 -25.906  0.00  0.00    -0.304 OA
BRANCH  71  72
HETATM   72  C   UNK     0     -16.259 -26.512 -26.034  0.00  0.00     0.120 A 
HETATM   73  C   UNK     0     -16.551 -27.598 -25.224  0.00  0.00     0.005 A 
HETATM   74  C   UNK     0     -15.826 -28.771 -25.348  0.00  0.00     0.051 A 
HETATM   75  C   UNK     0     -14.805 -28.864 -26.280  0.00  0.00     0.102 A 
HETATM   76  C   UNK     0     -14.510 -27.778 -27.091  0.00  0.00     0.135 A 
HETATM   77  C   UNK     0     -15.236 -26.604 -26.969  0.00  0.00     0.136 A 
BRANCH  73  78
HETATM   78  C   UNK     0     -17.662 -27.503 -24.208  0.00  0.00     0.205 C 
BRANCH  78  79
HETATM   79  O   UNK     0     -17.103 -27.429 -22.906  0.00  0.00    -0.396 OA
HETATM   80  H   UNK     0     -16.102 -27.504 -22.780  0.00  0.00     0.209 HD
ENDBRANCH  78  79
ENDBRANCH  73  78
BRANCH  75  81
HETATM   81  O   UNK     0     -14.094 -30.017 -26.398  0.00  0.00    -0.358 OA
HETATM   82  H   UNK     0     -13.199 -30.109 -25.933  0.00  0.00     0.217 HD
ENDBRANCH  75  81
BRANCH  76  83
HETATM   83  O   UNK     0     -13.508 -27.865 -28.006  0.00  0.00    -0.356 OA
HETATM   84  H   UNK     0     -13.729 -27.962 -28.988  0.00  0.00     0.218 HD
ENDBRANCH  76  83
BRANCH  77  85
HETATM   85  O   UNK     0     -14.941 -25.542 -27.769  0.00  0.00    -0.356 OA
HETATM   86  H   UNK     0     -14.049 -25.498 -28.244  0.00  0.00     0.218 HD
ENDBRANCH  77  85
ENDBRANCH  71  72
ENDBRANCH  42  71
ENDBRANCH  19  20
ENDBRANCH  18  19
ENDBRANCH  16  18
ENDBRANCH  12  16
BRANCH  14  87
HETATM   87  O   UNK     0     -24.557 -17.422 -27.496  0.00  0.00    -0.358 OA
HETATM   88  H   UNK     0     -24.087 -16.545 -27.683  0.00  0.00     0.217 HD
ENDBRANCH  14  87
BRANCH  15  89
HETATM   89  O   UNK     0     -23.639 -16.882 -30.027  0.00  0.00    -0.356 OA
HETATM   90  H   UNK     0     -23.226 -16.382 -29.250  0.00  0.00     0.218 HD
ENDBRANCH  15  89
ENDBRANCH   9  10
ENDBRANCH   7   9
ENDBRANCH   1   7
BRANCH   4  91
HETATM   91  O   UNK     0     -19.147 -20.075 -30.113  0.00  0.00    -0.358 OA
HETATM   92  H   UNK     0     -18.905 -19.628 -29.239  0.00  0.00     0.217 HD
ENDBRANCH   4  91
BRANCH   5  93
HETATM   93  O   UNK     0     -19.239 -16.635 -33.392  0.00  0.00    -0.358 OA
HETATM   94  H   UNK     0     -19.089 -16.704 -34.391  0.00  0.00     0.217 HD
ENDBRANCH   5  93
BRANCH   6  95
HETATM   95  O   UNK     0     -17.890 -18.046 -31.464  0.00  0.00    -0.356 OA
HETATM   96  H   UNK     0     -17.613 -17.079 -31.353  0.00  0.00     0.218 HD
ENDBRANCH   6  95
TORSDOF 30
ENDMDL
MODEL 16
REMARK VINA RESULT:      -6.2     26.475     31.235
REMARK  30 active torsions:
REMARK  status: ('A' for Active; 'I' for Inactive)
REMARK    1  A    between atoms: C_1  and  C_7 
REMARK    2  A    between atoms: C_4  and  O_9 
REMARK    3  A    between atoms: C_5  and  O_11 
REMARK    4  A    between atoms: C_6  and  O_10 
REMARK    5  A    between atoms: C_7  and  O_78 
REMARK    6  A    between atoms: C_12  and  C_18 
REMARK    7  A    between atoms: C_15  and  O_76 
REMARK    8  A    between atoms: C_16  and  O_78 
REMARK    9  A    between atoms: C_17  and  O_77 
REMARK   10  A    between atoms: C_18  and  O_74 
REMARK   11  A    between atoms: C_19  and  O_27 
REMARK   12  A    between atoms: C_21  and  O_25 
REMARK   13  A    between atoms: C_23  and  O_26 
REMARK   14  A    between atoms: C_28  and  O_37 
REMARK   15  A    between atoms: C_30  and  O_35 
REMARK   16  A    between atoms: C_32  and  O_36 
REMARK   17  A    between atoms: O_36  and  C_67 
REMARK   18  A    between atoms: C_39  and  O_60 
REMARK   19  A    between atoms: C_41  and  O_58 
REMARK   20  A    between atoms: C_42  and  C_45 
REMARK   21  A    between atoms: C_43  and  O_59 
REMARK   22  A    between atoms: C_45  and  O_53 
REMARK   23  A    between atoms: C_47  and  O_53 
REMARK   24  A    between atoms: C_51  and  C_54 
REMARK   25  A    between atoms: C_54  and  O_74 
REMARK   26  A    between atoms: C_64  and  O_69 
REMARK   27  A    between atoms: C_65  and  C_72 
REMARK   28  A    between atoms: C_66  and  O_70 
REMARK   29  A    between atoms: C_68  and  O_71 
REMARK   30  A    between atoms: C_72  and  O_73 
ROOT
HETATM    1  C   UNK     0     -21.780 -18.177 -31.530  0.00  0.00     0.045 A 
HETATM    2  C   UNK     0     -22.201 -19.278 -30.798  0.00  0.00     0.057 A 
HETATM    3  C   UNK     0     -20.440 -18.028 -31.847  0.00  0.00     0.057 A 
HETATM    4  C   UNK     0     -21.282 -20.228 -30.385  0.00  0.00     0.102 A 
HETATM    5  C   UNK     0     -19.521 -18.978 -31.433  0.00  0.00     0.102 A 
HETATM    6  C   UNK     0     -19.941 -20.077 -30.703  0.00  0.00     0.132 A 
ENDROOT
BRANCH   1   7
HETATM    7  C   UNK     0     -22.755 -17.172 -31.969  0.00  0.00     0.298 C 
HETATM    8  O   UNK     0     -23.304 -17.294 -33.040  0.00  0.00    -0.259 OA
BRANCH   7   9
HETATM    9  O   UNK     0     -23.046 -16.099 -31.177  0.00  0.00    -0.272 OA
BRANCH   9  10
HETATM   10  C   UNK     0     -24.334 -15.814 -30.823  0.00  0.00     0.116 A 
HETATM   11  C   UNK     0     -25.047 -16.710 -30.039  0.00  0.00     0.058 A 
HETATM   12  C   UNK     0     -26.354 -16.429 -29.669  0.00  0.00     0.045 A 
HETATM   13  C   UNK     0     -26.948 -15.246 -30.087  0.00  0.00     0.057 A 
HETATM   14  C   UNK     0     -26.239 -14.351 -30.875  0.00  0.00     0.102 A 
HETATM   15  C   UNK     0     -24.933 -14.635 -31.242  0.00  0.00     0.133 A 
BRANCH  12  16
HETATM   16  C   UNK     0     -27.114 -17.379 -28.836  0.00  0.00     0.293 C 
HETATM   17  O   UNK     0     -27.557 -18.390 -29.332  0.00  0.00    -0.259 OA
BRANCH  16  18
HETATM   18  O   UNK     0     -27.336 -17.118 -27.518  0.00  0.00    -0.315 OA
BRANCH  18  19
HETATM   19  C   UNK     0     -28.358 -16.197 -27.169  0.00  0.00     0.213 C 
BRANCH  19  20
HETATM   20  C   UNK     0     -28.942 -16.378 -25.756  0.00  0.00     0.181 C 
HETATM   21  O   UNK     0     -28.281 -17.507 -25.128  0.00  0.00    -0.348 OA
HETATM   22  C   UNK     0     -28.081 -17.517 -23.711  0.00  0.00     0.302 C 
HETATM   23  C   UNK     0     -27.392 -16.218 -23.351  0.00  0.00     0.219 C 
HETATM   24  C   UNK     0     -28.392 -15.171 -23.571  0.00  0.00     0.185 C 
HETATM   25  O   UNK     0     -26.976 -16.125 -21.997  0.00  0.00    -0.304 OA
HETATM   26  C   UNK     0     -28.733 -15.014 -25.017  0.00  0.00     0.194 C 
HETATM   27  O   UNK     0     -27.875 -13.940 -23.094  0.00  0.00    -0.388 OA
HETATM   28  O   UNK     0     -29.927 -14.237 -25.032  0.00  0.00    -0.307 OA
HETATM   29  C   UNK     0     -30.024 -13.167 -24.164  0.00  0.00     0.291 C 
HETATM   30  C   UNK     0     -28.824 -12.324 -23.899  0.00  0.00     0.039 A 
HETATM   31  O   UNK     0     -31.084 -12.891 -23.654  0.00  0.00    -0.260 OA
HETATM   32  C   UNK     0     -28.132 -12.249 -22.673  0.00  0.00     0.086 A 
HETATM   33  C   UNK     0     -28.387 -11.564 -24.973  0.00  0.00     0.054 A 
HETATM   34  C   UNK     0     -27.029 -11.408 -22.584  0.00  0.00     0.096 A 
HETATM   35  C   UNK     0     -28.500 -12.953 -21.387  0.00  0.00     0.013 A 
HETATM   36  H   UNK     0     -28.348 -13.448 -22.347  0.00  0.00     0.229 HD
HETATM   37  C   UNK     0     -26.607 -10.656 -23.666  0.00  0.00     0.129 A 
HETATM   38  C   UNK     0     -27.288 -10.733 -24.865  0.00  0.00     0.102 A 
HETATM   39  C   UNK     0     -29.515 -12.360 -20.647  0.00  0.00     0.110 A 
HETATM   40  C   UNK     0     -27.856 -14.091 -20.860  0.00  0.00     0.052 A 
HETATM   41  C   UNK     0     -29.890 -12.860 -19.410  0.00  0.00     0.133 A 
HETATM   42  C   UNK     0     -29.247 -13.966 -18.887  0.00  0.00     0.113 A 
HETATM   43  C   UNK     0     -28.242 -14.573 -19.621  0.00  0.00     0.058 A 
HETATM   44  C   UNK     0     -26.757 -14.842 -21.529  0.00  0.00     0.294 C 
HETATM   45  O   UNK     0     -25.668 -14.329 -21.653  0.00  0.00    -0.259 OA
BRANCH  22  46
HETATM   46  O   UNK     0     -27.305 -18.650 -23.329  0.00  0.00    -0.283 OA
BRANCH  46  47
HETATM   47  C   UNK     0     -27.864 -19.580 -22.495  0.00  0.00     0.295 C 
HETATM   48  O   UNK     0     -28.936 -20.060 -22.784  0.00  0.00    -0.259 OA
BRANCH  47  49
HETATM   49  C   UNK     0     -27.200 -20.010 -21.237  0.00  0.00     0.045 A 
HETATM   50  C   UNK     0     -26.665 -21.284 -21.103  0.00  0.00     0.057 A 
HETATM   51  C   UNK     0     -26.052 -21.662 -19.915  0.00  0.00     0.102 A 
HETATM   52  C   UNK     0     -25.973 -20.769 -18.857  0.00  0.00     0.132 A 
HETATM   53  C   UNK     0     -26.505 -19.496 -18.988  0.00  0.00     0.102 A 
HETATM   54  C   UNK     0     -27.115 -19.120 -20.176  0.00  0.00     0.057 A 
BRANCH  51  55
HETATM   55  O   UNK     0     -25.530 -22.910 -19.785  0.00  0.00    -0.358 OA
HETATM   56  H   UNK     0     -24.782 -23.212 -20.397  0.00  0.00     0.217 HD
ENDBRANCH  51  55
BRANCH  52  57
HETATM   57  O   UNK     0     -25.373 -21.138 -17.692  0.00  0.00    -0.356 OA
HETATM   58  H   UNK     0     -25.487 -22.079 -17.339  0.00  0.00     0.218 HD
ENDBRANCH  52  57
BRANCH  53  59
HETATM   59  O   UNK     0     -26.432 -18.620 -17.948  0.00  0.00    -0.358 OA
HETATM   60  H   UNK     0     -25.535 -18.251 -17.659  0.00  0.00     0.217 HD
ENDBRANCH  53  59
ENDBRANCH  47  49
ENDBRANCH  46  47
ENDBRANCH  22  46
BRANCH  34  61
HETATM   61  O   UNK     0     -26.360 -11.311 -21.402  0.00  0.00    -0.361 OA
HETATM   62  H   UNK     0     -26.848 -11.471 -20.529  0.00  0.00     0.217 HD
ENDBRANCH  34  61
BRANCH  37  63
HETATM   63  O   UNK     0     -25.528  -9.839 -23.549  0.00  0.00    -0.356 OA
HETATM   64  H   UNK     0     -25.635  -8.840 -23.670  0.00  0.00     0.218 HD
ENDBRANCH  37  63
BRANCH  38  65
HETATM   65  O   UNK     0     -26.881  -9.989 -25.930  0.00  0.00    -0.358 OA
HETATM   66  H   UNK     0     -26.037 -10.240 -26.430  0.00  0.00     0.217 HD
ENDBRANCH  38  65
BRANCH  39  67
HETATM   67  O   UNK     0     -30.143 -11.255 -21.133  0.00  0.00    -0.357 OA
HETATM   68  H   UNK     0     -29.612 -10.542 -21.616  0.00  0.00     0.217 HD
ENDBRANCH  39  67
BRANCH  41  69
HETATM   69  O   UNK     0     -30.884 -12.255 -18.708  0.00  0.00    -0.356 OA
HETATM   70  H   UNK     0     -31.738 -11.978 -19.175  0.00  0.00     0.218 HD
ENDBRANCH  41  69
BRANCH  42  71
HETATM   71  O   UNK     0     -29.601 -14.448 -17.656  0.00  0.00    -0.304 OA
BRANCH  71  72
HETATM   72  C   UNK     0     -28.676 -14.745 -16.691  0.00  0.00     0.120 A 
HETATM   73  C   UNK     0     -28.133 -13.726 -15.923  0.00  0.00     0.005 A 
HETATM   74  C   UNK     0     -27.200 -14.018 -14.943  0.00  0.00     0.051 A 
HETATM   75  C   UNK     0     -26.803 -15.329 -14.728  0.00  0.00     0.102 A 
HETATM   76  C   UNK     0     -27.344 -16.349 -15.496  0.00  0.00     0.135 A 
HETATM   77  C   UNK     0     -28.280 -16.059 -16.475  0.00  0.00     0.136 A 
BRANCH  73  78
HETATM   78  C   UNK     0     -28.562 -12.299 -16.153  0.00  0.00     0.205 C 
BRANCH  78  79
HETATM   79  O   UNK     0     -29.954 -12.180 -15.904  0.00  0.00    -0.396 OA
HETATM   80  H   UNK     0     -30.619 -12.584 -16.550  0.00  0.00     0.209 HD
ENDBRANCH  78  79
ENDBRANCH  73  78
BRANCH  75  81
HETATM   81  O   UNK     0     -25.884 -15.611 -13.766  0.00  0.00    -0.358 OA
HETATM   82  H   UNK     0     -24.898 -15.480 -13.954  0.00  0.00     0.217 HD
ENDBRANCH  75  81
BRANCH  76  83
HETATM   83  O   UNK     0     -26.957 -17.635 -15.287  0.00  0.00    -0.356 OA
HETATM   84  H   UNK     0     -26.707 -18.221 -16.073  0.00  0.00     0.218 HD
ENDBRANCH  76  83
BRANCH  77  85
HETATM   85  O   UNK     0     -28.807 -17.065 -17.225  0.00  0.00    -0.356 OA
HETATM   86  H   UNK     0     -28.620 -18.029 -16.982  0.00  0.00     0.218 HD
ENDBRANCH  77  85
ENDBRANCH  71  72
ENDBRANCH  42  71
ENDBRANCH  19  20
ENDBRANCH  18  19
ENDBRANCH  16  18
ENDBRANCH  12  16
BRANCH  14  87
HETATM   87  O   UNK     0     -26.824 -13.194 -31.289  0.00  0.00    -0.358 OA
HETATM   88  H   UNK     0     -26.970 -12.438 -30.633  0.00  0.00     0.217 HD
ENDBRANCH  14  87
BRANCH  15  89
HETATM   89  O   UNK     0     -24.236 -13.758 -32.013  0.00  0.00    -0.356 OA
HETATM   90  H   UNK     0     -24.724 -13.162 -32.669  0.00  0.00     0.218 HD
ENDBRANCH  15  89
ENDBRANCH   9  10
ENDBRANCH   7   9
ENDBRANCH   1   7
BRANCH   4  91
HETATM   91  O   UNK     0     -21.691 -21.307 -29.667  0.00  0.00    -0.358 OA
HETATM   92  H   UNK     0     -22.601 -21.305 -29.224  0.00  0.00     0.217 HD
ENDBRANCH   4  91
BRANCH   5  93
HETATM   93  O   UNK     0     -18.203 -18.830 -31.740  0.00  0.00    -0.358 OA
HETATM   94  H   UNK     0     -17.714 -17.985 -31.473  0.00  0.00     0.217 HD
ENDBRANCH   5  93
BRANCH   6  95
HETATM   95  O   UNK     0     -19.038 -21.009 -30.296  0.00  0.00    -0.356 OA
HETATM   96  H   UNK     0     -19.190 -21.520 -29.436  0.00  0.00     0.218 HD
ENDBRANCH   6  95
TORSDOF 30
ENDMDL
MODEL 17
REMARK VINA RESULT:      -6.2     21.016     27.049
REMARK  30 active torsions:
REMARK  status: ('A' for Active; 'I' for Inactive)
REMARK    1  A    between atoms: C_1  and  C_7 
REMARK    2  A    between atoms: C_4  and  O_9 
REMARK    3  A    between atoms: C_5  and  O_11 
REMARK    4  A    between atoms: C_6  and  O_10 
REMARK    5  A    between atoms: C_7  and  O_78 
REMARK    6  A    between atoms: C_12  and  C_18 
REMARK    7  A    between atoms: C_15  and  O_76 
REMARK    8  A    between atoms: C_16  and  O_78 
REMARK    9  A    between atoms: C_17  and  O_77 
REMARK   10  A    between atoms: C_18  and  O_74 
REMARK   11  A    between atoms: C_19  and  O_27 
REMARK   12  A    between atoms: C_21  and  O_25 
REMARK   13  A    between atoms: C_23  and  O_26 
REMARK   14  A    between atoms: C_28  and  O_37 
REMARK   15  A    between atoms: C_30  and  O_35 
REMARK   16  A    between atoms: C_32  and  O_36 
REMARK   17  A    between atoms: O_36  and  C_67 
REMARK   18  A    between atoms: C_39  and  O_60 
REMARK   19  A    between atoms: C_41  and  O_58 
REMARK   20  A    between atoms: C_42  and  C_45 
REMARK   21  A    between atoms: C_43  and  O_59 
REMARK   22  A    between atoms: C_45  and  O_53 
REMARK   23  A    between atoms: C_47  and  O_53 
REMARK   24  A    between atoms: C_51  and  C_54 
REMARK   25  A    between atoms: C_54  and  O_74 
REMARK   26  A    between atoms: C_64  and  O_69 
REMARK   27  A    between atoms: C_65  and  C_72 
REMARK   28  A    between atoms: C_66  and  O_70 
REMARK   29  A    between atoms: C_68  and  O_71 
REMARK   30  A    between atoms: C_72  and  O_73 
ROOT
HETATM    1  C   UNK     0     -20.331  -8.437 -37.464  0.00  0.00     0.045 A 
HETATM    2  C   UNK     0     -20.840  -8.191 -38.731  0.00  0.00     0.057 A 
HETATM    3  C   UNK     0     -19.316  -9.365 -37.294  0.00  0.00     0.057 A 
HETATM    4  C   UNK     0     -20.333  -8.873 -39.825  0.00  0.00     0.102 A 
HETATM    5  C   UNK     0     -18.810 -10.047 -38.389  0.00  0.00     0.102 A 
HETATM    6  C   UNK     0     -19.319  -9.801 -39.653  0.00  0.00     0.132 A 
ENDROOT
BRANCH   1   7
HETATM    7  C   UNK     0     -20.866  -7.713 -36.306  0.00  0.00     0.298 C 
HETATM    8  O   UNK     0     -20.597  -8.086 -35.186  0.00  0.00    -0.259 OA
BRANCH   7   9
HETATM    9  O   UNK     0     -21.665  -6.621 -36.482  0.00  0.00    -0.272 OA
BRANCH   9  10
HETATM   10  C   UNK     0     -22.626  -6.296 -35.568  0.00  0.00     0.116 A 
HETATM   11  C   UNK     0     -23.864  -6.922 -35.618  0.00  0.00     0.058 A 
HETATM   12  C   UNK     0     -24.846  -6.603 -34.692  0.00  0.00     0.045 A 
HETATM   13  C   UNK     0     -24.586  -5.654 -33.713  0.00  0.00     0.057 A 
HETATM   14  C   UNK     0     -23.352  -5.023 -33.663  0.00  0.00     0.102 A 
HETATM   15  C   UNK     0     -22.373  -5.345 -34.590  0.00  0.00     0.133 A 
BRANCH  12  16
HETATM   16  C   UNK     0     -26.162  -7.266 -34.743  0.00  0.00     0.293 C 
HETATM   17  O   UNK     0     -27.152  -6.614 -34.985  0.00  0.00    -0.259 OA
BRANCH  16  18
HETATM   18  O   UNK     0     -26.272  -8.601 -34.502  0.00  0.00    -0.315 OA
BRANCH  18  19
HETATM   19  C   UNK     0     -26.132  -9.067 -33.168  0.00  0.00     0.213 C 
BRANCH  19  20
HETATM   20  C   UNK     0     -25.338 -10.377 -33.015  0.00  0.00     0.181 C 
HETATM   21  O   UNK     0     -26.209 -11.374 -32.421  0.00  0.00    -0.348 OA
HETATM   22  C   UNK     0     -26.046 -12.755 -32.759  0.00  0.00     0.302 C 
HETATM   23  C   UNK     0     -26.070 -12.847 -34.270  0.00  0.00     0.219 C 
HETATM   24  C   UNK     0     -24.829 -12.213 -34.719  0.00  0.00     0.185 C 
HETATM   25  O   UNK     0     -26.075 -14.172 -34.781  0.00  0.00    -0.304 OA
HETATM   26  C   UNK     0     -24.817 -10.744 -34.445  0.00  0.00     0.194 C 
HETATM   27  O   UNK     0     -24.698 -12.410 -36.118  0.00  0.00    -0.388 OA
HETATM   28  O   UNK     0     -23.458 -10.349 -34.611  0.00  0.00    -0.307 OA
HETATM   29  C   UNK     0     -22.748 -10.873 -35.673  0.00  0.00     0.291 C 
HETATM   30  C   UNK     0     -23.426 -11.073 -36.984  0.00  0.00     0.039 A 
HETATM   31  O   UNK     0     -21.574 -11.133 -35.550  0.00  0.00    -0.260 OA
HETATM   32  C   UNK     0     -23.714 -12.319 -37.576  0.00  0.00     0.086 A 
HETATM   33  C   UNK     0     -23.782  -9.908 -37.647  0.00  0.00     0.054 A 
HETATM   34  C   UNK     0     -24.349 -12.337 -38.812  0.00  0.00     0.096 A 
HETATM   35  C   UNK     0     -23.346 -13.680 -37.031  0.00  0.00     0.013 A 
HETATM   36  H   UNK     0     -23.906 -12.921 -36.484  0.00  0.00     0.229 HD
HETATM   37  C   UNK     0     -24.697 -11.164 -39.460  0.00  0.00     0.129 A 
HETATM   38  C   UNK     0     -24.413  -9.945 -38.877  0.00  0.00     0.102 A 
HETATM   39  C   UNK     0     -22.033 -14.080 -37.251  0.00  0.00     0.110 A 
HETATM   40  C   UNK     0     -24.229 -14.580 -36.403  0.00  0.00     0.052 A 
HETATM   41  C   UNK     0     -21.591 -15.338 -36.874  0.00  0.00     0.133 A 
HETATM   42  C   UNK     0     -22.463 -16.227 -36.273  0.00  0.00     0.113 A 
HETATM   43  C   UNK     0     -23.770 -15.835 -36.038  0.00  0.00     0.058 A 
HETATM   44  C   UNK     0     -25.660 -14.304 -36.094  0.00  0.00     0.294 C 
HETATM   45  O   UNK     0     -26.461 -14.204 -36.996  0.00  0.00    -0.259 OA
BRANCH  22  46
HETATM   46  O   UNK     0     -27.081 -13.535 -32.165  0.00  0.00    -0.283 OA
BRANCH  46  47
HETATM   47  C   UNK     0     -26.827 -14.178 -30.985  0.00  0.00     0.295 C 
HETATM   48  O   UNK     0     -26.872 -13.551 -29.952  0.00  0.00    -0.259 OA
BRANCH  47  49
HETATM   49  C   UNK     0     -26.482 -15.623 -30.933  0.00  0.00     0.045 A 
HETATM   50  C   UNK     0     -25.401 -16.079 -30.190  0.00  0.00     0.057 A 
HETATM   51  C   UNK     0     -25.098 -17.434 -30.161  0.00  0.00     0.102 A 
HETATM   52  C   UNK     0     -25.872 -18.337 -30.873  0.00  0.00     0.132 A 
HETATM   53  C   UNK     0     -26.953 -17.885 -31.614  0.00  0.00     0.102 A 
HETATM   54  C   UNK     0     -27.255 -16.531 -31.641  0.00  0.00     0.057 A 
BRANCH  51  55
HETATM   55  O   UNK     0     -24.039 -17.880 -29.435  0.00  0.00    -0.358 OA
HETATM   56  H   UNK     0     -23.360 -18.500 -29.859  0.00  0.00     0.217 HD
ENDBRANCH  51  55
BRANCH  52  57
HETATM   57  O   UNK     0     -25.577 -19.666 -30.845  0.00  0.00    -0.356 OA
HETATM   58  H   UNK     0     -26.178 -20.329 -31.317  0.00  0.00     0.218 HD
ENDBRANCH  52  57
BRANCH  53  59
HETATM   59  O   UNK     0     -27.712 -18.771 -32.318  0.00  0.00    -0.358 OA
HETATM   60  H   UNK     0     -28.707 -18.617 -32.416  0.00  0.00     0.217 HD
ENDBRANCH  53  59
ENDBRANCH  47  49
ENDBRANCH  46  47
ENDBRANCH  22  46
BRANCH  34  61
HETATM   61  O   UNK     0     -24.618 -13.533 -39.405  0.00  0.00    -0.361 OA
HETATM   62  H   UNK     0     -25.087 -13.559 -40.302  0.00  0.00     0.217 HD
ENDBRANCH  34  61
BRANCH  37  63
HETATM   63  O   UNK     0     -25.313 -11.212 -40.669  0.00  0.00    -0.356 OA
HETATM   64  H   UNK     0     -25.000 -10.609 -41.420  0.00  0.00     0.218 HD
ENDBRANCH  37  63
BRANCH  38  65
HETATM   65  O   UNK     0     -24.747  -8.790 -39.513  0.00  0.00    -0.358 OA
HETATM   66  H   UNK     0     -25.286  -8.821 -40.370  0.00  0.00     0.217 HD
ENDBRANCH  38  65
BRANCH  39  67
HETATM   67  O   UNK     0     -21.165 -13.229 -37.864  0.00  0.00    -0.357 OA
HETATM   68  H   UNK     0     -21.074 -13.239 -38.872  0.00  0.00     0.217 HD
ENDBRANCH  39  67
BRANCH  41  69
HETATM   69  O   UNK     0     -20.302 -15.701 -37.106  0.00  0.00    -0.356 OA
HETATM   70  H   UNK     0     -19.618 -15.002 -37.367  0.00  0.00     0.218 HD
ENDBRANCH  41  69
BRANCH  42  71
HETATM   71  O   UNK     0     -22.035 -17.477 -35.921  0.00  0.00    -0.304 OA
BRANCH  71  72
HETATM   72  C   UNK     0     -21.931 -17.876 -34.615  0.00  0.00     0.120 A 
HETATM   73  C   UNK     0     -22.850 -18.777 -34.098  0.00  0.00     0.005 A 
HETATM   74  C   UNK     0     -22.752 -19.188 -32.779  0.00  0.00     0.051 A 
HETATM   75  C   UNK     0     -21.736 -18.700 -31.972  0.00  0.00     0.102 A 
HETATM   76  C   UNK     0     -20.817 -17.799 -32.487  0.00  0.00     0.135 A 
HETATM   77  C   UNK     0     -20.913 -17.387 -33.807  0.00  0.00     0.136 A 
BRANCH  73  78
HETATM   78  C   UNK     0     -23.956 -19.311 -34.972  0.00  0.00     0.205 C 
BRANCH  78  79
HETATM   79  O   UNK     0     -23.395 -19.894 -36.138  0.00  0.00    -0.396 OA
HETATM   80  H   UNK     0     -22.780 -20.693 -36.058  0.00  0.00     0.209 HD
ENDBRANCH  78  79
ENDBRANCH  73  78
BRANCH  75  81
HETATM   81  O   UNK     0     -21.644 -19.104 -30.677  0.00  0.00    -0.358 OA
HETATM   82  H   UNK     0     -20.799 -18.924 -30.150  0.00  0.00     0.217 HD
ENDBRANCH  75  81
BRANCH  76  83
HETATM   83  O   UNK     0     -19.820 -17.317 -31.698  0.00  0.00    -0.356 OA
HETATM   84  H   UNK     0     -19.173 -17.957 -31.256  0.00  0.00     0.218 HD
ENDBRANCH  76  83
BRANCH  77  85
HETATM   85  O   UNK     0     -20.007 -16.502 -34.307  0.00  0.00    -0.356 OA
HETATM   86  H   UNK     0     -20.270 -15.878 -35.059  0.00  0.00     0.218 HD
ENDBRANCH  77  85
ENDBRANCH  71  72
ENDBRANCH  42  71
ENDBRANCH  19  20
ENDBRANCH  18  19
ENDBRANCH  16  18
ENDBRANCH  12  16
BRANCH  14  87
HETATM   87  O   UNK     0     -23.100  -4.089 -32.707  0.00  0.00    -0.358 OA
HETATM   88  H   UNK     0     -22.620  -3.233 -32.951  0.00  0.00     0.217 HD
ENDBRANCH  14  87
BRANCH  15  89
HETATM   89  O   UNK     0     -21.160  -4.730 -34.542  0.00  0.00    -0.356 OA
HETATM   90  H   UNK     0     -20.773  -4.444 -33.651  0.00  0.00     0.218 HD
ENDBRANCH  15  89
ENDBRANCH   9  10
ENDBRANCH   7   9
ENDBRANCH   1   7
BRANCH   4  91
HETATM   91  O   UNK     0     -20.831  -8.635 -41.068  0.00  0.00    -0.358 OA
HETATM   92  H   UNK     0     -21.831  -8.645 -41.223  0.00  0.00     0.217 HD
ENDBRANCH   4  91
BRANCH   5  93
HETATM   93  O   UNK     0     -17.817 -10.962 -38.222  0.00  0.00    -0.358 OA
HETATM   94  H   UNK     0     -17.278 -11.275 -39.020  0.00  0.00     0.217 HD
ENDBRANCH   5  93
BRANCH   6  95
HETATM   95  O   UNK     0     -18.823 -10.472 -40.728  0.00  0.00    -0.356 OA
HETATM   96  H   UNK     0     -18.377 -11.372 -40.601  0.00  0.00     0.218 HD
ENDBRANCH   6  95
TORSDOF 30
ENDMDL
MODEL 18
REMARK VINA RESULT:      -6.2      4.079      8.102
REMARK  30 active torsions:
REMARK  status: ('A' for Active; 'I' for Inactive)
REMARK    1  A    between atoms: C_1  and  C_7 
REMARK    2  A    between atoms: C_4  and  O_9 
REMARK    3  A    between atoms: C_5  and  O_11 
REMARK    4  A    between atoms: C_6  and  O_10 
REMARK    5  A    between atoms: C_7  and  O_78 
REMARK    6  A    between atoms: C_12  and  C_18 
REMARK    7  A    between atoms: C_15  and  O_76 
REMARK    8  A    between atoms: C_16  and  O_78 
REMARK    9  A    between atoms: C_17  and  O_77 
REMARK   10  A    between atoms: C_18  and  O_74 
REMARK   11  A    between atoms: C_19  and  O_27 
REMARK   12  A    between atoms: C_21  and  O_25 
REMARK   13  A    between atoms: C_23  and  O_26 
REMARK   14  A    between atoms: C_28  and  O_37 
REMARK   15  A    between atoms: C_30  and  O_35 
REMARK   16  A    between atoms: C_32  and  O_36 
REMARK   17  A    between atoms: O_36  and  C_67 
REMARK   18  A    between atoms: C_39  and  O_60 
REMARK   19  A    between atoms: C_41  and  O_58 
REMARK   20  A    between atoms: C_42  and  C_45 
REMARK   21  A    between atoms: C_43  and  O_59 
REMARK   22  A    between atoms: C_45  and  O_53 
REMARK   23  A    between atoms: C_47  and  O_53 
REMARK   24  A    between atoms: C_51  and  C_54 
REMARK   25  A    between atoms: C_54  and  O_74 
REMARK   26  A    between atoms: C_64  and  O_69 
REMARK   27  A    between atoms: C_65  and  C_72 
REMARK   28  A    between atoms: C_66  and  O_70 
REMARK   29  A    between atoms: C_68  and  O_71 
REMARK   30  A    between atoms: C_72  and  O_73 
ROOT
HETATM    1  C   UNK     0      -7.186  -2.987 -35.986  0.00  0.00     0.045 A 
HETATM    2  C   UNK     0      -8.554  -3.141 -35.810  0.00  0.00     0.057 A 
HETATM    3  C   UNK     0      -6.516  -3.767 -36.914  0.00  0.00     0.057 A 
HETATM    4  C   UNK     0      -9.248  -4.075 -36.561  0.00  0.00     0.102 A 
HETATM    5  C   UNK     0      -7.211  -4.701 -37.665  0.00  0.00     0.102 A 
HETATM    6  C   UNK     0      -8.576  -4.855 -37.488  0.00  0.00     0.132 A 
ENDROOT
BRANCH   1   7
HETATM    7  C   UNK     0      -6.452  -1.996 -35.191  0.00  0.00     0.298 C 
HETATM    8  O   UNK     0      -6.966  -1.509 -34.211  0.00  0.00    -0.259 OA
BRANCH   7   9
HETATM    9  O   UNK     0      -5.190  -1.620 -35.551  0.00  0.00    -0.272 OA
BRANCH   9  10
HETATM   10  C   UNK     0      -4.262  -1.276 -34.610  0.00  0.00     0.116 A 
HETATM   11  C   UNK     0      -4.160   0.044 -34.193  0.00  0.00     0.058 A 
HETATM   12  C   UNK     0      -3.225   0.403 -33.235  0.00  0.00     0.045 A 
HETATM   13  C   UNK     0      -2.388  -0.562 -32.694  0.00  0.00     0.057 A 
HETATM   14  C   UNK     0      -2.483  -1.882 -33.112  0.00  0.00     0.102 A 
HETATM   15  C   UNK     0      -3.420  -2.238 -34.069  0.00  0.00     0.133 A 
BRANCH  12  16
HETATM   16  C   UNK     0      -3.115   1.805 -32.790  0.00  0.00     0.293 C 
HETATM   17  O   UNK     0      -3.115   2.696 -33.610  0.00  0.00    -0.259 OA
BRANCH  16  18
HETATM   18  O   UNK     0      -2.994   2.102 -31.467  0.00  0.00    -0.315 OA
BRANCH  18  19
HETATM   19  C   UNK     0      -2.125   3.156 -31.081  0.00  0.00     0.213 C 
BRANCH  19  20
HETATM   20  C   UNK     0      -1.007   2.754 -30.103  0.00  0.00     0.181 C 
HETATM   21  O   UNK     0      -1.588   1.934 -29.056  0.00  0.00    -0.348 OA
HETATM   22  C   UNK     0      -0.807   0.902 -28.443  0.00  0.00     0.302 C 
HETATM   23  C   UNK     0      -0.255   0.043 -29.560  0.00  0.00     0.219 C 
HETATM   24  C   UNK     0       0.727   0.881 -30.250  0.00  0.00     0.185 C 
HETATM   25  O   UNK     0       0.422  -1.128 -29.126  0.00  0.00    -0.304 OA
HETATM   26  C   UNK     0       0.085   2.030 -30.959  0.00  0.00     0.194 C 
HETATM   27  O   UNK     0       1.411   0.089 -31.207  0.00  0.00    -0.388 OA
HETATM   28  O   UNK     0       1.158   2.914 -31.273  0.00  0.00    -0.307 OA
HETATM   29  C   UNK     0       2.340   2.372 -31.736  0.00  0.00     0.291 C 
HETATM   30  C   UNK     0       2.303   1.205 -32.661  0.00  0.00     0.039 A 
HETATM   31  O   UNK     0       3.399   2.865 -31.423  0.00  0.00    -0.260 OA
HETATM   32  C   UNK     0       2.737  -0.099 -32.351  0.00  0.00     0.086 A 
HETATM   33  C   UNK     0       1.795   1.470 -33.924  0.00  0.00     0.054 A 
HETATM   34  C   UNK     0       2.641  -1.082 -33.329  0.00  0.00     0.096 A 
HETATM   35  C   UNK     0       3.371  -0.553 -31.056  0.00  0.00     0.013 A 
HETATM   36  H   UNK     0       2.411  -0.041 -31.133  0.00  0.00     0.229 HD
HETATM   37  C   UNK     0       2.131  -0.800 -34.585  0.00  0.00     0.129 A 
HETATM   38  C   UNK     0       1.707   0.479 -34.885  0.00  0.00     0.102 A 
HETATM   39  C   UNK     0       4.723  -0.261 -30.915  0.00  0.00     0.110 A 
HETATM   40  C   UNK     0       2.732  -1.295 -30.044  0.00  0.00     0.052 A 
HETATM   41  C   UNK     0       5.441  -0.694 -29.811  0.00  0.00     0.133 A 
HETATM   42  C   UNK     0       4.816  -1.437 -28.827  0.00  0.00     0.113 A 
HETATM   43  C   UNK     0       3.467  -1.723 -28.950  0.00  0.00     0.058 A 
HETATM   44  C   UNK     0       1.293  -1.685 -30.043  0.00  0.00     0.294 C 
HETATM   45  O   UNK     0       0.892  -2.500 -30.843  0.00  0.00    -0.259 OA
BRANCH  22  46
HETATM   46  O   UNK     0      -1.610   0.146 -27.540  0.00  0.00    -0.283 OA
BRANCH  46  47
HETATM   47  C   UNK     0      -1.612   0.489 -26.216  0.00  0.00     0.295 C 
HETATM   48  O   UNK     0      -0.625   0.275 -25.551  0.00  0.00    -0.259 OA
BRANCH  47  49
HETATM   49  C   UNK     0      -2.798   1.104 -25.563  0.00  0.00     0.045 A 
HETATM   50  C   UNK     0      -3.839   0.325 -25.078  0.00  0.00     0.057 A 
HETATM   51  C   UNK     0      -4.937   0.925 -24.474  0.00  0.00     0.102 A 
HETATM   52  C   UNK     0      -4.999   2.305 -24.356  0.00  0.00     0.132 A 
HETATM   53  C   UNK     0      -3.961   3.086 -24.839  0.00  0.00     0.102 A 
HETATM   54  C   UNK     0      -2.864   2.485 -25.439  0.00  0.00     0.057 A 
BRANCH  51  55
HETATM   55  O   UNK     0      -5.956   0.161 -24.001  0.00  0.00    -0.358 OA
HETATM   56  H   UNK     0      -6.673   0.578 -23.420  0.00  0.00     0.217 HD
ENDBRANCH  51  55
BRANCH  52  57
HETATM   57  O   UNK     0      -6.074   2.895 -23.765  0.00  0.00    -0.356 OA
HETATM   58  H   UNK     0      -6.079   3.893 -23.604  0.00  0.00     0.218 HD
ENDBRANCH  52  57
BRANCH  53  59
HETATM   59  O   UNK     0      -4.023   4.442 -24.727  0.00  0.00    -0.358 OA
HETATM   60  H   UNK     0      -4.456   4.863 -23.915  0.00  0.00     0.217 HD
ENDBRANCH  53  59
ENDBRANCH  47  49
ENDBRANCH  46  47
ENDBRANCH  22  46
BRANCH  34  61
HETATM   61  O   UNK     0       3.072  -2.343 -33.051  0.00  0.00    -0.361 OA
HETATM   62  H   UNK     0       3.688  -2.506 -32.265  0.00  0.00     0.217 HD
ENDBRANCH  34  61
BRANCH  37  63
HETATM   63  O   UNK     0       2.053  -1.779 -35.523  0.00  0.00    -0.356 OA
HETATM   64  H   UNK     0       1.329  -1.745 -36.230  0.00  0.00     0.218 HD
ENDBRANCH  37  63
BRANCH  38  65
HETATM   65  O   UNK     0       1.212   0.763 -36.120  0.00  0.00    -0.358 OA
HETATM   66  H   UNK     0       0.617   0.094 -36.593  0.00  0.00     0.217 HD
ENDBRANCH  38  65
BRANCH  39  67
HETATM   67  O   UNK     0       5.362   0.447 -31.885  0.00  0.00    -0.357 OA
HETATM   68  H   UNK     0       6.067  -0.000 -32.457  0.00  0.00     0.217 HD
ENDBRANCH  39  67
BRANCH  41  69
HETATM   69  O   UNK     0       6.763  -0.396 -29.704  0.00  0.00    -0.356 OA
HETATM   70  H   UNK     0       7.057   0.564 -29.579  0.00  0.00     0.218 HD
ENDBRANCH  41  69
BRANCH  42  71
HETATM   71  O   UNK     0       5.528  -1.884 -27.748  0.00  0.00    -0.304 OA
BRANCH  71  72
HETATM   72  C   UNK     0       5.613  -3.211 -27.423  0.00  0.00     0.120 A 
HETATM   73  C   UNK     0       4.962  -3.685 -26.294  0.00  0.00     0.005 A 
HETATM   74  C   UNK     0       5.041  -5.026 -25.959  0.00  0.00     0.051 A 
HETATM   75  C   UNK     0       5.771  -5.899 -26.751  0.00  0.00     0.102 A 
HETATM   76  C   UNK     0       6.423  -5.427 -27.879  0.00  0.00     0.135 A 
HETATM   77  C   UNK     0       6.344  -4.086 -28.217  0.00  0.00     0.136 A 
BRANCH  73  78
HETATM   78  C   UNK     0       4.166  -2.739 -25.431  0.00  0.00     0.205 C 
BRANCH  78  79
HETATM   79  O   UNK     0       2.847  -3.239 -25.278  0.00  0.00    -0.396 OA
HETATM   80  H   UNK     0       2.645  -3.919 -24.558  0.00  0.00     0.209 HD
ENDBRANCH  78  79
ENDBRANCH  73  78
BRANCH  75  81
HETATM   81  O   UNK     0       5.848  -7.216 -26.417  0.00  0.00    -0.358 OA
HETATM   82  H   UNK     0       5.574  -7.924 -27.087  0.00  0.00     0.217 HD
ENDBRANCH  75  81
BRANCH  76  83
HETATM   83  O   UNK     0       7.141  -6.282 -28.657  0.00  0.00    -0.356 OA
HETATM   84  H   UNK     0       7.605  -5.939 -29.488  0.00  0.00     0.218 HD
ENDBRANCH  76  83
BRANCH  77  85
HETATM   85  O   UNK     0       6.987  -3.629 -29.327  0.00  0.00    -0.356 OA
HETATM   86  H   UNK     0       6.690  -3.935 -30.245  0.00  0.00     0.218 HD
ENDBRANCH  77  85
ENDBRANCH  71  72
ENDBRANCH  42  71
ENDBRANCH  19  20
ENDBRANCH  18  19
ENDBRANCH  16  18
ENDBRANCH  12  16
BRANCH  14  87
HETATM   87  O   UNK     0      -1.659  -2.827 -32.586  0.00  0.00    -0.358 OA
HETATM   88  H   UNK     0      -1.839  -3.808 -32.758  0.00  0.00     0.217 HD
ENDBRANCH  14  87
BRANCH  15  89
HETATM   89  O   UNK     0      -3.518  -3.531 -34.480  0.00  0.00    -0.356 OA
HETATM   90  H   UNK     0      -3.508  -3.750 -35.468  0.00  0.00     0.218 HD
ENDBRANCH  15  89
ENDBRANCH   9  10
ENDBRANCH   7   9
ENDBRANCH   1   7
BRANCH   4  91
HETATM   91  O   UNK     0     -10.588  -4.228 -36.390  0.00  0.00    -0.358 OA
HETATM   92  H   UNK     0     -11.199  -3.422 -36.426  0.00  0.00     0.217 HD
ENDBRANCH   4  91
BRANCH   5  93
HETATM   93  O   UNK     0      -6.552  -5.472 -38.572  0.00  0.00    -0.358 OA
HETATM   94  H   UNK     0      -6.845  -6.428 -38.731  0.00  0.00     0.217 HD
ENDBRANCH   5  93
BRANCH   6  95
HETATM   95  O   UNK     0      -9.258  -5.773 -38.225  0.00  0.00    -0.356 OA
HETATM   96  H   UNK     0     -10.144  -5.526 -38.647  0.00  0.00     0.218 HD
ENDBRANCH   6  95
TORSDOF 30
ENDMDL
MODEL 19
REMARK VINA RESULT:      -6.1     11.498     20.146
REMARK  30 active torsions:
REMARK  status: ('A' for Active; 'I' for Inactive)
REMARK    1  A    between atoms: C_1  and  C_7 
REMARK    2  A    between atoms: C_4  and  O_9 
REMARK    3  A    between atoms: C_5  and  O_11 
REMARK    4  A    between atoms: C_6  and  O_10 
REMARK    5  A    between atoms: C_7  and  O_78 
REMARK    6  A    between atoms: C_12  and  C_18 
REMARK    7  A    between atoms: C_15  and  O_76 
REMARK    8  A    between atoms: C_16  and  O_78 
REMARK    9  A    between atoms: C_17  and  O_77 
REMARK   10  A    between atoms: C_18  and  O_74 
REMARK   11  A    between atoms: C_19  and  O_27 
REMARK   12  A    between atoms: C_21  and  O_25 
REMARK   13  A    between atoms: C_23  and  O_26 
REMARK   14  A    between atoms: C_28  and  O_37 
REMARK   15  A    between atoms: C_30  and  O_35 
REMARK   16  A    between atoms: C_32  and  O_36 
REMARK   17  A    between atoms: O_36  and  C_67 
REMARK   18  A    between atoms: C_39  and  O_60 
REMARK   19  A    between atoms: C_41  and  O_58 
REMARK   20  A    between atoms: C_42  and  C_45 
REMARK   21  A    between atoms: C_43  and  O_59 
REMARK   22  A    between atoms: C_45  and  O_53 
REMARK   23  A    between atoms: C_47  and  O_53 
REMARK   24  A    between atoms: C_51  and  C_54 
REMARK   25  A    between atoms: C_54  and  O_74 
REMARK   26  A    between atoms: C_64  and  O_69 
REMARK   27  A    between atoms: C_65  and  C_72 
REMARK   28  A    between atoms: C_66  and  O_70 
REMARK   29  A    between atoms: C_68  and  O_71 
REMARK   30  A    between atoms: C_72  and  O_73 
ROOT
HETATM    1  C   UNK     0      -9.911  -5.008 -38.548  0.00  0.00     0.045 A 
HETATM    2  C   UNK     0      -8.747  -5.317 -37.859  0.00  0.00     0.057 A 
HETATM    3  C   UNK     0     -10.706  -3.955 -38.128  0.00  0.00     0.057 A 
HETATM    4  C   UNK     0      -8.381  -4.573 -36.750  0.00  0.00     0.102 A 
HETATM    5  C   UNK     0     -10.339  -3.211 -37.018  0.00  0.00     0.102 A 
HETATM    6  C   UNK     0      -9.178  -3.520 -36.329  0.00  0.00     0.132 A 
ENDROOT
BRANCH   1   7
HETATM    7  C   UNK     0     -10.297  -5.795 -39.725  0.00  0.00     0.298 C 
HETATM    8  O   UNK     0     -11.214  -5.425 -40.422  0.00  0.00    -0.259 OA
BRANCH   7   9
HETATM    9  O   UNK     0      -9.629  -6.943 -40.038  0.00  0.00    -0.272 OA
BRANCH   9  10
HETATM   10  C   UNK     0      -8.882  -7.035 -41.178  0.00  0.00     0.116 A 
HETATM   11  C   UNK     0      -7.755  -6.239 -41.328  0.00  0.00     0.058 A 
HETATM   12  C   UNK     0      -6.986  -6.328 -42.479  0.00  0.00     0.045 A 
HETATM   13  C   UNK     0      -7.348  -7.216 -43.482  0.00  0.00     0.057 A 
HETATM   14  C   UNK     0      -8.477  -8.008 -43.337  0.00  0.00     0.102 A 
HETATM   15  C   UNK     0      -9.242  -7.919 -42.185  0.00  0.00     0.133 A 
BRANCH  12  16
HETATM   16  C   UNK     0      -5.788  -5.484 -42.641  0.00  0.00     0.293 C 
HETATM   17  O   UNK     0      -5.714  -4.428 -42.054  0.00  0.00    -0.259 OA
BRANCH  16  18
HETATM   18  O   UNK     0      -4.774  -5.875 -43.461  0.00  0.00    -0.315 OA
BRANCH  18  19
HETATM   19  C   UNK     0      -3.647  -6.524 -42.891  0.00  0.00     0.213 C 
BRANCH  19  20
HETATM   20  C   UNK     0      -3.811  -8.038 -42.668  0.00  0.00     0.181 C 
HETATM   21  O   UNK     0      -4.271  -8.635 -43.908  0.00  0.00    -0.348 OA
HETATM   22  C   UNK     0      -3.884  -9.972 -44.241  0.00  0.00     0.302 C 
HETATM   23  C   UNK     0      -2.375 -10.035 -44.138  0.00  0.00     0.219 C 
HETATM   24  C   UNK     0      -2.076  -9.914 -42.710  0.00  0.00     0.185 C 
HETATM   25  O   UNK     0      -1.801 -11.255 -44.586  0.00  0.00    -0.304 OA
HETATM   26  C   UNK     0      -2.421  -8.562 -42.176  0.00  0.00     0.194 C 
HETATM   27  O   UNK     0      -0.688 -10.133 -42.514  0.00  0.00    -0.388 OA
HETATM   28  O   UNK     0      -2.404  -8.710 -40.759  0.00  0.00    -0.307 OA
HETATM   29  C   UNK     0      -1.390  -9.455 -40.190  0.00  0.00     0.291 C 
HETATM   30  C   UNK     0      -0.012  -9.371 -40.749  0.00  0.00     0.039 A 
HETATM   31  O   UNK     0      -1.610 -10.141 -39.219  0.00  0.00    -0.260 OA
HETATM   32  C   UNK     0       0.664 -10.409 -41.420  0.00  0.00     0.086 A 
HETATM   33  C   UNK     0       0.625  -8.151 -40.569  0.00  0.00     0.054 A 
HETATM   34  C   UNK     0       1.954 -10.174 -41.880  0.00  0.00     0.096 A 
HETATM   35  C   UNK     0       0.154 -11.813 -41.650  0.00  0.00     0.013 A 
HETATM   36  H   UNK     0      -0.375 -10.904 -41.939  0.00  0.00     0.229 HD
HETATM   37  C   UNK     0       2.574  -8.951 -41.692  0.00  0.00     0.129 A 
HETATM   38  C   UNK     0       1.909  -7.936 -41.034  0.00  0.00     0.102 A 
HETATM   39  C   UNK     0       0.267 -12.679 -40.569  0.00  0.00     0.110 A 
HETATM   40  C   UNK     0      -0.344 -12.317 -42.868  0.00  0.00     0.052 A 
HETATM   41  C   UNK     0      -0.088 -14.014 -40.675  0.00  0.00     0.133 A 
HETATM   42  C   UNK     0      -0.560 -14.511 -41.876  0.00  0.00     0.113 A 
HETATM   43  C   UNK     0      -0.690 -13.656 -42.957  0.00  0.00     0.058 A 
HETATM   44  C   UNK     0      -0.529 -11.522 -44.115  0.00  0.00     0.294 C 
HETATM   45  O   UNK     0       0.438 -11.118 -44.719  0.00  0.00    -0.259 OA
BRANCH  22  46
HETATM   46  O   UNK     0      -4.338 -10.307 -45.551  0.00  0.00    -0.283 OA
BRANCH  46  47
HETATM   47  C   UNK     0      -5.666 -10.578 -45.737  0.00  0.00     0.295 C 
HETATM   48  O   UNK     0      -6.434  -9.661 -45.920  0.00  0.00    -0.259 OA
BRANCH  47  49
HETATM   49  C   UNK     0      -6.200 -11.965 -45.709  0.00  0.00     0.045 A 
HETATM   50  C   UNK     0      -5.457 -13.032 -46.196  0.00  0.00     0.057 A 
HETATM   51  C   UNK     0      -5.980 -14.319 -46.160  0.00  0.00     0.102 A 
HETATM   52  C   UNK     0      -7.245 -14.543 -45.640  0.00  0.00     0.132 A 
HETATM   53  C   UNK     0      -7.988 -13.480 -45.152  0.00  0.00     0.102 A 
HETATM   54  C   UNK     0      -7.464 -12.196 -45.186  0.00  0.00     0.057 A 
BRANCH  51  55
HETATM   55  O   UNK     0      -5.253 -15.363 -46.639  0.00  0.00    -0.358 OA
HETATM   56  H   UNK     0      -4.874 -15.327 -47.577  0.00  0.00     0.217 HD
ENDBRANCH  51  55
BRANCH  52  57
HETATM   57  O   UNK     0      -7.759 -15.803 -45.605  0.00  0.00    -0.356 OA
HETATM   58  H   UNK     0      -7.144 -16.603 -45.687  0.00  0.00     0.218 HD
ENDBRANCH  52  57
BRANCH  53  59
HETATM   59  O   UNK     0      -9.233 -13.698 -44.644  0.00  0.00    -0.358 OA
HETATM   60  H   UNK     0     -10.047 -13.580 -45.234  0.00  0.00     0.217 HD
ENDBRANCH  53  59
ENDBRANCH  47  49
ENDBRANCH  46  47
ENDBRANCH  22  46
BRANCH  34  61
HETATM   61  O   UNK     0       2.627 -11.173 -42.515  0.00  0.00    -0.361 OA
HETATM   62  H   UNK     0       2.281 -11.539 -43.393  0.00  0.00     0.217 HD
ENDBRANCH  34  61
BRANCH  37  63
HETATM   63  O   UNK     0       3.838  -8.751 -42.148  0.00  0.00    -0.356 OA
HETATM   64  H   UNK     0       4.190  -7.809 -42.264  0.00  0.00     0.218 HD
ENDBRANCH  37  63
BRANCH  38  65
HETATM   65  O   UNK     0       2.517  -6.735 -40.839  0.00  0.00    -0.358 OA
HETATM   66  H   UNK     0       2.258  -6.157 -40.049  0.00  0.00     0.217 HD
ENDBRANCH  38  65
BRANCH  39  67
HETATM   67  O   UNK     0       0.754 -12.215 -39.386  0.00  0.00    -0.357 OA
HETATM   68  H   UNK     0       0.273 -12.429 -38.522  0.00  0.00     0.217 HD
ENDBRANCH  39  67
BRANCH  41  69
HETATM   69  O   UNK     0       0.038 -14.836 -39.600  0.00  0.00    -0.356 OA
HETATM   70  H   UNK     0      -0.032 -14.459 -38.663  0.00  0.00     0.218 HD
ENDBRANCH  41  69
BRANCH  42  71
HETATM   71  O   UNK     0      -0.891 -15.833 -41.989  0.00  0.00    -0.304 OA
BRANCH  71  72
HETATM   72  C   UNK     0      -2.044 -16.253 -42.596  0.00  0.00     0.120 A 
HETATM   73  C   UNK     0      -3.223 -16.305 -41.869  0.00  0.00     0.005 A 
HETATM   74  C   UNK     0      -4.394 -16.726 -42.476  0.00  0.00     0.051 A 
HETATM   75  C   UNK     0      -4.391 -17.098 -43.812  0.00  0.00     0.102 A 
HETATM   76  C   UNK     0      -3.213 -17.047 -44.540  0.00  0.00     0.135 A 
HETATM   77  C   UNK     0      -2.040 -16.624 -43.935  0.00  0.00     0.136 A 
BRANCH  73  78
HETATM   78  C   UNK     0      -3.231 -15.902 -40.416  0.00  0.00     0.205 C 
BRANCH  78  79
HETATM   79  O   UNK     0      -2.331 -16.726 -39.694  0.00  0.00    -0.396 OA
HETATM   80  H   UNK     0      -2.439 -17.732 -39.714  0.00  0.00     0.209 HD
ENDBRANCH  78  79
ENDBRANCH  73  78
BRANCH  75  81
HETATM   81  O   UNK     0      -5.543 -17.513 -44.404  0.00  0.00    -0.358 OA
HETATM   82  H   UNK     0      -6.369 -17.679 -43.842  0.00  0.00     0.217 HD
ENDBRANCH  75  81
BRANCH  76  83
HETATM   83  O   UNK     0      -3.207 -17.412 -45.850  0.00  0.00    -0.356 OA
HETATM   84  H   UNK     0      -3.732 -18.222 -46.151  0.00  0.00     0.218 HD
ENDBRANCH  76  83
BRANCH  77  85
HETATM   85  O   UNK     0      -0.886 -16.576 -44.656  0.00  0.00    -0.356 OA
HETATM   86  H   UNK     0      -0.628 -17.353 -45.250  0.00  0.00     0.218 HD
ENDBRANCH  77  85
ENDBRANCH  71  72
ENDBRANCH  42  71
ENDBRANCH  19  20
ENDBRANCH  18  19
ENDBRANCH  16  18
ENDBRANCH  12  16
BRANCH  14  87
HETATM   87  O   UNK     0      -8.835  -8.874 -44.323  0.00  0.00    -0.358 OA
HETATM   88  H   UNK     0      -8.225  -9.017 -45.118  0.00  0.00     0.217 HD
ENDBRANCH  14  87
BRANCH  15  89
HETATM   89  O   UNK     0     -10.349  -8.696 -42.039  0.00  0.00    -0.356 OA
HETATM   90  H   UNK     0     -11.263  -8.322 -42.260  0.00  0.00     0.218 HD
ENDBRANCH  15  89
ENDBRANCH   9  10
ENDBRANCH   7   9
ENDBRANCH   1   7
BRANCH   4  91
HETATM   91  O   UNK     0      -7.242  -4.874 -36.072  0.00  0.00    -0.358 OA
HETATM   92  H   UNK     0      -7.181  -5.734 -35.541  0.00  0.00     0.217 HD
ENDBRANCH   4  91
BRANCH   5  93
HETATM   93  O   UNK     0     -11.122  -2.180 -36.600  0.00  0.00    -0.358 OA
HETATM   94  H   UNK     0     -10.942  -1.737 -35.708  0.00  0.00     0.217 HD
ENDBRANCH   5  93
BRANCH   6  95
HETATM   95  O   UNK     0      -8.819  -2.790 -35.239  0.00  0.00    -0.356 OA
HETATM   96  H   UNK     0      -9.416  -2.041 -34.913  0.00  0.00     0.218 HD
ENDBRANCH   6  95
TORSDOF 30
ENDMDL
MODEL 20
REMARK VINA RESULT:      -6.1     16.448     21.893
REMARK  30 active torsions:
REMARK  status: ('A' for Active; 'I' for Inactive)
REMARK    1  A    between atoms: C_1  and  C_7 
REMARK    2  A    between atoms: C_4  and  O_9 
REMARK    3  A    between atoms: C_5  and  O_11 
REMARK    4  A    between atoms: C_6  and  O_10 
REMARK    5  A    between atoms: C_7  and  O_78 
REMARK    6  A    between atoms: C_12  and  C_18 
REMARK    7  A    between atoms: C_15  and  O_76 
REMARK    8  A    between atoms: C_16  and  O_78 
REMARK    9  A    between atoms: C_17  and  O_77 
REMARK   10  A    between atoms: C_18  and  O_74 
REMARK   11  A    between atoms: C_19  and  O_27 
REMARK   12  A    between atoms: C_21  and  O_25 
REMARK   13  A    between atoms: C_23  and  O_26 
REMARK   14  A    between atoms: C_28  and  O_37 
REMARK   15  A    between atoms: C_30  and  O_35 
REMARK   16  A    between atoms: C_32  and  O_36 
REMARK   17  A    between atoms: O_36  and  C_67 
REMARK   18  A    between atoms: C_39  and  O_60 
REMARK   19  A    between atoms: C_41  and  O_58 
REMARK   20  A    between atoms: C_42  and  C_45 
REMARK   21  A    between atoms: C_43  and  O_59 
REMARK   22  A    between atoms: C_45  and  O_53 
REMARK   23  A    between atoms: C_47  and  O_53 
REMARK   24  A    between atoms: C_51  and  C_54 
REMARK   25  A    between atoms: C_54  and  O_74 
REMARK   26  A    between atoms: C_64  and  O_69 
REMARK   27  A    between atoms: C_65  and  C_72 
REMARK   28  A    between atoms: C_66  and  O_70 
REMARK   29  A    between atoms: C_68  and  O_71 
REMARK   30  A    between atoms: C_72  and  O_73 
ROOT
HETATM    1  C   UNK     0      12.750 -12.448 -24.884  0.00  0.00     0.045 A 
HETATM    2  C   UNK     0      13.030 -11.256 -25.536  0.00  0.00     0.057 A 
HETATM    3  C   UNK     0      11.938 -13.394 -25.488  0.00  0.00     0.057 A 
HETATM    4  C   UNK     0      12.496 -11.011 -26.791  0.00  0.00     0.102 A 
HETATM    5  C   UNK     0      11.404 -13.148 -26.743  0.00  0.00     0.102 A 
HETATM    6  C   UNK     0      11.682 -11.958 -27.393  0.00  0.00     0.132 A 
ENDROOT
BRANCH   1   7
HETATM    7  C   UNK     0      13.318 -12.708 -23.556  0.00  0.00     0.298 C 
HETATM    8  O   UNK     0      13.603 -13.839 -23.235  0.00  0.00    -0.259 OA
BRANCH   7   9
HETATM    9  O   UNK     0      13.526 -11.682 -22.681  0.00  0.00    -0.272 OA
BRANCH   9  10
HETATM   10  C   UNK     0      12.552 -11.295 -21.804  0.00  0.00     0.116 A 
HETATM   11  C   UNK     0      11.679 -10.274 -22.151  0.00  0.00     0.058 A 
HETATM   12  C   UNK     0      10.685  -9.876 -21.271  0.00  0.00     0.045 A 
HETATM   13  C   UNK     0      10.564 -10.504 -20.039  0.00  0.00     0.057 A 
HETATM   14  C   UNK     0      11.438 -11.522 -19.688  0.00  0.00     0.102 A 
HETATM   15  C   UNK     0      12.430 -11.918 -20.570  0.00  0.00     0.133 A 
BRANCH  12  16
HETATM   16  C   UNK     0       9.756  -8.791 -21.638  0.00  0.00     0.293 C 
HETATM   17  O   UNK     0       9.827  -7.724 -21.070  0.00  0.00    -0.259 OA
BRANCH  16  18
HETATM   18  O   UNK     0       8.808  -8.987 -22.595  0.00  0.00    -0.315 OA
BRANCH  18  19
HETATM   19  C   UNK     0       9.081  -8.564 -23.922  0.00  0.00     0.213 C 
BRANCH  19  20
HETATM   20  C   UNK     0       9.423  -9.695 -24.909  0.00  0.00     0.181 C 
HETATM   21  O   UNK     0       8.818 -10.923 -24.426  0.00  0.00    -0.348 OA
HETATM   22  C   UNK     0       8.372 -11.912 -25.359  0.00  0.00     0.302 C 
HETATM   23  C   UNK     0       7.462 -11.212 -26.346  0.00  0.00     0.219 C 
HETATM   24  C   UNK     0       8.335 -10.338 -27.131  0.00  0.00     0.185 C 
HETATM   25  O   UNK     0       6.802 -12.077 -27.258  0.00  0.00    -0.304 OA
HETATM   26  C   UNK     0       8.904  -9.227 -26.310  0.00  0.00     0.194 C 
HETATM   27  O   UNK     0       7.581  -9.772 -28.190  0.00  0.00    -0.388 OA
HETATM   28  O   UNK     0       9.967  -8.694 -27.096  0.00  0.00    -0.307 OA
HETATM   29  C   UNK     0       9.762  -8.534 -28.452  0.00  0.00     0.291 C 
HETATM   30  C   UNK     0       8.433  -8.082 -28.948  0.00  0.00     0.039 A 
HETATM   31  O   UNK     0      10.668  -8.724 -29.230  0.00  0.00    -0.260 OA
HETATM   32  C   UNK     0       7.529  -8.861 -29.697  0.00  0.00     0.086 A 
HETATM   33  C   UNK     0       8.096  -6.775 -28.626  0.00  0.00     0.054 A 
HETATM   34  C   UNK     0       6.325  -8.290 -30.091  0.00  0.00     0.096 A 
HETATM   35  C   UNK     0       7.753 -10.273 -30.190  0.00  0.00     0.013 A 
HETATM   36  H   UNK     0       7.843  -9.955 -29.151  0.00  0.00     0.229 HD
HETATM   37  C   UNK     0       6.006  -6.984 -29.760  0.00  0.00     0.129 A 
HETATM   38  C   UNK     0       6.894  -6.223 -29.026  0.00  0.00     0.102 A 
HETATM   39  C   UNK     0       8.531 -10.393 -31.335  0.00  0.00     0.110 A 
HETATM   40  C   UNK     0       7.185 -11.437 -29.635  0.00  0.00     0.052 A 
HETATM   41  C   UNK     0       8.743 -11.625 -31.934  0.00  0.00     0.133 A 
HETATM   42  C   UNK     0       8.172 -12.764 -31.399  0.00  0.00     0.113 A 
HETATM   43  C   UNK     0       7.405 -12.658 -30.251  0.00  0.00     0.058 A 
HETATM   44  C   UNK     0       6.333 -11.478 -28.412  0.00  0.00     0.294 C 
HETATM   45  O   UNK     0       5.225 -10.992 -28.437  0.00  0.00    -0.259 OA
BRANCH  22  46
HETATM   46  O   UNK     0       7.699 -12.967 -24.677  0.00  0.00    -0.283 OA
BRANCH  46  47
HETATM   47  C   UNK     0       8.408 -14.086 -24.333  0.00  0.00     0.295 C 
HETATM   48  O   UNK     0       8.629 -14.925 -25.176  0.00  0.00    -0.259 OA
BRANCH  47  49
HETATM   49  C   UNK     0       8.905 -14.310 -22.950  0.00  0.00     0.045 A 
HETATM   50  C   UNK     0       8.088 -14.100 -21.848  0.00  0.00     0.057 A 
HETATM   51  C   UNK     0       8.577 -14.314 -20.566  0.00  0.00     0.102 A 
HETATM   52  C   UNK     0       9.884 -14.738 -20.381  0.00  0.00     0.132 A 
HETATM   53  C   UNK     0      10.702 -14.950 -21.478  0.00  0.00     0.102 A 
HETATM   54  C   UNK     0      10.212 -14.738 -22.759  0.00  0.00     0.057 A 
BRANCH  51  55
HETATM   55  O   UNK     0       7.777 -14.106 -19.487  0.00  0.00    -0.358 OA
HETATM   56  H   UNK     0       6.927 -13.565 -19.585  0.00  0.00     0.217 HD
ENDBRANCH  51  55
BRANCH  52  57
HETATM   57  O   UNK     0      10.365 -14.949 -19.124  0.00  0.00    -0.356 OA
HETATM   58  H   UNK     0       9.998 -15.705 -18.562  0.00  0.00     0.218 HD
ENDBRANCH  52  57
BRANCH  53  59
HETATM   59  O   UNK     0      11.988 -15.363 -21.298  0.00  0.00    -0.358 OA
HETATM   60  H   UNK     0      12.177 -16.232 -20.816  0.00  0.00     0.217 HD
ENDBRANCH  53  59
ENDBRANCH  47  49
ENDBRANCH  46  47
ENDBRANCH  22  46
BRANCH  34  61
HETATM   61  O   UNK     0       5.450  -9.025 -30.831  0.00  0.00    -0.361 OA
HETATM   62  H   UNK     0       5.795  -9.712 -31.489  0.00  0.00     0.217 HD
ENDBRANCH  34  61
BRANCH  37  63
HETATM   63  O   UNK     0       4.824  -6.450 -30.163  0.00  0.00    -0.356 OA
HETATM   64  H   UNK     0       4.710  -5.445 -30.199  0.00  0.00     0.218 HD
ENDBRANCH  37  63
BRANCH  38  65
HETATM   65  O   UNK     0       6.587  -4.937 -28.706  0.00  0.00    -0.358 OA
HETATM   66  H   UNK     0       6.490  -4.243 -29.436  0.00  0.00     0.217 HD
ENDBRANCH  38  65
BRANCH  39  67
HETATM   67  O   UNK     0       9.082  -9.281 -31.893  0.00  0.00    -0.357 OA
HETATM   68  H   UNK     0       9.588  -9.351 -32.766  0.00  0.00     0.217 HD
ENDBRANCH  39  67
BRANCH  41  69
HETATM   69  O   UNK     0       9.506 -11.710 -33.056  0.00  0.00    -0.356 OA
HETATM   70  H   UNK     0      10.226 -11.020 -33.232  0.00  0.00     0.218 HD
ENDBRANCH  41  69
BRANCH  42  71
HETATM   71  O   UNK     0       8.362 -13.976 -32.002  0.00  0.00    -0.304 OA
BRANCH  71  72
HETATM   72  C   UNK     0       8.589 -15.123 -31.289  0.00  0.00     0.120 A 
HETATM   73  C   UNK     0       7.672 -16.162 -31.349  0.00  0.00     0.005 A 
HETATM   74  C   UNK     0       7.895 -17.326 -30.632  0.00  0.00     0.051 A 
HETATM   75  C   UNK     0       9.034 -17.456 -29.852  0.00  0.00     0.102 A 
HETATM   76  C   UNK     0       9.951 -16.417 -29.790  0.00  0.00     0.135 A 
HETATM   77  C   UNK     0       9.730 -15.252 -30.508  0.00  0.00     0.136 A 
BRANCH  73  78
HETATM   78  C   UNK     0       6.433 -16.025 -32.196  0.00  0.00     0.205 C 
BRANCH  78  79
HETATM   79  O   UNK     0       5.483 -15.221 -31.516  0.00  0.00    -0.396 OA
HETATM   80  H   UNK     0       4.632 -15.636 -31.159  0.00  0.00     0.209 HD
ENDBRANCH  78  79
ENDBRANCH  73  78
BRANCH  75  81
HETATM   81  O   UNK     0       9.248 -18.600 -29.148  0.00  0.00    -0.358 OA
HETATM   82  H   UNK     0      10.184 -18.840 -28.846  0.00  0.00     0.217 HD
ENDBRANCH  75  81
BRANCH  76  83
HETATM   83  O   UNK     0      11.068 -16.542 -29.025  0.00  0.00    -0.356 OA
HETATM   84  H   UNK     0      11.969 -16.672 -29.465  0.00  0.00     0.218 HD
ENDBRANCH  76  83
BRANCH  77  85
HETATM   85  O   UNK     0      10.635 -14.237 -30.442  0.00  0.00    -0.356 OA
HETATM   86  H   UNK     0      11.223 -14.031 -31.240  0.00  0.00     0.218 HD
ENDBRANCH  77  85
ENDBRANCH  71  72
ENDBRANCH  42  71
ENDBRANCH  19  20
ENDBRANCH  18  19
ENDBRANCH  16  18
ENDBRANCH  12  16
BRANCH  14  87
HETATM   87  O   UNK     0      11.323 -12.133 -18.478  0.00  0.00    -0.358 OA
HETATM   88  H   UNK     0      11.834 -11.778 -17.680  0.00  0.00     0.217 HD
ENDBRANCH  14  87
BRANCH  15  89
HETATM   89  O   UNK     0      13.287 -12.918 -20.228  0.00  0.00    -0.356 OA
HETATM   90  H   UNK     0      13.220 -13.819 -20.683  0.00  0.00     0.218 HD
ENDBRANCH  15  89
ENDBRANCH   9  10
ENDBRANCH   7   9
ENDBRANCH   1   7
BRANCH   4  91
HETATM   91  O   UNK     0      12.767  -9.843 -27.432  0.00  0.00    -0.358 OA
HETATM   92  H   UNK     0      12.439  -9.697 -28.378  0.00  0.00     0.217 HD
ENDBRANCH   4  91
BRANCH   5  93
HETATM   93  O   UNK     0      10.601 -14.074 -27.334  0.00  0.00    -0.358 OA
HETATM   94  H   UNK     0      10.565 -15.018 -26.972  0.00  0.00     0.217 HD
ENDBRANCH   5  93
BRANCH   6  95
HETATM   95  O   UNK     0      11.157 -11.716 -28.625  0.00  0.00    -0.356 OA
HETATM   96  H   UNK     0      10.647 -12.444 -29.108  0.00  0.00     0.218 HD
ENDBRANCH   6  95
TORSDOF 30
ENDMDL
