MODEL 1
REMARK VINA RESULT:      -8.1      0.000      0.000
REMARK  12 active torsions:
REMARK  status: ('A' for Active; 'I' for Inactive)
REMARK    1  A    between atoms: O_1  and  C_10 
REMARK    2  A    between atoms: O_2  and  C_17 
REMARK    3  A    between atoms: O_3  and  C_20 
REMARK    4  A    between atoms: O_4  and  C_27 
REMARK    5  A    between atoms: O_6  and  C_29 
REMARK    6  A    between atoms: O_7  and  C_28 
REMARK    7  A    between atoms: O_8  and  C_33 
REMARK    8  A    between atoms: C_11  and  C_20 
REMARK    9  A    between atoms: C_20  and  C_28 
REMARK   10  A    between atoms: C_28  and  C_31 
REMARK   11  A    between atoms: C_31  and  C_32 
REMARK   12  A    between atoms: C_32  and  C_33 
ROOT
HETATM    1  O   UNK     0      34.139   5.212  -2.241  0.00  0.00    -0.384 OA
HETATM    2  H   UNK     0      33.378   4.922  -1.717  0.00  0.00     0.211 HD
ENDROOT
BRANCH   1   3
HETATM    3  C   UNK     0      34.261   6.653  -2.231  0.00  0.00     0.090 C 
HETATM    4  C   UNK     0      35.725   7.048  -1.906  0.00  0.00    -0.000 C 
HETATM    5  C   UNK     0      35.860   6.496  -0.462  0.00  0.00     0.034 C 
HETATM    6  C   UNK     0      36.652   6.369  -2.923  0.00  0.00     0.045 C 
HETATM    7  C   UNK     0      35.961   8.584  -1.933  0.00  0.00     0.019 C 
HETATM    8  C   UNK     0      34.495   6.826   0.186  0.00  0.00     0.012 C 
HETATM    9  C   UNK     0      33.515   7.117  -0.972  0.00  0.00     0.044 C 
HETATM   10  C   UNK     0      36.294   6.770  -4.369  0.00  0.00     0.128 C 
HETATM   11  C   UNK     0      34.779   6.572  -4.745  0.00  0.00     0.055 C 
HETATM   12  C   UNK     0      34.399   7.113  -6.194  0.00  0.00    -0.021 C 
HETATM   13  C   UNK     0      33.869   7.110  -3.621  0.00  0.00    -0.034 C 
HETATM   14  C   UNK     0      32.857   7.289  -6.318  0.00  0.00     0.071 C 
HETATM   15  C   UNK     0      34.913   6.146  -7.323  0.00  0.00     0.045 C 
HETATM   16  C   UNK     0      35.049   8.502  -6.448  0.00  0.00     0.017 C 
HETATM   17  C   UNK     0      32.049   5.979  -6.366  0.00  0.00     0.047 C 
HETATM   18  C   UNK     0      32.316   8.152  -5.197  0.00  0.00     0.154 C 
HETATM   19  C   UNK     0      32.804   4.814  -6.997  0.00  0.00     0.147 C 
HETATM   20  C   UNK     0      33.842   5.288  -8.005  0.00  0.00     0.147 C 
HETATM   21  O   UNK     0      31.449   9.002  -5.390  0.00  0.00    -0.293 OA
HETATM   22  C   UNK     0      32.789   7.878  -3.827  0.00  0.00     0.057 C 
BRANCH   5  23
HETATM   23  C   UNK     0      37.041   7.004   0.354  0.00  0.00     0.084 C 
HETATM   24  C   UNK     0      36.999   8.539   0.431  0.00  0.00     0.049 C 
BRANCH  23  25
HETATM   25  O   UNK     0      36.915   6.504   1.691  0.00  0.00    -0.387 OA
HETATM   26  H   UNK     0      37.452   7.055   2.285  0.00  0.00     0.210 HD
ENDBRANCH  23  25
BRANCH  23  27
HETATM   27  C   UNK     0      38.401   6.521  -0.219  0.00  0.00     0.152 C 
BRANCH  27  28
HETATM   28  O   UNK     0      39.029   5.638   0.717  0.00  0.00    -0.393 OA
HETATM   29  H   UNK     0      38.400   5.490   1.443  0.00  0.00     0.210 HD
ENDBRANCH  27  28
BRANCH  27  30
HETATM   30  C   UNK     0      39.388   7.657  -0.550  0.00  0.00     0.037 C 
BRANCH  30  31
HETATM   31  C   UNK     0      40.740   7.120  -1.051  0.00  0.00     0.040 C 
BRANCH  31  32
HETATM   32  C   UNK     0      40.855   7.004  -2.586  0.00  0.00     0.051 C 
HETATM   33  C   UNK     0      40.507   5.576  -3.020  0.00  0.00     0.045 C 
HETATM   34  C   UNK     0      39.956   8.004  -3.318  0.00  0.00     0.045 C 
BRANCH  32  35
HETATM   35  O   UNK     0      42.210   7.258  -2.957  0.00  0.00    -0.391 OA
HETATM   36  H   UNK     0      42.410   6.758  -3.766  0.00  0.00     0.210 HD
ENDBRANCH  32  35
ENDBRANCH  31  32
ENDBRANCH  30  31
ENDBRANCH  27  30
ENDBRANCH  23  27
ENDBRANCH   5  23
BRANCH  10  37
HETATM   37  O   UNK     0      37.129   6.007  -5.236  0.00  0.00    -0.395 OA
HETATM   38  H   UNK     0      37.569   6.626  -5.843  0.00  0.00     0.210 HD
ENDBRANCH  10  37
BRANCH  19  39
HETATM   39  O   UNK     0      31.865   3.944  -7.621  0.00  0.00    -0.393 OA
HETATM   40  H   UNK     0      31.862   4.132  -8.575  0.00  0.00     0.210 HD
ENDBRANCH  19  39
BRANCH  20  41
HETATM   41  O   UNK     0      33.218   6.056  -9.036  0.00  0.00    -0.393 OA
HETATM   42  H   UNK     0      32.963   6.911  -8.652  0.00  0.00     0.210 HD
ENDBRANCH  20  41
ENDBRANCH   1   3
TORSDOF 12
ENDMDL
MODEL 2
REMARK VINA RESULT:      -7.9      1.592      7.623
REMARK  12 active torsions:
REMARK  status: ('A' for Active; 'I' for Inactive)
REMARK    1  A    between atoms: O_1  and  C_10 
REMARK    2  A    between atoms: O_2  and  C_17 
REMARK    3  A    between atoms: O_3  and  C_20 
REMARK    4  A    between atoms: O_4  and  C_27 
REMARK    5  A    between atoms: O_6  and  C_29 
REMARK    6  A    between atoms: O_7  and  C_28 
REMARK    7  A    between atoms: O_8  and  C_33 
REMARK    8  A    between atoms: C_11  and  C_20 
REMARK    9  A    between atoms: C_20  and  C_28 
REMARK   10  A    between atoms: C_28  and  C_31 
REMARK   11  A    between atoms: C_31  and  C_32 
REMARK   12  A    between atoms: C_32  and  C_33 
ROOT
HETATM    1  O   UNK     0      36.763   9.734  -3.559  0.00  0.00    -0.384 OA
HETATM    2  H   UNK     0      36.086  10.280  -3.984  0.00  0.00     0.211 HD
ENDROOT
BRANCH   1   3
HETATM    3  C   UNK     0      36.210   8.975  -2.460  0.00  0.00     0.090 C 
HETATM    4  C   UNK     0      35.313   7.837  -3.013  0.00  0.00    -0.000 C 
HETATM    5  C   UNK     0      34.194   8.660  -3.703  0.00  0.00     0.034 C 
HETATM    6  C   UNK     0      36.147   6.984  -3.979  0.00  0.00     0.045 C 
HETATM    7  C   UNK     0      34.723   6.931  -1.897  0.00  0.00     0.019 C 
HETATM    8  C   UNK     0      33.948   9.836  -2.728  0.00  0.00     0.012 C 
HETATM    9  C   UNK     0      35.181   9.904  -1.800  0.00  0.00     0.044 C 
HETATM   10  C   UNK     0      37.393   6.398  -3.283  0.00  0.00     0.128 C 
HETATM   11  C   UNK     0      38.282   7.459  -2.535  0.00  0.00     0.055 C 
HETATM   12  C   UNK     0      39.489   6.823  -1.712  0.00  0.00    -0.021 C 
HETATM   13  C   UNK     0      37.398   8.415  -1.705  0.00  0.00    -0.034 C 
HETATM   14  C   UNK     0      40.033   7.847  -0.674  0.00  0.00     0.071 C 
HETATM   15  C   UNK     0      40.655   6.364  -2.664  0.00  0.00     0.045 C 
HETATM   16  C   UNK     0      39.015   5.568  -0.927  0.00  0.00     0.017 C 
HETATM   17  C   UNK     0      40.796   9.044  -1.271  0.00  0.00     0.047 C 
HETATM   18  C   UNK     0      38.920   8.372   0.209  0.00  0.00     0.154 C 
HETATM   19  C   UNK     0      41.515   8.726  -2.577  0.00  0.00     0.147 C 
HETATM   20  C   UNK     0      41.900   7.257  -2.670  0.00  0.00     0.147 C 
HETATM   21  O   UNK     0      39.071   8.541   1.417  0.00  0.00    -0.293 OA
HETATM   22  C   UNK     0      37.658   8.776  -0.441  0.00  0.00     0.057 C 
BRANCH   5  23
HETATM   23  C   UNK     0      32.918   7.910  -4.058  0.00  0.00     0.084 C 
HETATM   24  C   UNK     0      33.181   6.396  -4.043  0.00  0.00     0.049 C 
BRANCH  23  25
HETATM   25  O   UNK     0      31.936   8.184  -3.051  0.00  0.00    -0.387 OA
HETATM   26  H   UNK     0      31.053   8.158  -3.455  0.00  0.00     0.210 HD
ENDBRANCH  23  25
BRANCH  23  27
HETATM   27  C   UNK     0      32.340   8.352  -5.430  0.00  0.00     0.152 C 
BRANCH  27  28
HETATM   28  O   UNK     0      31.058   8.959  -5.238  0.00  0.00    -0.393 OA
HETATM   29  H   UNK     0      30.938   9.088  -4.282  0.00  0.00     0.210 HD
ENDBRANCH  27  28
BRANCH  27  30
HETATM   30  C   UNK     0      32.186   7.207  -6.450  0.00  0.00     0.037 C 
BRANCH  30  31
HETATM   31  C   UNK     0      33.391   7.118  -7.405  0.00  0.00     0.040 C 
BRANCH  31  32
HETATM   32  C   UNK     0      33.731   5.688  -7.875  0.00  0.00     0.051 C 
HETATM   33  C   UNK     0      35.105   5.282  -7.331  0.00  0.00     0.045 C 
HETATM   34  C   UNK     0      32.678   4.663  -7.445  0.00  0.00     0.045 C 
BRANCH  32  35
HETATM   35  O   UNK     0      33.806   5.689  -9.301  0.00  0.00    -0.391 OA
HETATM   36  H   UNK     0      33.374   6.493  -9.635  0.00  0.00     0.210 HD
ENDBRANCH  32  35
ENDBRANCH  31  32
ENDBRANCH  30  31
ENDBRANCH  27  30
ENDBRANCH  23  27
ENDBRANCH   5  23
BRANCH  10  37
HETATM   37  O   UNK     0      38.153   5.723  -4.281  0.00  0.00    -0.395 OA
HETATM   38  H   UNK     0      37.758   4.844  -4.410  0.00  0.00     0.210 HD
ENDBRANCH  10  37
BRANCH  19  39
HETATM   39  O   UNK     0      42.672   9.551  -2.676  0.00  0.00    -0.393 OA
HETATM   40  H   UNK     0      43.140   9.323  -3.496  0.00  0.00     0.210 HD
ENDBRANCH  19  39
BRANCH  20  41
HETATM   41  O   UNK     0      42.739   6.892  -1.572  0.00  0.00    -0.393 OA
HETATM   42  H   UNK     0      43.428   7.573  -1.490  0.00  0.00     0.210 HD
ENDBRANCH  20  41
ENDBRANCH   1   3
TORSDOF 12
ENDMDL
MODEL 3
REMARK VINA RESULT:      -7.9      1.839      7.567
REMARK  12 active torsions:
REMARK  status: ('A' for Active; 'I' for Inactive)
REMARK    1  A    between atoms: O_1  and  C_10 
REMARK    2  A    between atoms: O_2  and  C_17 
REMARK    3  A    between atoms: O_3  and  C_20 
REMARK    4  A    between atoms: O_4  and  C_27 
REMARK    5  A    between atoms: O_6  and  C_29 
REMARK    6  A    between atoms: O_7  and  C_28 
REMARK    7  A    between atoms: O_8  and  C_33 
REMARK    8  A    between atoms: C_11  and  C_20 
REMARK    9  A    between atoms: C_20  and  C_28 
REMARK   10  A    between atoms: C_28  and  C_31 
REMARK   11  A    between atoms: C_31  and  C_32 
REMARK   12  A    between atoms: C_32  and  C_33 
ROOT
HETATM    1  O   UNK     0      36.656   8.134  -5.302  0.00  0.00    -0.384 OA
HETATM    2  H   UNK     0      37.555   7.902  -5.029  0.00  0.00     0.211 HD
ENDROOT
BRANCH   1   3
HETATM    3  C   UNK     0      36.051   9.063  -4.373  0.00  0.00     0.090 C 
HETATM    4  C   UNK     0      34.715   8.476  -3.848  0.00  0.00    -0.000 C 
HETATM    5  C   UNK     0      33.887   8.424  -5.159  0.00  0.00     0.034 C 
HETATM    6  C   UNK     0      34.995   7.099  -3.231  0.00  0.00     0.045 C 
HETATM    7  C   UNK     0      34.024   9.386  -2.795  0.00  0.00     0.019 C 
HETATM    8  C   UNK     0      34.265   9.736  -5.885  0.00  0.00     0.012 C 
HETATM    9  C   UNK     0      35.570  10.242  -5.231  0.00  0.00     0.044 C 
HETATM   10  C   UNK     0      36.029   7.191  -2.090  0.00  0.00     0.128 C 
HETATM   11  C   UNK     0      37.362   7.934  -2.475  0.00  0.00     0.055 C 
HETATM   12  C   UNK     0      38.362   8.137  -1.252  0.00  0.00    -0.021 C 
HETATM   13  C   UNK     0      37.052   9.233  -3.249  0.00  0.00    -0.034 C 
HETATM   14  C   UNK     0      39.415   9.232  -1.593  0.00  0.00     0.071 C 
HETATM   15  C   UNK     0      39.096   6.796  -0.879  0.00  0.00     0.045 C 
HETATM   16  C   UNK     0      37.592   8.608   0.013  0.00  0.00     0.017 C 
HETATM   17  C   UNK     0      40.459   8.832  -2.652  0.00  0.00     0.047 C 
HETATM   18  C   UNK     0      38.744  10.516  -2.034  0.00  0.00     0.154 C 
HETATM   19  C   UNK     0      40.778   7.341  -2.668  0.00  0.00     0.147 C 
HETATM   20  C   UNK     0      40.565   6.699  -1.304  0.00  0.00     0.147 C 
HETATM   21  O   UNK     0      39.146  11.620  -1.674  0.00  0.00    -0.293 OA
HETATM   22  C   UNK     0      37.635  10.415  -3.003  0.00  0.00     0.057 C 
BRANCH   5  23
HETATM   23  C   UNK     0      32.383   8.245  -5.007  0.00  0.00     0.084 C 
HETATM   24  C   UNK     0      32.060   7.709  -3.602  0.00  0.00     0.049 C 
BRANCH  23  25
HETATM   25  O   UNK     0      31.759   9.530  -5.129  0.00  0.00    -0.387 OA
HETATM   26  H   UNK     0      31.631   9.730  -6.071  0.00  0.00     0.210 HD
ENDBRANCH  23  25
BRANCH  23  27
HETATM   27  C   UNK     0      31.789   7.313  -6.098  0.00  0.00     0.152 C 
BRANCH  27  28
HETATM   28  O   UNK     0      30.361   7.402  -6.080  0.00  0.00    -0.393 OA
HETATM   29  H   UNK     0      30.054   6.996  -5.252  0.00  0.00     0.210 HD
ENDBRANCH  27  28
BRANCH  27  30
HETATM   30  C   UNK     0      32.184   5.831  -5.948  0.00  0.00     0.037 C 
BRANCH  30  31
HETATM   31  C   UNK     0      32.603   5.206  -7.290  0.00  0.00     0.040 C 
BRANCH  31  32
HETATM   32  C   UNK     0      34.077   5.451  -7.679  0.00  0.00     0.051 C 
HETATM   33  C   UNK     0      34.206   6.813  -8.370  0.00  0.00     0.045 C 
HETATM   34  C   UNK     0      35.019   5.388  -6.473  0.00  0.00     0.045 C 
BRANCH  32  35
HETATM   35  O   UNK     0      34.470   4.445  -8.613  0.00  0.00    -0.391 OA
HETATM   36  H   UNK     0      35.379   4.169  -8.408  0.00  0.00     0.210 HD
ENDBRANCH  32  35
ENDBRANCH  31  32
ENDBRANCH  30  31
ENDBRANCH  27  30
ENDBRANCH  23  27
ENDBRANCH   5  23
BRANCH  10  37
HETATM   37  O   UNK     0      36.303   5.860  -1.663  0.00  0.00    -0.395 OA
HETATM   38  H   UNK     0      37.086   5.549  -2.147  0.00  0.00     0.210 HD
ENDBRANCH  10  37
BRANCH  19  39
HETATM   39  O   UNK     0      42.126   7.166  -3.095  0.00  0.00    -0.393 OA
HETATM   40  H   UNK     0      42.711   7.365  -2.345  0.00  0.00     0.210 HD
ENDBRANCH  19  39
BRANCH  20  41
HETATM   41  O   UNK     0      41.377   7.342  -0.320  0.00  0.00    -0.393 OA
HETATM   42  H   UNK     0      40.786   7.847   0.264  0.00  0.00     0.210 HD
ENDBRANCH  20  41
ENDBRANCH   1   3
TORSDOF 12
ENDMDL
MODEL 4
REMARK VINA RESULT:      -7.8      2.134      8.260
REMARK  12 active torsions:
REMARK  status: ('A' for Active; 'I' for Inactive)
REMARK    1  A    between atoms: O_1  and  C_10 
REMARK    2  A    between atoms: O_2  and  C_17 
REMARK    3  A    between atoms: O_3  and  C_20 
REMARK    4  A    between atoms: O_4  and  C_27 
REMARK    5  A    between atoms: O_6  and  C_29 
REMARK    6  A    between atoms: O_7  and  C_28 
REMARK    7  A    between atoms: O_8  and  C_33 
REMARK    8  A    between atoms: C_11  and  C_20 
REMARK    9  A    between atoms: C_20  and  C_28 
REMARK   10  A    between atoms: C_28  and  C_31 
REMARK   11  A    between atoms: C_31  and  C_32 
REMARK   12  A    between atoms: C_32  and  C_33 
ROOT
HETATM    1  O   UNK     0      37.590   9.084  -5.068  0.00  0.00    -0.384 OA
HETATM    2  H   UNK     0      37.303   9.955  -5.377  0.00  0.00     0.211 HD
ENDROOT
BRANCH   1   3
HETATM    3  C   UNK     0      36.733   8.595  -4.011  0.00  0.00     0.090 C 
HETATM    4  C   UNK     0      36.054   7.276  -4.462  0.00  0.00    -0.000 C 
HETATM    5  C   UNK     0      35.192   7.785  -5.647  0.00  0.00     0.034 C 
HETATM    6  C   UNK     0      37.146   6.277  -4.867  0.00  0.00     0.045 C 
HETATM    7  C   UNK     0      35.157   6.647  -3.359  0.00  0.00     0.019 C 
HETATM    8  C   UNK     0      34.656   9.148  -5.153  0.00  0.00     0.012 C 
HETATM    9  C   UNK     0      35.547   9.569  -3.964  0.00  0.00     0.044 C 
HETATM   10  C   UNK     0      38.125   6.009  -3.705  0.00  0.00     0.128 C 
HETATM   11  C   UNK     0      38.739   7.305  -3.056  0.00  0.00     0.055 C 
HETATM   12  C   UNK     0      39.642   7.019  -1.776  0.00  0.00    -0.021 C 
HETATM   13  C   UNK     0      37.640   8.362  -2.820  0.00  0.00    -0.034 C 
HETATM   14  C   UNK     0      39.840   8.325  -0.953  0.00  0.00     0.071 C 
HETATM   15  C   UNK     0      41.045   6.432  -2.181  0.00  0.00     0.045 C 
HETATM   16  C   UNK     0      38.959   5.978  -0.845  0.00  0.00     0.017 C 
HETATM   17  C   UNK     0      40.741   9.386  -1.610  0.00  0.00     0.047 C 
HETATM   18  C   UNK     0      38.508   8.962  -0.613  0.00  0.00     0.154 C 
HETATM   19  C   UNK     0      41.824   8.801  -2.509  0.00  0.00     0.147 C 
HETATM   20  C   UNK     0      42.228   7.399  -2.073  0.00  0.00     0.147 C 
HETATM   21  O   UNK     0      38.284   9.456   0.490  0.00  0.00    -0.293 OA
HETATM   22  C   UNK     0      37.501   9.066  -1.687  0.00  0.00     0.057 C 
BRANCH   5  23
HETATM   23  C   UNK     0      34.089   6.856  -6.135  0.00  0.00     0.084 C 
HETATM   24  C   UNK     0      33.683   7.236  -7.568  0.00  0.00     0.049 C 
BRANCH  23  25
HETATM   25  O   UNK     0      34.606   5.520  -6.175  0.00  0.00    -0.387 OA
HETATM   26  H   UNK     0      34.198   5.002  -5.463  0.00  0.00     0.210 HD
ENDBRANCH  23  25
BRANCH  23  27
HETATM   27  C   UNK     0      32.853   6.869  -5.194  0.00  0.00     0.152 C 
BRANCH  27  28
HETATM   28  O   UNK     0      32.457   5.524  -4.905  0.00  0.00    -0.393 OA
HETATM   29  H   UNK     0      33.085   4.933  -5.355  0.00  0.00     0.210 HD
ENDBRANCH  27  28
BRANCH  27  30
HETATM   30  C   UNK     0      31.634   7.621  -5.761  0.00  0.00     0.037 C 
BRANCH  30  31
HETATM   31  C   UNK     0      31.168   8.752  -4.826  0.00  0.00     0.040 C 
BRANCH  31  32
HETATM   32  C   UNK     0      29.669   9.101  -4.940  0.00  0.00     0.051 C 
HETATM   33  C   UNK     0      28.936   7.978  -5.682  0.00  0.00     0.045 C 
HETATM   34  C   UNK     0      29.016   9.336  -3.575  0.00  0.00     0.045 C 
BRANCH  32  35
HETATM   35  O   UNK     0      29.541  10.295  -5.713  0.00  0.00    -0.391 OA
HETATM   36  H   UNK     0      28.942  10.120  -6.458  0.00  0.00     0.210 HD
ENDBRANCH  32  35
ENDBRANCH  31  32
ENDBRANCH  30  31
ENDBRANCH  27  30
ENDBRANCH  23  27
ENDBRANCH   5  23
BRANCH  10  37
HETATM   37  O   UNK     0      39.156   5.165  -4.210  0.00  0.00    -0.395 OA
HETATM   38  H   UNK     0      38.735   4.366  -4.570  0.00  0.00     0.210 HD
ENDBRANCH  10  37
BRANCH  19  39
HETATM   39  O   UNK     0      42.952   9.671  -2.493  0.00  0.00    -0.393 OA
HETATM   40  H   UNK     0      43.483   9.497  -3.288  0.00  0.00     0.210 HD
ENDBRANCH  19  39
BRANCH  20  41
HETATM   41  O   UNK     0      42.696   7.413  -0.723  0.00  0.00    -0.393 OA
HETATM   42  H   UNK     0      42.619   6.509  -0.376  0.00  0.00     0.210 HD
ENDBRANCH  20  41
ENDBRANCH   1   3
TORSDOF 12
ENDMDL
MODEL 5
REMARK VINA RESULT:      -7.8      2.264      4.580
REMARK  12 active torsions:
REMARK  status: ('A' for Active; 'I' for Inactive)
REMARK    1  A    between atoms: O_1  and  C_10 
REMARK    2  A    between atoms: O_2  and  C_17 
REMARK    3  A    between atoms: O_3  and  C_20 
REMARK    4  A    between atoms: O_4  and  C_27 
REMARK    5  A    between atoms: O_6  and  C_29 
REMARK    6  A    between atoms: O_7  and  C_28 
REMARK    7  A    between atoms: O_8  and  C_33 
REMARK    8  A    between atoms: C_11  and  C_20 
REMARK    9  A    between atoms: C_20  and  C_28 
REMARK   10  A    between atoms: C_28  and  C_31 
REMARK   11  A    between atoms: C_31  and  C_32 
REMARK   12  A    between atoms: C_32  and  C_33 
ROOT
HETATM    1  O   UNK     0      38.131   5.692  -4.165  0.00  0.00    -0.384 OA
HETATM    2  H   UNK     0      38.527   6.320  -4.786  0.00  0.00     0.211 HD
ENDROOT
BRANCH   1   3
HETATM    3  C   UNK     0      38.081   6.241  -2.828  0.00  0.00     0.090 C 
HETATM    4  C   UNK     0      39.144   7.361  -2.686  0.00  0.00    -0.000 C 
HETATM    5  C   UNK     0      40.450   6.546  -2.873  0.00  0.00     0.034 C 
HETATM    6  C   UNK     0      38.899   8.409  -3.780  0.00  0.00     0.045 C 
HETATM    7  C   UNK     0      39.118   8.050  -1.293  0.00  0.00     0.019 C 
HETATM    8  C   UNK     0      40.175   5.231  -2.107  0.00  0.00     0.012 C 
HETATM    9  C   UNK     0      38.645   5.144  -1.914  0.00  0.00     0.044 C 
HETATM   10  C   UNK     0      37.477   9.000  -3.688  0.00  0.00     0.128 C 
HETATM   11  C   UNK     0      36.326   7.928  -3.646  0.00  0.00     0.055 C 
HETATM   12  C   UNK     0      34.876   8.549  -3.418  0.00  0.00    -0.021 C 
HETATM   13  C   UNK     0      36.680   6.794  -2.662  0.00  0.00    -0.034 C 
HETATM   14  C   UNK     0      33.884   7.443  -2.955  0.00  0.00     0.071 C 
HETATM   15  C   UNK     0      34.331   9.235  -4.725  0.00  0.00     0.045 C 
HETATM   16  C   UNK     0      34.915   9.637  -2.309  0.00  0.00     0.017 C 
HETATM   17  C   UNK     0      33.501   6.411  -4.031  0.00  0.00     0.047 C 
HETATM   18  C   UNK     0      34.415   6.707  -1.743  0.00  0.00     0.154 C 
HETATM   19  C   UNK     0      33.519   6.968  -5.451  0.00  0.00     0.147 C 
HETATM   20  C   UNK     0      33.241   8.465  -5.477  0.00  0.00     0.147 C 
HETATM   21  O   UNK     0      33.689   6.387  -0.804  0.00  0.00    -0.293 OA
HETATM   22  C   UNK     0      35.830   6.287  -1.758  0.00  0.00     0.057 C 
BRANCH   5  23
HETATM   23  C   UNK     0      41.743   7.223  -2.440  0.00  0.00     0.084 C 
HETATM   24  C   UNK     0      41.798   7.310  -0.906  0.00  0.00     0.049 C 
BRANCH  23  25
HETATM   25  O   UNK     0      42.844   6.408  -2.863  0.00  0.00    -0.387 OA
HETATM   26  H   UNK     0      43.174   5.904  -2.101  0.00  0.00     0.210 HD
ENDBRANCH  23  25
BRANCH  23  27
HETATM   27  C   UNK     0      41.910   8.630  -3.075  0.00  0.00     0.152 C 
BRANCH  27  28
HETATM   28  O   UNK     0      42.996   8.610  -4.008  0.00  0.00    -0.393 OA
HETATM   29  H   UNK     0      43.112   9.516  -4.339  0.00  0.00     0.210 HD
ENDBRANCH  27  28
BRANCH  27  30
HETATM   30  C   UNK     0      42.167   9.758  -2.056  0.00  0.00     0.037 C 
BRANCH  30  31
HETATM   31  C   UNK     0      41.209  10.946  -2.256  0.00  0.00     0.040 C 
BRANCH  31  32
HETATM   32  C   UNK     0      40.687  11.575  -0.947  0.00  0.00     0.051 C 
HETATM   33  C   UNK     0      39.159  11.673  -0.998  0.00  0.00     0.045 C 
HETATM   34  C   UNK     0      41.117  10.787   0.294  0.00  0.00     0.045 C 
BRANCH  32  35
HETATM   35  O   UNK     0      41.210  12.900  -0.844  0.00  0.00    -0.391 OA
HETATM   36  H   UNK     0      42.175  12.847  -0.746  0.00  0.00     0.210 HD
ENDBRANCH  32  35
ENDBRANCH  31  32
ENDBRANCH  30  31
ENDBRANCH  27  30
ENDBRANCH  23  27
ENDBRANCH   5  23
BRANCH  10  37
HETATM   37  O   UNK     0      37.311   9.871  -4.804  0.00  0.00    -0.395 OA
HETATM   38  H   UNK     0      37.885  10.643  -4.665  0.00  0.00     0.210 HD
ENDBRANCH  10  37
BRANCH  19  39
HETATM   39  O   UNK     0      32.551   6.269  -6.229  0.00  0.00    -0.393 OA
HETATM   40  H   UNK     0      31.743   6.807  -6.265  0.00  0.00     0.210 HD
ENDBRANCH  19  39
BRANCH  20  41
HETATM   41  O   UNK     0      31.975   8.746  -4.879  0.00  0.00    -0.393 OA
HETATM   42  H   UNK     0      31.661   7.929  -4.457  0.00  0.00     0.210 HD
ENDBRANCH  20  41
ENDBRANCH   1   3
TORSDOF 12
ENDMDL
MODEL 6
REMARK VINA RESULT:      -7.8      2.020      7.803
REMARK  12 active torsions:
REMARK  status: ('A' for Active; 'I' for Inactive)
REMARK    1  A    between atoms: O_1  and  C_10 
REMARK    2  A    between atoms: O_2  and  C_17 
REMARK    3  A    between atoms: O_3  and  C_20 
REMARK    4  A    between atoms: O_4  and  C_27 
REMARK    5  A    between atoms: O_6  and  C_29 
REMARK    6  A    between atoms: O_7  and  C_28 
REMARK    7  A    between atoms: O_8  and  C_33 
REMARK    8  A    between atoms: C_11  and  C_20 
REMARK    9  A    between atoms: C_20  and  C_28 
REMARK   10  A    between atoms: C_28  and  C_31 
REMARK   11  A    between atoms: C_31  and  C_32 
REMARK   12  A    between atoms: C_32  and  C_33 
ROOT
HETATM    1  O   UNK     0      35.479   8.170  -0.820  0.00  0.00    -0.384 OA
HETATM    2  H   UNK     0      34.618   7.851  -0.512  0.00  0.00     0.211 HD
ENDROOT
BRANCH   1   3
HETATM    3  C   UNK     0      35.856   7.538  -2.064  0.00  0.00     0.090 C 
HETATM    4  C   UNK     0      35.766   8.568  -3.219  0.00  0.00    -0.000 C 
HETATM    5  C   UNK     0      34.244   8.869  -3.220  0.00  0.00     0.034 C 
HETATM    6  C   UNK     0      36.641   9.778  -2.864  0.00  0.00     0.045 C 
HETATM    7  C   UNK     0      36.214   7.987  -4.589  0.00  0.00     0.019 C 
HETATM    8  C   UNK     0      33.596   7.487  -2.968  0.00  0.00     0.012 C 
HETATM    9  C   UNK     0      34.707   6.577  -2.399  0.00  0.00     0.044 C 
HETATM   10  C   UNK     0      38.108   9.364  -2.626  0.00  0.00     0.128 C 
HETATM   11  C   UNK     0      38.295   8.192  -1.593  0.00  0.00     0.055 C 
HETATM   12  C   UNK     0      39.800   7.687  -1.457  0.00  0.00    -0.021 C 
HETATM   13  C   UNK     0      37.281   7.061  -1.869  0.00  0.00    -0.034 C 
HETATM   14  C   UNK     0      39.840   6.285  -0.783  0.00  0.00     0.071 C 
HETATM   15  C   UNK     0      40.674   8.698  -0.626  0.00  0.00     0.045 C 
HETATM   16  C   UNK     0      40.460   7.551  -2.858  0.00  0.00     0.017 C 
HETATM   17  C   UNK     0      39.478   6.265   0.713  0.00  0.00     0.047 C 
HETATM   18  C   UNK     0      38.945   5.304  -1.512  0.00  0.00     0.154 C 
HETATM   19  C   UNK     0      39.840   7.550   1.450  0.00  0.00     0.147 C 
HETATM   20  C   UNK     0      41.018   8.264   0.802  0.00  0.00     0.147 C 
HETATM   21  O   UNK     0      39.283   4.140  -1.715  0.00  0.00    -0.293 OA
HETATM   22  C   UNK     0      37.593   5.758  -1.894  0.00  0.00     0.057 C 
BRANCH   5  23
HETATM   23  C   UNK     0      33.688   9.566  -4.454  0.00  0.00     0.084 C 
HETATM   24  C   UNK     0      32.152   9.492  -4.447  0.00  0.00     0.049 C 
BRANCH  23  25
HETATM   25  O   UNK     0      34.051  10.952  -4.393  0.00  0.00    -0.387 OA
HETATM   26  H   UNK     0      33.347  11.480  -4.804  0.00  0.00     0.210 HD
ENDBRANCH  23  25
BRANCH  23  27
HETATM   27  C   UNK     0      34.260   8.973  -5.771  0.00  0.00     0.152 C 
BRANCH  27  28
HETATM   28  O   UNK     0      34.408  10.015  -6.741  0.00  0.00    -0.393 OA
HETATM   29  H   UNK     0      35.292  10.401  -6.621  0.00  0.00     0.210 HD
ENDBRANCH  27  28
BRANCH  27  30
HETATM   30  C   UNK     0      33.398   7.855  -6.388  0.00  0.00     0.037 C 
BRANCH  30  31
HETATM   31  C   UNK     0      33.982   7.343  -7.717  0.00  0.00     0.040 C 
BRANCH  31  32
HETATM   32  C   UNK     0      33.867   5.817  -7.921  0.00  0.00     0.051 C 
HETATM   33  C   UNK     0      35.181   5.144  -7.512  0.00  0.00     0.045 C 
HETATM   34  C   UNK     0      32.702   5.207  -7.137  0.00  0.00     0.045 C 
BRANCH  32  35
HETATM   35  O   UNK     0      33.658   5.564  -9.312  0.00  0.00    -0.391 OA
HETATM   36  H   UNK     0      33.258   6.352  -9.714  0.00  0.00     0.210 HD
ENDBRANCH  32  35
ENDBRANCH  31  32
ENDBRANCH  30  31
ENDBRANCH  27  30
ENDBRANCH  23  27
ENDBRANCH   5  23
BRANCH  10  37
HETATM   37  O   UNK     0      38.809  10.527  -2.197  0.00  0.00    -0.395 OA
HETATM   38  H   UNK     0      39.698  10.498  -2.588  0.00  0.00     0.210 HD
ENDBRANCH  10  37
BRANCH  19  39
HETATM   39  O   UNK     0      40.137   7.232   2.807  0.00  0.00    -0.393 OA
HETATM   40  H   UNK     0      40.290   6.274   2.869  0.00  0.00     0.210 HD
ENDBRANCH  19  39
BRANCH  20  41
HETATM   41  O   UNK     0      42.160   7.407   0.765  0.00  0.00    -0.393 OA
HETATM   42  H   UNK     0      42.553   7.402   1.654  0.00  0.00     0.210 HD
ENDBRANCH  20  41
ENDBRANCH   1   3
TORSDOF 12
ENDMDL
MODEL 7
REMARK VINA RESULT:      -7.8      1.602      7.459
REMARK  12 active torsions:
REMARK  status: ('A' for Active; 'I' for Inactive)
REMARK    1  A    between atoms: O_1  and  C_10 
REMARK    2  A    between atoms: O_2  and  C_17 
REMARK    3  A    between atoms: O_3  and  C_20 
REMARK    4  A    between atoms: O_4  and  C_27 
REMARK    5  A    between atoms: O_6  and  C_29 
REMARK    6  A    between atoms: O_7  and  C_28 
REMARK    7  A    between atoms: O_8  and  C_33 
REMARK    8  A    between atoms: C_11  and  C_20 
REMARK    9  A    between atoms: C_20  and  C_28 
REMARK   10  A    between atoms: C_28  and  C_31 
REMARK   11  A    between atoms: C_31  and  C_32 
REMARK   12  A    between atoms: C_32  and  C_33 
ROOT
HETATM    1  O   UNK     0      35.563   9.581  -1.536  0.00  0.00    -0.384 OA
HETATM    2  H   UNK     0      36.389   9.855  -1.960  0.00  0.00     0.211 HD
ENDROOT
BRANCH   1   3
HETATM    3  C   UNK     0      35.381   8.150  -1.619  0.00  0.00     0.090 C 
HETATM    4  C   UNK     0      34.738   7.786  -2.982  0.00  0.00    -0.000 C 
HETATM    5  C   UNK     0      33.361   8.486  -2.849  0.00  0.00     0.034 C 
HETATM    6  C   UNK     0      35.620   8.350  -4.105  0.00  0.00     0.045 C 
HETATM    7  C   UNK     0      34.560   6.255  -3.181  0.00  0.00     0.019 C 
HETATM    8  C   UNK     0      32.960   8.232  -1.377  0.00  0.00     0.012 C 
HETATM    9  C   UNK     0      34.250   7.824  -0.633  0.00  0.00     0.044 C 
HETATM   10  C   UNK     0      37.059   7.799  -4.023  0.00  0.00     0.128 C 
HETATM   11  C   UNK     0      37.741   7.962  -2.614  0.00  0.00     0.055 C 
HETATM   12  C   UNK     0      39.173   7.271  -2.508  0.00  0.00    -0.021 C 
HETATM   13  C   UNK     0      36.766   7.549  -1.491  0.00  0.00    -0.034 C 
HETATM   14  C   UNK     0      39.575   7.090  -1.016  0.00  0.00     0.071 C 
HETATM   15  C   UNK     0      40.274   8.112  -3.254  0.00  0.00     0.045 C 
HETATM   16  C   UNK     0      39.150   5.861  -3.161  0.00  0.00     0.017 C 
HETATM   17  C   UNK     0      39.915   8.390  -0.265  0.00  0.00     0.047 C 
HETATM   18  C   UNK     0      38.499   6.352  -0.247  0.00  0.00     0.154 C 
HETATM   19  C   UNK     0      40.503   9.479  -1.156  0.00  0.00     0.147 C 
HETATM   20  C   UNK     0      41.236   8.896  -2.356  0.00  0.00     0.147 C 
HETATM   21  O   UNK     0      38.767   5.490   0.587  0.00  0.00    -0.293 OA
HETATM   22  C   UNK     0      37.098   6.768  -0.454  0.00  0.00     0.057 C 
BRANCH   5  23
HETATM   23  C   UNK     0      32.283   8.063  -3.837  0.00  0.00     0.084 C 
HETATM   24  C   UNK     0      32.133   6.533  -3.822  0.00  0.00     0.049 C 
BRANCH  23  25
HETATM   25  O   UNK     0      31.033   8.620  -3.410  0.00  0.00    -0.387 OA
HETATM   26  H   UNK     0      31.031   9.573  -3.600  0.00  0.00     0.210 HD
ENDBRANCH  23  25
BRANCH  23  27
HETATM   27  C   UNK     0      32.573   8.571  -5.276  0.00  0.00     0.152 C 
BRANCH  27  28
HETATM   28  O   UNK     0      31.719   9.681  -5.574  0.00  0.00    -0.393 OA
HETATM   29  H   UNK     0      31.557   9.674  -6.532  0.00  0.00     0.210 HD
ENDBRANCH  27  28
BRANCH  27  30
HETATM   30  C   UNK     0      32.383   7.506  -6.373  0.00  0.00     0.037 C 
BRANCH  30  31
HETATM   31  C   UNK     0      33.680   7.255  -7.164  0.00  0.00     0.040 C 
BRANCH  31  32
HETATM   32  C   UNK     0      33.801   5.837  -7.762  0.00  0.00     0.051 C 
HETATM   33  C   UNK     0      35.145   5.222  -7.356  0.00  0.00     0.045 C 
HETATM   34  C   UNK     0      32.656   4.918  -7.329  0.00  0.00     0.045 C 
BRANCH  32  35
HETATM   35  O   UNK     0      33.780   5.946  -9.186  0.00  0.00    -0.391 OA
HETATM   36  H   UNK     0      34.677   5.784  -9.523  0.00  0.00     0.210 HD
ENDBRANCH  32  35
ENDBRANCH  31  32
ENDBRANCH  30  31
ENDBRANCH  27  30
ENDBRANCH  23  27
ENDBRANCH   5  23
BRANCH  10  37
HETATM   37  O   UNK     0      37.820   8.462  -5.028  0.00  0.00    -0.395 OA
HETATM   38  H   UNK     0      37.394   8.289  -5.885  0.00  0.00     0.210 HD
ENDBRANCH  10  37
BRANCH  19  39
HETATM   39  O   UNK     0      41.385  10.281  -0.376  0.00  0.00    -0.393 OA
HETATM   40  H   UNK     0      40.947  11.131  -0.198  0.00  0.00     0.210 HD
ENDBRANCH  19  39
BRANCH  20  41
HETATM   41  O   UNK     0      42.284   8.026  -1.925  0.00  0.00    -0.393 OA
HETATM   42  H   UNK     0      42.332   7.289  -2.557  0.00  0.00     0.210 HD
ENDBRANCH  20  41
ENDBRANCH   1   3
TORSDOF 12
ENDMDL
MODEL 8
REMARK VINA RESULT:      -7.6      3.704      7.397
REMARK  12 active torsions:
REMARK  status: ('A' for Active; 'I' for Inactive)
REMARK    1  A    between atoms: O_1  and  C_10 
REMARK    2  A    between atoms: O_2  and  C_17 
REMARK    3  A    between atoms: O_3  and  C_20 
REMARK    4  A    between atoms: O_4  and  C_27 
REMARK    5  A    between atoms: O_6  and  C_29 
REMARK    6  A    between atoms: O_7  and  C_28 
REMARK    7  A    between atoms: O_8  and  C_33 
REMARK    8  A    between atoms: C_11  and  C_20 
REMARK    9  A    between atoms: C_20  and  C_28 
REMARK   10  A    between atoms: C_28  and  C_31 
REMARK   11  A    between atoms: C_31  and  C_32 
REMARK   12  A    between atoms: C_32  and  C_33 
ROOT
HETATM    1  O   UNK     0      34.411  10.837  -6.588  0.00  0.00    -0.384 OA
HETATM    2  H   UNK     0      34.610  10.138  -7.226  0.00  0.00     0.211 HD
ENDROOT
BRANCH   1   3
HETATM    3  C   UNK     0      34.731  10.421  -5.240  0.00  0.00     0.090 C 
HETATM    4  C   UNK     0      33.721  11.053  -4.248  0.00  0.00    -0.000 C 
HETATM    5  C   UNK     0      34.044  12.560  -4.426  0.00  0.00     0.034 C 
HETATM    6  C   UNK     0      32.301  10.662  -4.681  0.00  0.00     0.045 C 
HETATM    7  C   UNK     0      33.956  10.609  -2.777  0.00  0.00     0.019 C 
HETATM    8  C   UNK     0      35.585  12.594  -4.548  0.00  0.00     0.012 C 
HETATM    9  C   UNK     0      36.033  11.154  -4.885  0.00  0.00     0.044 C 
HETATM   10  C   UNK     0      32.126   9.131  -4.726  0.00  0.00     0.128 C 
HETATM   11  C   UNK     0      33.217   8.373  -5.571  0.00  0.00     0.055 C 
HETATM   12  C   UNK     0      33.100   6.787  -5.500  0.00  0.00    -0.021 C 
HETATM   13  C   UNK     0      34.625   8.910  -5.239  0.00  0.00    -0.034 C 
HETATM   14  C   UNK     0      34.428   6.126  -5.972  0.00  0.00     0.071 C 
HETATM   15  C   UNK     0      31.905   6.257  -6.376  0.00  0.00     0.045 C 
HETATM   16  C   UNK     0      32.841   6.322  -4.039  0.00  0.00     0.017 C 
HETATM   17  C   UNK     0      34.721   6.246  -7.479  0.00  0.00     0.047 C 
HETATM   18  C   UNK     0      35.613   6.672  -5.203  0.00  0.00     0.154 C 
HETATM   19  C   UNK     0      33.468   6.301  -8.346  0.00  0.00     0.147 C 
HETATM   20  C   UNK     0      32.294   5.583  -7.695  0.00  0.00     0.147 C 
HETATM   21  O   UNK     0      36.528   5.949  -4.814  0.00  0.00    -0.293 OA
HETATM   22  C   UNK     0      35.694   8.133  -5.010  0.00  0.00     0.057 C 
BRANCH   5  23
HETATM   23  C   UNK     0      33.514  13.501  -3.353  0.00  0.00     0.084 C 
HETATM   24  C   UNK     0      34.061  13.085  -1.978  0.00  0.00     0.049 C 
BRANCH  23  25
HETATM   25  O   UNK     0      34.003  14.821  -3.627  0.00  0.00    -0.387 OA
HETATM   26  H   UNK     0      34.032  14.953  -4.589  0.00  0.00     0.210 HD
ENDBRANCH  23  25
BRANCH  23  27
HETATM   27  C   UNK     0      31.962  13.554  -3.333  0.00  0.00     0.152 C 
BRANCH  27  28
HETATM   28  O   UNK     0      31.528  14.915  -3.433  0.00  0.00    -0.393 OA
HETATM   29  H   UNK     0      32.168  15.461  -2.947  0.00  0.00     0.210 HD
ENDBRANCH  27  28
BRANCH  27  30
HETATM   30  C   UNK     0      31.324  12.933  -2.075  0.00  0.00     0.037 C 
BRANCH  30  31
HETATM   31  C   UNK     0      29.805  13.176  -2.019  0.00  0.00     0.040 C 
BRANCH  31  32
HETATM   32  C   UNK     0      28.952  12.037  -2.616  0.00  0.00     0.051 C 
HETATM   33  C   UNK     0      29.599  10.686  -2.292  0.00  0.00     0.045 C 
HETATM   34  C   UNK     0      27.508  12.058  -2.109  0.00  0.00     0.045 C 
BRANCH  32  35
HETATM   35  O   UNK     0      28.934  12.186  -4.037  0.00  0.00    -0.391 OA
HETATM   36  H   UNK     0      28.783  13.122  -4.249  0.00  0.00     0.210 HD
ENDBRANCH  32  35
ENDBRANCH  31  32
ENDBRANCH  30  31
ENDBRANCH  27  30
ENDBRANCH  23  27
ENDBRANCH   5  23
BRANCH  10  37
HETATM   37  O   UNK     0      30.824   8.872  -5.243  0.00  0.00    -0.395 OA
HETATM   38  H   UNK     0      30.458   9.715  -5.560  0.00  0.00     0.210 HD
ENDBRANCH  10  37
BRANCH  19  39
HETATM   39  O   UNK     0      33.763   5.724  -9.615  0.00  0.00    -0.393 OA
HETATM   40  H   UNK     0      32.924   5.480 -10.041  0.00  0.00     0.210 HD
ENDBRANCH  19  39
BRANCH  20  41
HETATM   41  O   UNK     0      32.627   4.217  -7.439  0.00  0.00    -0.393 OA
HETATM   42  H   UNK     0      32.011   3.886  -6.765  0.00  0.00     0.210 HD
ENDBRANCH  20  41
ENDBRANCH   1   3
TORSDOF 12
ENDMDL
MODEL 9
REMARK VINA RESULT:      -7.2      2.114      8.191
REMARK  12 active torsions:
REMARK  status: ('A' for Active; 'I' for Inactive)
REMARK    1  A    between atoms: O_1  and  C_10 
REMARK    2  A    between atoms: O_2  and  C_17 
REMARK    3  A    between atoms: O_3  and  C_20 
REMARK    4  A    between atoms: O_4  and  C_27 
REMARK    5  A    between atoms: O_6  and  C_29 
REMARK    6  A    between atoms: O_7  and  C_28 
REMARK    7  A    between atoms: O_8  and  C_33 
REMARK    8  A    between atoms: C_11  and  C_20 
REMARK    9  A    between atoms: C_20  and  C_28 
REMARK   10  A    between atoms: C_28  and  C_31 
REMARK   11  A    between atoms: C_31  and  C_32 
REMARK   12  A    between atoms: C_32  and  C_33 
ROOT
HETATM    1  O   UNK     0      35.233   8.389  -2.326  0.00  0.00    -0.384 OA
HETATM    2  H   UNK     0      35.643   9.214  -2.622  0.00  0.00     0.211 HD
ENDROOT
BRANCH   1   3
HETATM    3  C   UNK     0      35.936   7.238  -2.846  0.00  0.00     0.090 C 
HETATM    4  C   UNK     0      36.031   7.341  -4.391  0.00  0.00    -0.000 C 
HETATM    5  C   UNK     0      34.531   7.262  -4.778  0.00  0.00     0.034 C 
HETATM    6  C   UNK     0      36.700   8.674  -4.752  0.00  0.00     0.045 C 
HETATM    7  C   UNK     0      36.827   6.169  -5.030  0.00  0.00     0.019 C 
HETATM    8  C   UNK     0      33.957   6.200  -3.811  0.00  0.00     0.012 C 
HETATM    9  C   UNK     0      34.976   6.054  -2.660  0.00  0.00     0.044 C 
HETATM   10  C   UNK     0      38.101   8.792  -4.117  0.00  0.00     0.128 C 
HETATM   11  C   UNK     0      38.140   8.527  -2.566  0.00  0.00     0.055 C 
HETATM   12  C   UNK     0      39.609   8.522  -1.950  0.00  0.00    -0.021 C 
HETATM   13  C   UNK     0      37.312   7.274  -2.212  0.00  0.00    -0.034 C 
HETATM   14  C   UNK     0      39.606   7.835  -0.554  0.00  0.00     0.071 C 
HETATM   15  C   UNK     0      40.183   9.981  -1.820  0.00  0.00     0.045 C 
HETATM   16  C   UNK     0      40.583   7.724  -2.862  0.00  0.00     0.017 C 
HETATM   17  C   UNK     0      38.913   8.630   0.568  0.00  0.00     0.047 C 
HETATM   18  C   UNK     0      38.985   6.455  -0.627  0.00  0.00     0.154 C 
HETATM   19  C   UNK     0      38.990  10.142   0.388  0.00  0.00     0.147 C 
HETATM   20  C   UNK     0      40.224  10.558  -0.401  0.00  0.00     0.147 C 
HETATM   21  O   UNK     0      39.453   5.496  -0.017  0.00  0.00    -0.293 OA
HETATM   22  C   UNK     0      37.726   6.307  -1.381  0.00  0.00     0.057 C 
BRANCH   5  23
HETATM   23  C   UNK     0      34.219   6.963  -6.238  0.00  0.00     0.084 C 
HETATM   24  C   UNK     0      34.176   8.273  -7.041  0.00  0.00     0.049 C 
BRANCH  23  25
HETATM   25  O   UNK     0      35.284   6.166  -6.774  0.00  0.00    -0.387 OA
HETATM   26  H   UNK     0      36.128   6.488  -6.417  0.00  0.00     0.210 HD
ENDBRANCH  23  25
BRANCH  23  27
HETATM   27  C   UNK     0      32.893   6.173  -6.405  0.00  0.00     0.152 C 
BRANCH  27  28
HETATM   28  O   UNK     0      32.998   5.290  -7.527  0.00  0.00    -0.393 OA
HETATM   29  H   UNK     0      32.148   4.827  -7.613  0.00  0.00     0.210 HD
ENDBRANCH  27  28
BRANCH  27  30
HETATM   30  C   UNK     0      31.649   7.060  -6.602  0.00  0.00     0.037 C 
BRANCH  30  31
HETATM   31  C   UNK     0      30.739   7.065  -5.360  0.00  0.00     0.040 C 
BRANCH  31  32
HETATM   32  C   UNK     0      30.552   8.451  -4.708  0.00  0.00     0.051 C 
HETATM   33  C   UNK     0      29.076   8.855  -4.776  0.00  0.00     0.045 C 
HETATM   34  C   UNK     0      31.035   8.486  -3.256  0.00  0.00     0.045 C 
BRANCH  32  35
HETATM   35  O   UNK     0      31.304   9.407  -5.458  0.00  0.00    -0.391 OA
HETATM   36  H   UNK     0      31.037  10.299  -5.180  0.00  0.00     0.210 HD
ENDBRANCH  32  35
ENDBRANCH  31  32
ENDBRANCH  30  31
ENDBRANCH  27  30
ENDBRANCH  23  27
ENDBRANCH   5  23
BRANCH  10  37
HETATM   37  O   UNK     0      38.589  10.098  -4.415  0.00  0.00    -0.395 OA
HETATM   38  H   UNK     0      39.518  10.138  -4.131  0.00  0.00     0.210 HD
ENDBRANCH  10  37
BRANCH  19  39
HETATM   39  O   UNK     0      38.991  10.756   1.673  0.00  0.00    -0.393 OA
HETATM   40  H   UNK     0      38.101  11.105   1.846  0.00  0.00     0.210 HD
ENDBRANCH  19  39
BRANCH  20  41
HETATM   41  O   UNK     0      41.409  10.102   0.253  0.00  0.00    -0.393 OA
HETATM   42  H   UNK     0      41.318  10.301   1.200  0.00  0.00     0.210 HD
ENDBRANCH  20  41
ENDBRANCH   1   3
TORSDOF 12
ENDMDL
