MODEL 1
REMARK VINA RESULT:    -6.810      0.000      0.000
REMARK INTER + INTRA:          -8.054
REMARK INTER:                  -8.004
REMARK INTRA:                  -0.050
REMARK UNBOUND:                -0.050
REMARK  Name = 8742
REMARK  5 active torsions:
REMARK  status: ('A' for Active; 'I' for Inactive)
REMARK    1  A    between atoms: O_1  and  C_6
REMARK    2  A    between atoms: O_2  and  C_7
REMARK    3  A    between atoms: O_3  and  C_8
REMARK    4  A    between atoms: O_4  and  C_12
REMARK    5  A    between atoms: C_10  and  C_12
REMARK                            x       y       z     vdW  Elec       q    Type
REMARK                         _______ _______ _______ _____ _____    ______ ____
ROOT
ATOM      1  C   UNL     1      80.377  83.269 102.979  0.00  0.00    +0.000 C 
ATOM      2  C   UNL     1      79.759  83.897 101.727  0.00  0.00    +0.000 C 
ATOM      3  C   UNL     1      81.914  83.258 102.898  0.00  0.00    +0.000 C 
ATOM      4  C   UNL     1      80.278  85.326 101.490  0.00  0.00    +0.000 C 
ATOM      5  C   UNL     1      81.742  85.482 101.790  0.00  0.00    +0.000 C 
ATOM      6  C   UNL     1      82.489  84.559 102.414  0.00  0.00    +0.000 C 
ENDROOT
BRANCH   1   7
ATOM      7  O   UNL     1      79.945  84.017 104.117  0.00  0.00    +0.000 OA
ATOM      8  H   UNL     1      79.830  83.390 104.850  0.00  0.00    +0.000 HD
ENDBRANCH   1   7
BRANCH   2   9
ATOM      9  O   UNL     1      80.061  83.077 100.601  0.00  0.00    +0.000 OA
ATOM     10  H   UNL     1      80.968  82.745 100.714  0.00  0.00    +0.000 HD
ENDBRANCH   2   9
BRANCH   3  11
ATOM     11  O   UNL     1      82.466  82.948 104.173  0.00  0.00    +0.000 OA
ATOM     12  H   UNL     1      81.956  83.439 104.839  0.00  0.00    +0.000 HD
ENDBRANCH   3  11
BRANCH   5  14
ATOM     13  O   UNL     1      83.615  86.888 101.376  0.00  0.00    +0.000 OA
ATOM     14  C   UNL     1      82.410  86.715 101.359  0.00  0.00    +0.000 C 
BRANCH  14  15
ATOM     15  O   UNL     1      81.487  87.609 100.950  0.00  0.00    +0.000 OA
ATOM     16  H   UNL     1      81.884  88.331 100.417  0.00  0.00    +0.000 HD
ENDBRANCH  14  15
ENDBRANCH   5  14
TORSDOF 5
ENDMDL
MODEL 2
REMARK VINA RESULT:    -6.725      1.910      3.907
REMARK INTER + INTRA:          -7.954
REMARK INTER:                  -7.904
REMARK INTRA:                  -0.050
REMARK UNBOUND:                -0.050
REMARK  Name = 8742
REMARK  5 active torsions:
REMARK  status: ('A' for Active; 'I' for Inactive)
REMARK    1  A    between atoms: O_1  and  C_6
REMARK    2  A    between atoms: O_2  and  C_7
REMARK    3  A    between atoms: O_3  and  C_8
REMARK    4  A    between atoms: O_4  and  C_12
REMARK    5  A    between atoms: C_10  and  C_12
REMARK                            x       y       z     vdW  Elec       q    Type
REMARK                         _______ _______ _______ _____ _____    ______ ____
ROOT
ATOM      1  C   UNL     1      79.779  84.187 101.053  0.00  0.00    +0.000 C 
ATOM      2  C   UNL     1      80.350  84.620 102.406  0.00  0.00    +0.000 C 
ATOM      3  C   UNL     1      80.901  83.879 100.046  0.00  0.00    +0.000 C 
ATOM      4  C   UNL     1      81.298  83.559 102.991  0.00  0.00    +0.000 C 
ATOM      5  C   UNL     1      82.172  82.910 101.956  0.00  0.00    +0.000 C 
ATOM      6  C   UNL     1      82.009  83.051 100.632  0.00  0.00    +0.000 C 
ENDROOT
BRANCH   1   7
ATOM      7  O   UNL     1      78.964  83.032 101.258  0.00  0.00    +0.000 OA
ATOM      8  H   UNL     1      79.492  82.389 101.759  0.00  0.00    +0.000 HD
ENDBRANCH   1   7
BRANCH   2   9
ATOM      9  O   UNL     1      81.044  85.854 102.241  0.00  0.00    +0.000 OA
ATOM     10  H   UNL     1      80.621  86.335 101.510  0.00  0.00    +0.000 HD
ENDBRANCH   2   9
BRANCH   3  11
ATOM     11  O   UNL     1      80.364  83.207  98.911  0.00  0.00    +0.000 OA
ATOM     12  H   UNL     1      80.961  83.378  98.162  0.00  0.00    +0.000 HD
ENDBRANCH   3  11
BRANCH   5  14
ATOM     13  O   UNL     1      84.172  81.651 101.694  0.00  0.00    +0.000 OA
ATOM     14  C   UNL     1      83.289  82.079 102.416  0.00  0.00    +0.000 C 
BRANCH  14  15
ATOM     15  O   UNL     1      83.181  81.869 103.743  0.00  0.00    +0.000 OA
ATOM     16  H   UNL     1      83.557  81.005 104.013  0.00  0.00    +0.000 HD
ENDBRANCH  14  15
ENDBRANCH   5  14
TORSDOF 5
ENDMDL
MODEL 3
REMARK VINA RESULT:    -6.724      1.358      3.940
REMARK INTER + INTRA:          -7.953
REMARK INTER:                  -7.902
REMARK INTRA:                  -0.051
REMARK UNBOUND:                -0.050
REMARK  Name = 8742
REMARK  5 active torsions:
REMARK  status: ('A' for Active; 'I' for Inactive)
REMARK    1  A    between atoms: O_1  and  C_6
REMARK    2  A    between atoms: O_2  and  C_7
REMARK    3  A    between atoms: O_3  and  C_8
REMARK    4  A    between atoms: O_4  and  C_12
REMARK    5  A    between atoms: C_10  and  C_12
REMARK                            x       y       z     vdW  Elec       q    Type
REMARK                         _______ _______ _______ _____ _____    ______ ____
ROOT
ATOM      1  C   UNL     1      81.501  85.123 100.118  0.00  0.00    +0.000 C 
ATOM      2  C   UNL     1      81.403  83.599 100.006  0.00  0.00    +0.000 C 
ATOM      3  C   UNL     1      80.521  85.669 101.171  0.00  0.00    +0.000 C 
ATOM      4  C   UNL     1      81.654  82.911 101.359  0.00  0.00    +0.000 C 
ATOM      5  C   UNL     1      81.039  83.641 102.519  0.00  0.00    +0.000 C 
ATOM      6  C   UNL     1      80.521  84.876 102.446  0.00  0.00    +0.000 C 
ENDROOT
BRANCH   1   7
ATOM      7  O   UNL     1      82.844  85.462 100.466  0.00  0.00    +0.000 OA
ATOM      8  H   UNL     1      82.851  85.691 101.410  0.00  0.00    +0.000 HD
ENDBRANCH   1   7
BRANCH   2   9
ATOM      9  O   UNL     1      80.109  83.254  99.518  0.00  0.00    +0.000 OA
ATOM     10  H   UNL     1      79.605  82.877 100.260  0.00  0.00    +0.000 HD
ENDBRANCH   2   9
BRANCH   3  11
ATOM     11  O   UNL     1      80.831  87.028 101.466  0.00  0.00    +0.000 OA
ATOM     12  H   UNL     1      80.793  87.133 102.432  0.00  0.00    +0.000 HD
ENDBRANCH   3  11
BRANCH   5  14
ATOM     13  O   UNL     1      81.765  82.095 104.175  0.00  0.00    +0.000 OA
ATOM     14  C   UNL     1      80.983  82.958 103.816  0.00  0.00    +0.000 C 
BRANCH  14  15
ATOM     15  O   UNL     1      79.944  83.432 104.532  0.00  0.00    +0.000 OA
ATOM     16  H   UNL     1      79.183  83.674 103.962  0.00  0.00    +0.000 HD
ENDBRANCH  14  15
ENDBRANCH   5  14
TORSDOF 5
ENDMDL
MODEL 4
REMARK VINA RESULT:    -6.676      1.764      3.530
REMARK INTER + INTRA:          -7.897
REMARK INTER:                  -7.845
REMARK INTRA:                  -0.052
REMARK UNBOUND:                -0.050
REMARK  Name = 8742
REMARK  5 active torsions:
REMARK  status: ('A' for Active; 'I' for Inactive)
REMARK    1  A    between atoms: O_1  and  C_6
REMARK    2  A    between atoms: O_2  and  C_7
REMARK    3  A    between atoms: O_3  and  C_8
REMARK    4  A    between atoms: O_4  and  C_12
REMARK    5  A    between atoms: C_10  and  C_12
REMARK                            x       y       z     vdW  Elec       q    Type
REMARK                         _______ _______ _______ _____ _____    ______ ____
ROOT
ATOM      1  C   UNL     1      80.388  84.886 101.783  0.00  0.00    +0.000 C 
ATOM      2  C   UNL     1      80.929  84.338 100.460  0.00  0.00    +0.000 C 
ATOM      3  C   UNL     1      80.233  83.768 102.829  0.00  0.00    +0.000 C 
ATOM      4  C   UNL     1      82.273  83.613 100.651  0.00  0.00    +0.000 C 
ATOM      5  C   UNL     1      82.332  82.793 101.908  0.00  0.00    +0.000 C 
ATOM      6  C   UNL     1      81.419  82.848 102.890  0.00  0.00    +0.000 C 
ENDROOT
BRANCH   1   7
ATOM      7  O   UNL     1      81.288  85.889 102.256  0.00  0.00    +0.000 OA
ATOM      8  H   UNL     1      82.080  85.434 102.590  0.00  0.00    +0.000 HD
ENDBRANCH   1   7
BRANCH   2   9
ATOM      9  O   UNL     1      79.970  83.443  99.904  0.00  0.00    +0.000 OA
ATOM     10  H   UNL     1      79.586  83.873  99.120  0.00  0.00    +0.000 HD
ENDBRANCH   2   9
BRANCH   3  11
ATOM     11  O   UNL     1      80.015  84.334 104.118  0.00  0.00    +0.000 OA
ATOM     12  H   UNL     1      80.884  84.565 104.487  0.00  0.00    +0.000 HD
ENDBRANCH   3  11
BRANCH   5  14
ATOM     13  O   UNL     1      84.095  81.388 101.153  0.00  0.00    +0.000 OA
ATOM     14  C   UNL     1      83.448  81.856 102.072  0.00  0.00    +0.000 C 
BRANCH  14  15
ATOM     15  O   UNL     1      83.636  81.602 103.383  0.00  0.00    +0.000 OA
ATOM     16  H   UNL     1      83.570  82.414 103.929  0.00  0.00    +0.000 HD
ENDBRANCH  14  15
ENDBRANCH   5  14
TORSDOF 5
ENDMDL
MODEL 5
REMARK VINA RESULT:    -6.664      1.618      2.888
REMARK INTER + INTRA:          -7.883
REMARK INTER:                  -7.830
REMARK INTRA:                  -0.053
REMARK UNBOUND:                -0.050
REMARK  Name = 8742
REMARK  5 active torsions:
REMARK  status: ('A' for Active; 'I' for Inactive)
REMARK    1  A    between atoms: O_1  and  C_6
REMARK    2  A    between atoms: O_2  and  C_7
REMARK    3  A    between atoms: O_3  and  C_8
REMARK    4  A    between atoms: O_4  and  C_12
REMARK    5  A    between atoms: C_10  and  C_12
REMARK                            x       y       z     vdW  Elec       q    Type
REMARK                         _______ _______ _______ _____ _____    ______ ____
ROOT
ATOM      1  C   UNL     1      80.539  83.129 100.509  0.00  0.00    +0.000 C 
ATOM      2  C   UNL     1      81.987  82.870 100.932  0.00  0.00    +0.000 C 
ATOM      3  C   UNL     1      79.948  84.341 101.251  0.00  0.00    +0.000 C 
ATOM      4  C   UNL     1      82.877  84.105 100.705  0.00  0.00    +0.000 C 
ATOM      5  C   UNL     1      82.193  85.399 101.043  0.00  0.00    +0.000 C 
ATOM      6  C   UNL     1      80.881  85.517 101.298  0.00  0.00    +0.000 C 
ENDROOT
BRANCH   1   7
ATOM      7  O   UNL     1      80.516  83.351  99.098  0.00  0.00    +0.000 OA
ATOM      8  H   UNL     1      79.584  83.357  98.820  0.00  0.00    +0.000 HD
ENDBRANCH   1   7
BRANCH   2   9
ATOM      9  O   UNL     1      82.008  82.504 102.309  0.00  0.00    +0.000 OA
ATOM     10  H   UNL     1      81.089  82.501 102.627  0.00  0.00    +0.000 HD
ENDBRANCH   2   9
BRANCH   3  11
ATOM     11  O   UNL     1      78.725  84.738 100.639  0.00  0.00    +0.000 OA
ATOM     12  H   UNL     1      78.539  85.649 100.922  0.00  0.00    +0.000 HD
ENDBRANCH   3  11
BRANCH   5  14
ATOM     13  O   UNL     1      84.147  86.709 100.693  0.00  0.00    +0.000 OA
ATOM     14  C   UNL     1      83.010  86.615 101.119  0.00  0.00    +0.000 C 
BRANCH  14  15
ATOM     15  O   UNL     1      82.309  87.594 101.727  0.00  0.00    +0.000 OA
ATOM     16  H   UNL     1      82.196  88.379 101.151  0.00  0.00    +0.000 HD
ENDBRANCH  14  15
ENDBRANCH   5  14
TORSDOF 5
ENDMDL
MODEL 6
REMARK VINA RESULT:    -6.663      1.476      4.021
REMARK INTER + INTRA:          -7.881
REMARK INTER:                  -7.842
REMARK INTRA:                  -0.039
REMARK UNBOUND:                -0.050
REMARK  Name = 8742
REMARK  5 active torsions:
REMARK  status: ('A' for Active; 'I' for Inactive)
REMARK    1  A    between atoms: O_1  and  C_6
REMARK    2  A    between atoms: O_2  and  C_7
REMARK    3  A    between atoms: O_3  and  C_8
REMARK    4  A    between atoms: O_4  and  C_12
REMARK    5  A    between atoms: C_10  and  C_12
REMARK                            x       y       z     vdW  Elec       q    Type
REMARK                         _______ _______ _______ _____ _____    ______ ____
ROOT
ATOM      1  C   UNL     1      81.197  85.316 100.174  0.00  0.00    +0.000 C 
ATOM      2  C   UNL     1      82.049  85.848 101.329  0.00  0.00    +0.000 C 
ATOM      3  C   UNL     1      81.307  83.785 100.057  0.00  0.00    +0.000 C 
ATOM      4  C   UNL     1      81.667  85.194 102.668  0.00  0.00    +0.000 C 
ATOM      5  C   UNL     1      81.360  83.729 102.547  0.00  0.00    +0.000 C 
ATOM      6  C   UNL     1      81.204  83.083 101.381  0.00  0.00    +0.000 C 
ENDROOT
BRANCH   1   7
ATOM      7  O   UNL     1      79.840  85.700 100.402  0.00  0.00    +0.000 OA
ATOM      8  H   UNL     1      79.608  85.425 101.305  0.00  0.00    +0.000 HD
ENDBRANCH   1   7
BRANCH   2   9
ATOM      9  O   UNL     1      83.423  85.600 101.042  0.00  0.00    +0.000 OA
ATOM     10  H   UNL     1      83.675  84.779 101.498  0.00  0.00    +0.000 HD
ENDBRANCH   2   9
BRANCH   3  11
ATOM     11  O   UNL     1      80.297  83.290  99.184  0.00  0.00    +0.000 OA
ATOM     12  H   UNL     1      79.545  83.904  99.230  0.00  0.00    +0.000 HD
ENDBRANCH   3  11
BRANCH   5  14
ATOM     13  O   UNL     1      81.985  82.032 104.091  0.00  0.00    +0.000 OA
ATOM     14  C   UNL     1      81.239  82.942 103.778  0.00  0.00    +0.000 C 
BRANCH  14  15
ATOM     15  O   UNL     1      80.185  83.383 104.495  0.00  0.00    +0.000 OA
ATOM     16  H   UNL     1      79.498  82.692 104.604  0.00  0.00    +0.000 HD
ENDBRANCH  14  15
ENDBRANCH   5  14
TORSDOF 5
ENDMDL
MODEL 7
REMARK VINA RESULT:    -6.506      1.915      3.325
REMARK INTER + INTRA:          -7.696
REMARK INTER:                  -7.656
REMARK INTRA:                  -0.040
REMARK UNBOUND:                -0.050
REMARK  Name = 8742
REMARK  5 active torsions:
REMARK  status: ('A' for Active; 'I' for Inactive)
REMARK    1  A    between atoms: O_1  and  C_6
REMARK    2  A    between atoms: O_2  and  C_7
REMARK    3  A    between atoms: O_3  and  C_8
REMARK    4  A    between atoms: O_4  and  C_12
REMARK    5  A    between atoms: C_10  and  C_12
REMARK                            x       y       z     vdW  Elec       q    Type
REMARK                         _______ _______ _______ _____ _____    ______ ____
ROOT
ATOM      1  C   UNL     1      81.274  83.816 101.403  0.00  0.00    +0.000 C 
ATOM      2  C   UNL     1      82.463  84.777 101.479  0.00  0.00    +0.000 C 
ATOM      3  C   UNL     1      79.941  84.581 101.331  0.00  0.00    +0.000 C 
ATOM      4  C   UNL     1      82.486  85.752 100.288  0.00  0.00    +0.000 C 
ATOM      5  C   UNL     1      81.120  86.242  99.898  0.00  0.00    +0.000 C 
ATOM      6  C   UNL     1      79.971  85.730 100.364  0.00  0.00    +0.000 C 
ENDROOT
BRANCH   1   7
ATOM      7  O   UNL     1      81.437  82.991 100.248  0.00  0.00    +0.000 OA
ATOM      8  H   UNL     1      82.316  83.178  99.878  0.00  0.00    +0.000 HD
ENDBRANCH   1   7
BRANCH   2   9
ATOM      9  O   UNL     1      82.391  85.506 102.702  0.00  0.00    +0.000 OA
ATOM     10  H   UNL     1      82.098  86.408 102.490  0.00  0.00    +0.000 HD
ENDBRANCH   2   9
BRANCH   3  11
ATOM     11  O   UNL     1      78.889  83.692 100.969  0.00  0.00    +0.000 OA
ATOM     12  H   UNL     1      79.298  82.874 100.641  0.00  0.00    +0.000 HD
ENDBRANCH   3  11
BRANCH   5  14
ATOM     13  O   UNL     1      81.266  88.524  99.246  0.00  0.00    +0.000 OA
ATOM     14  C   UNL     1      81.030  87.365  98.958  0.00  0.00    +0.000 C 
BRANCH  14  15
ATOM     15  O   UNL     1      80.650  86.911  97.746  0.00  0.00    +0.000 OA
ATOM     16  H   UNL     1      80.626  87.626  97.076  0.00  0.00    +0.000 HD
ENDBRANCH  14  15
ENDBRANCH   5  14
TORSDOF 5
ENDMDL
MODEL 8
REMARK VINA RESULT:    -6.442      2.242      3.971
REMARK INTER + INTRA:          -7.621
REMARK INTER:                  -7.572
REMARK INTRA:                  -0.049
REMARK UNBOUND:                -0.050
REMARK  Name = 8742
REMARK  5 active torsions:
REMARK  status: ('A' for Active; 'I' for Inactive)
REMARK    1  A    between atoms: O_1  and  C_6
REMARK    2  A    between atoms: O_2  and  C_7
REMARK    3  A    between atoms: O_3  and  C_8
REMARK    4  A    between atoms: O_4  and  C_12
REMARK    5  A    between atoms: C_10  and  C_12
REMARK                            x       y       z     vdW  Elec       q    Type
REMARK                         _______ _______ _______ _____ _____    ______ ____
ROOT
ATOM      1  C   UNL     1      83.734  82.300 101.182  0.00  0.00    +0.000 C 
ATOM      2  C   UNL     1      82.983  83.346 100.353  0.00  0.00    +0.000 C 
ATOM      3  C   UNL     1      83.367  82.401 102.673  0.00  0.00    +0.000 C 
ATOM      4  C   UNL     1      81.459  83.221 100.524  0.00  0.00    +0.000 C 
ATOM      5  C   UNL     1      81.044  82.910 101.934  0.00  0.00    +0.000 C 
ATOM      6  C   UNL     1      81.891  82.548 102.909  0.00  0.00    +0.000 C 
ENDROOT
BRANCH   1   7
ATOM      7  O   UNL     1      83.407  81.006 100.676  0.00  0.00    +0.000 OA
ATOM      8  H   UNL     1      84.073  80.384 101.013  0.00  0.00    +0.000 HD
ENDBRANCH   1   7
BRANCH   2   9
ATOM      9  O   UNL     1      83.412  84.645 100.750  0.00  0.00    +0.000 OA
ATOM     10  H   UNL     1      83.215  85.257 100.021  0.00  0.00    +0.000 HD
ENDBRANCH   2   9
BRANCH   3  11
ATOM     11  O   UNL     1      83.840  81.252 103.369  0.00  0.00    +0.000 OA
ATOM     12  H   UNL     1      84.205  80.640 102.708  0.00  0.00    +0.000 HD
ENDBRANCH   3  11
BRANCH   5  14
ATOM     13  O   UNL     1      79.187  83.020 103.415  0.00  0.00    +0.000 OA
ATOM     14  C   UNL     1      79.623  83.024 102.278  0.00  0.00    +0.000 C 
BRANCH  14  15
ATOM     15  O   UNL     1      78.892  83.132 101.150  0.00  0.00    +0.000 OA
ATOM     16  H   UNL     1      78.174  82.466 101.110  0.00  0.00    +0.000 HD
ENDBRANCH  14  15
ENDBRANCH   5  14
TORSDOF 5
ENDMDL
MODEL 9
REMARK VINA RESULT:    -6.418      1.367      3.820
REMARK INTER + INTRA:          -7.593
REMARK INTER:                  -7.546
REMARK INTRA:                  -0.048
REMARK UNBOUND:                -0.050
REMARK  Name = 8742
REMARK  5 active torsions:
REMARK  status: ('A' for Active; 'I' for Inactive)
REMARK    1  A    between atoms: O_1  and  C_6
REMARK    2  A    between atoms: O_2  and  C_7
REMARK    3  A    between atoms: O_3  and  C_8
REMARK    4  A    between atoms: O_4  and  C_12
REMARK    5  A    between atoms: C_10  and  C_12
REMARK                            x       y       z     vdW  Elec       q    Type
REMARK                         _______ _______ _______ _____ _____    ______ ____
ROOT
ATOM      1  C   UNL     1      81.360  85.203 100.077  0.00  0.00    +0.000 C 
ATOM      2  C   UNL     1      80.036  85.313 100.838  0.00  0.00    +0.000 C 
ATOM      3  C   UNL     1      82.560  85.192 101.040  0.00  0.00    +0.000 C 
ATOM      4  C   UNL     1      79.872  84.177 101.863  0.00  0.00    +0.000 C 
ATOM      5  C   UNL     1      81.148  83.833 102.578  0.00  0.00    +0.000 C 
ATOM      6  C   UNL     1      82.359  84.288 102.223  0.00  0.00    +0.000 C 
ENDROOT
BRANCH   1   7
ATOM      7  O   UNL     1      81.334  84.003  99.302  0.00  0.00    +0.000 OA
ATOM      8  H   UNL     1      82.256  83.744  99.136  0.00  0.00    +0.000 HD
ENDBRANCH   1   7
BRANCH   2   9
ATOM      9  O   UNL     1      79.988  86.574 101.500  0.00  0.00    +0.000 OA
ATOM     10  H   UNL     1      80.031  86.407 102.457  0.00  0.00    +0.000 HD
ENDBRANCH   2   9
BRANCH   3  11
ATOM     11  O   UNL     1      83.738  84.798 100.345  0.00  0.00    +0.000 OA
ATOM     12  H   UNL     1      84.367  85.539 100.395  0.00  0.00    +0.000 HD
ENDBRANCH   3  11
BRANCH   5  14
ATOM     13  O   UNL     1      81.869  82.075 104.007  0.00  0.00    +0.000 OA
ATOM     14  C   UNL     1      81.070  82.957 103.751  0.00  0.00    +0.000 C 
BRANCH  14  15
ATOM     15  O   UNL     1      79.988  83.283 104.487  0.00  0.00    +0.000 OA
ATOM     16  H   UNL     1      80.078  82.998 105.421  0.00  0.00    +0.000 HD
ENDBRANCH  14  15
ENDBRANCH   5  14
TORSDOF 5
ENDMDL
MODEL 10
REMARK VINA RESULT:    -6.356      1.642      1.994
REMARK INTER + INTRA:          -7.521
REMARK INTER:                  -7.479
REMARK INTRA:                  -0.042
REMARK UNBOUND:                -0.050
REMARK  Name = 8742
REMARK  5 active torsions:
REMARK  status: ('A' for Active; 'I' for Inactive)
REMARK    1  A    between atoms: O_1  and  C_6
REMARK    2  A    between atoms: O_2  and  C_7
REMARK    3  A    between atoms: O_3  and  C_8
REMARK    4  A    between atoms: O_4  and  C_12
REMARK    5  A    between atoms: C_10  and  C_12
REMARK                            x       y       z     vdW  Elec       q    Type
REMARK                         _______ _______ _______ _____ _____    ______ ____
ROOT
ATOM      1  C   UNL     1      81.657  82.885 101.228  0.00  0.00    +0.000 C 
ATOM      2  C   UNL     1      80.380  83.503 100.652  0.00  0.00    +0.000 C 
ATOM      3  C   UNL     1      82.914  83.565 100.657  0.00  0.00    +0.000 C 
ATOM      4  C   UNL     1      80.315  85.019 100.909  0.00  0.00    +0.000 C 
ATOM      5  C   UNL     1      81.643  85.705 100.755  0.00  0.00    +0.000 C 
ATOM      6  C   UNL     1      82.815  85.064 100.633  0.00  0.00    +0.000 C 
ENDROOT
BRANCH   1   7
ATOM      7  O   UNL     1      81.621  83.021 102.649  0.00  0.00    +0.000 OA
ATOM      8  H   UNL     1      82.449  82.651 102.998  0.00  0.00    +0.000 HD
ENDBRANCH   1   7
BRANCH   2   9
ATOM      9  O   UNL     1      80.333  83.246  99.252  0.00  0.00    +0.000 OA
ATOM     10  H   UNL     1      79.898  84.004  98.827  0.00  0.00    +0.000 HD
ENDBRANCH   2   9
BRANCH   3  11
ATOM     11  O   UNL     1      84.059  83.183 101.412  0.00  0.00    +0.000 OA
ATOM     12  H   UNL     1      83.855  83.339 102.350  0.00  0.00    +0.000 HD
ENDBRANCH   3  11
BRANCH   5  14
ATOM     13  O   UNL     1      81.166  87.844  99.833  0.00  0.00    +0.000 OA
ATOM     14  C   UNL     1      81.665  87.171 100.716  0.00  0.00    +0.000 C 
BRANCH  14  15
ATOM     15  O   UNL     1      82.317  87.642 101.799  0.00  0.00    +0.000 OA
ATOM     16  H   UNL     1      82.633  88.561 101.668  0.00  0.00    +0.000 HD
ENDBRANCH  14  15
ENDBRANCH   5  14
TORSDOF 5
ENDMDL
