MODEL 1
REMARK VINA RESULT:      -8.9      0.000      0.000
REMARK  6 active torsions:
REMARK  status: ('A' for Active; 'I' for Inactive)
REMARK    1  A    between atoms: O_2  and  C_12 
REMARK    2  A    between atoms: O_3  and  C_14 
REMARK    3  A    between atoms: O_5  and  C_16 
REMARK    4  A    between atoms: O_6  and  C_20 
REMARK    5  A    between atoms: O_7  and  C_22 
REMARK    6  A    between atoms: C_10  and  C_11 
ROOT
HETATM    1  O   UNK     0     185.981 176.740 177.992  0.00  0.00    -0.306 OA
HETATM    2  O   UNK     0     184.740 177.777 181.733  0.00  0.00    -0.284 OA
HETATM    3  C   UNK     0     184.306 177.770 179.414  0.00  0.00     0.084 A 
HETATM    4  C   UNK     0     184.787 177.390 178.163  0.00  0.00     0.096 A 
HETATM    5  C   UNK     0     186.736 176.437 179.114  0.00  0.00     0.123 A 
HETATM    6  C   UNK     0     186.390 176.755 180.375  0.00  0.00     0.152 A 
HETATM    7  C   UNK     0     185.108 177.463 180.608  0.00  0.00     0.223 A 
HETATM    8  C   UNK     0     183.081 178.433 179.527  0.00  0.00     0.085 A 
HETATM    9  C   UNK     0     184.045 177.673 177.015  0.00  0.00     0.075 A 
HETATM   10  C   UNK     0     182.821 178.334 177.125  0.00  0.00     0.071 A 
HETATM   11  C   UNK     0     182.341 178.713 178.379  0.00  0.00     0.074 A 
ENDROOT
BRANCH   5  12
HETATM   12  C   UNK     0     187.993 175.739 178.791  0.00  0.00     0.004 A 
HETATM   13  C   UNK     0     188.124 174.377 179.059  0.00  0.00     0.053 A 
HETATM   14  C   UNK     0     189.314 173.717 178.752  0.00  0.00     0.099 A 
HETATM   15  C   UNK     0     190.373 174.420 178.177  0.00  0.00     0.098 A 
HETATM   16  C   UNK     0     190.242 175.782 177.908  0.00  0.00     0.040 A 
HETATM   17  C   UNK     0     189.052 176.442 178.215  0.00  0.00     0.017 A 
BRANCH  14  18
HETATM   18  O   UNK     0     189.432 172.387 179.020  0.00  0.00    -0.358 OA
HETATM   19  H   UNK     0     188.809 172.137 179.721  0.00  0.00     0.217 HD
ENDBRANCH  14  18
BRANCH  15  20
HETATM   20  O   UNK     0     191.540 173.786 177.871  0.00  0.00    -0.358 OA
HETATM   21  H   UNK     0     192.085 173.699 178.668  0.00  0.00     0.217 HD
ENDBRANCH  15  20
ENDBRANCH   5  12
BRANCH   6  22
HETATM   22  O   UNK     0     187.179 176.468 181.468  0.00  0.00    -0.355 OA
HETATM   23  H   UNK     0     187.708 177.246 181.707  0.00  0.00     0.218 HD
ENDBRANCH   6  22
BRANCH   8  24
HETATM   24  O   UNK     0     182.566 178.825 180.726  0.00  0.00    -0.360 OA
HETATM   25  H   UNK     0     182.506 178.073 181.334  0.00  0.00     0.217 HD
ENDBRANCH   8  24
BRANCH  10  26
HETATM   26  O   UNK     0     182.096 178.609 176.006  0.00  0.00    -0.361 OA
HETATM   27  H   UNK     0     182.189 177.869 175.381  0.00  0.00     0.217 HD
ENDBRANCH  10  26
TORSDOF 6
ENDMDL
MODEL 2
REMARK VINA RESULT:      -8.7      1.800      6.937
REMARK  6 active torsions:
REMARK  status: ('A' for Active; 'I' for Inactive)
REMARK    1  A    between atoms: O_2  and  C_12 
REMARK    2  A    between atoms: O_3  and  C_14 
REMARK    3  A    between atoms: O_5  and  C_16 
REMARK    4  A    between atoms: O_6  and  C_20 
REMARK    5  A    between atoms: O_7  and  C_22 
REMARK    6  A    between atoms: C_10  and  C_11 
ROOT
HETATM    1  O   UNK     0     185.939 175.681 178.615  0.00  0.00    -0.306 OA
HETATM    2  O   UNK     0     188.778 178.592 178.877  0.00  0.00    -0.284 OA
HETATM    3  C   UNK     0     188.278 176.287 178.838  0.00  0.00     0.084 A 
HETATM    4  C   UNK     0     187.260 175.341 178.745  0.00  0.00     0.096 A 
HETATM    5  C   UNK     0     185.603 177.025 178.562  0.00  0.00     0.123 A 
HETATM    6  C   UNK     0     186.487 178.035 178.649  0.00  0.00     0.152 A 
HETATM    7  C   UNK     0     187.928 177.715 178.795  0.00  0.00     0.223 A 
HETATM    8  C   UNK     0     189.608 175.881 178.970  0.00  0.00     0.085 A 
HETATM    9  C   UNK     0     187.566 173.980 178.786  0.00  0.00     0.075 A 
HETATM   10  C   UNK     0     188.894 173.572 178.917  0.00  0.00     0.071 A 
HETATM   11  C   UNK     0     189.912 174.521 179.009  0.00  0.00     0.074 A 
ENDROOT
BRANCH   5  12
HETATM   12  C   UNK     0     184.154 177.251 178.421  0.00  0.00     0.004 A 
HETATM   13  C   UNK     0     183.657 177.925 177.306  0.00  0.00     0.053 A 
HETATM   14  C   UNK     0     182.285 178.139 177.173  0.00  0.00     0.099 A 
HETATM   15  C   UNK     0     181.410 177.678 178.157  0.00  0.00     0.098 A 
HETATM   16  C   UNK     0     181.906 177.003 179.272  0.00  0.00     0.040 A 
HETATM   17  C   UNK     0     183.278 176.789 179.405  0.00  0.00     0.017 A 
BRANCH  14  18
HETATM   18  O   UNK     0     181.812 178.800 176.081  0.00  0.00    -0.358 OA
HETATM   19  H   UNK     0     182.420 178.677 175.334  0.00  0.00     0.217 HD
ENDBRANCH  14  18
BRANCH  15  20
HETATM   20  O   UNK     0     180.067 177.879 178.037  0.00  0.00    -0.358 OA
HETATM   21  H   UNK     0     179.667 177.947 178.918  0.00  0.00     0.217 HD
ENDBRANCH  15  20
ENDBRANCH   5  12
BRANCH   6  22
HETATM   22  O   UNK     0     186.118 179.363 178.625  0.00  0.00    -0.355 OA
HETATM   23  H   UNK     0     186.504 179.827 179.386  0.00  0.00     0.218 HD
ENDBRANCH   6  22
BRANCH   8  24
HETATM   24  O   UNK     0     190.640 176.766 179.065  0.00  0.00    -0.360 OA
HETATM   25  H   UNK     0     190.306 177.667 179.192  0.00  0.00     0.217 HD
ENDBRANCH   8  24
BRANCH  10  26
HETATM   26  O   UNK     0     189.194 172.244 178.956  0.00  0.00    -0.361 OA
HETATM   27  H   UNK     0     189.582 171.983 178.103  0.00  0.00     0.217 HD
ENDBRANCH  10  26
TORSDOF 6
ENDMDL
MODEL 3
REMARK VINA RESULT:      -8.6      2.018      7.188
REMARK  6 active torsions:
REMARK  status: ('A' for Active; 'I' for Inactive)
REMARK    1  A    between atoms: O_2  and  C_12 
REMARK    2  A    between atoms: O_3  and  C_14 
REMARK    3  A    between atoms: O_5  and  C_16 
REMARK    4  A    between atoms: O_6  and  C_20 
REMARK    5  A    between atoms: O_7  and  C_22 
REMARK    6  A    between atoms: C_10  and  C_11 
ROOT
HETATM    1  O   UNK     0     187.772 176.931 179.584  0.00  0.00    -0.306 OA
HETATM    2  O   UNK     0     188.950 173.682 177.424  0.00  0.00    -0.284 OA
HETATM    3  C   UNK     0     189.565 175.496 178.800  0.00  0.00     0.084 A 
HETATM    4  C   UNK     0     189.098 176.594 179.520  0.00  0.00     0.096 A 
HETATM    5  C   UNK     0     186.854 176.136 178.914  0.00  0.00     0.123 A 
HETATM    6  C   UNK     0     187.174 175.056 178.179  0.00  0.00     0.152 A 
HETATM    7  C   UNK     0     188.599 174.656 178.077  0.00  0.00     0.223 A 
HETATM    8  C   UNK     0     190.931 175.202 178.770  0.00  0.00     0.085 A 
HETATM    9  C   UNK     0     189.996 177.408 180.212  0.00  0.00     0.075 A 
HETATM   10  C   UNK     0     191.360 177.117 180.184  0.00  0.00     0.071 A 
HETATM   11  C   UNK     0     191.826 176.016 179.463  0.00  0.00     0.074 A 
ENDROOT
BRANCH   5  12
HETATM   12  C   UNK     0     185.466 176.608 179.065  0.00  0.00     0.004 A 
HETATM   13  C   UNK     0     185.138 177.925 178.746  0.00  0.00     0.053 A 
HETATM   14  C   UNK     0     183.824 178.371 178.889  0.00  0.00     0.099 A 
HETATM   15  C   UNK     0     182.838 177.498 179.351  0.00  0.00     0.098 A 
HETATM   16  C   UNK     0     183.166 176.181 179.670  0.00  0.00     0.040 A 
HETATM   17  C   UNK     0     184.480 175.735 179.527  0.00  0.00     0.017 A 
BRANCH  14  18
HETATM   18  O   UNK     0     183.514 179.660 178.576  0.00  0.00    -0.358 OA
HETATM   19  H   UNK     0     184.010 180.265 179.152  0.00  0.00     0.217 HD
ENDBRANCH  14  18
BRANCH  15  20
HETATM   20  O   UNK     0     181.550 177.921 179.493  0.00  0.00    -0.358 OA
HETATM   21  H   UNK     0     181.533 178.885 179.608  0.00  0.00     0.217 HD
ENDBRANCH  15  20
ENDBRANCH   5  12
BRANCH   6  22
HETATM   22  O   UNK     0     186.240 174.305 177.498  0.00  0.00    -0.355 OA
HETATM   23  H   UNK     0     186.610 173.432 177.285  0.00  0.00     0.218 HD
ENDBRANCH   6  22
BRANCH   8  24
HETATM   24  O   UNK     0     191.439 174.141 178.082  0.00  0.00    -0.360 OA
HETATM   25  H   UNK     0     192.399 174.229 177.981  0.00  0.00     0.217 HD
ENDBRANCH   8  24
BRANCH  10  26
HETATM   26  O   UNK     0     192.237 177.909 180.860  0.00  0.00    -0.361 OA
HETATM   27  H   UNK     0     192.235 177.652 181.798  0.00  0.00     0.217 HD
ENDBRANCH  10  26
TORSDOF 6
ENDMDL
MODEL 4
REMARK VINA RESULT:      -8.5      2.057      6.831
REMARK  6 active torsions:
REMARK  status: ('A' for Active; 'I' for Inactive)
REMARK    1  A    between atoms: O_2  and  C_12 
REMARK    2  A    between atoms: O_3  and  C_14 
REMARK    3  A    between atoms: O_5  and  C_16 
REMARK    4  A    between atoms: O_6  and  C_20 
REMARK    5  A    between atoms: O_7  and  C_22 
REMARK    6  A    between atoms: C_10  and  C_11 
ROOT
HETATM    1  O   UNK     0     187.737 176.236 179.032  0.00  0.00    -0.306 OA
HETATM    2  O   UNK     0     189.758 178.426 181.811  0.00  0.00    -0.284 OA
HETATM    3  C   UNK     0     189.812 176.704 180.201  0.00  0.00     0.084 A 
HETATM    4  C   UNK     0     189.065 175.990 179.265  0.00  0.00     0.096 A 
HETATM    5  C   UNK     0     187.115 177.247 179.747  0.00  0.00     0.123 A 
HETATM    6  C   UNK     0     187.720 178.003 180.683  0.00  0.00     0.152 A 
HETATM    7  C   UNK     0     189.155 177.769 180.973  0.00  0.00     0.223 A 
HETATM    8  C   UNK     0     191.163 176.408 180.397  0.00  0.00     0.085 A 
HETATM    9  C   UNK     0     189.665 174.973 178.522  0.00  0.00     0.075 A 
HETATM   10  C   UNK     0     191.014 174.676 178.716  0.00  0.00     0.071 A 
HETATM   11  C   UNK     0     191.761 175.391 179.652  0.00  0.00     0.074 A 
ENDROOT
BRANCH   5  12
HETATM   12  C   UNK     0     185.692 177.407 179.400  0.00  0.00     0.004 A 
HETATM   13  C   UNK     0     185.329 177.823 178.119  0.00  0.00     0.053 A 
HETATM   14  C   UNK     0     183.981 177.974 177.790  0.00  0.00     0.099 A 
HETATM   15  C   UNK     0     182.997 177.708 178.743  0.00  0.00     0.098 A 
HETATM   16  C   UNK     0     183.360 177.291 180.023  0.00  0.00     0.040 A 
HETATM   17  C   UNK     0     184.708 177.140 180.352  0.00  0.00     0.017 A 
BRANCH  14  18
HETATM   18  O   UNK     0     183.638 178.383 176.538  0.00  0.00    -0.358 OA
HETATM   19  H   UNK     0     182.672 178.371 176.442  0.00  0.00     0.217 HD
ENDBRANCH  14  18
BRANCH  15  20
HETATM   20  O   UNK     0     181.678 177.849 178.433  0.00  0.00    -0.358 OA
HETATM   21  H   UNK     0     181.443 177.240 177.715  0.00  0.00     0.217 HD
ENDBRANCH  15  20
ENDBRANCH   5  12
BRANCH   6  22
HETATM   22  O   UNK     0     187.064 178.979 181.401  0.00  0.00    -0.355 OA
HETATM   23  H   UNK     0     186.320 178.588 181.887  0.00  0.00     0.218 HD
ENDBRANCH   6  22
BRANCH   8  24
HETATM   24  O   UNK     0     191.938 177.075 181.298  0.00  0.00    -0.360 OA
HETATM   25  H   UNK     0     192.877 176.910 181.127  0.00  0.00     0.217 HD
ENDBRANCH   8  24
BRANCH  10  26
HETATM   26  O   UNK     0     191.601 173.684 177.991  0.00  0.00    -0.361 OA
HETATM   27  H   UNK     0     191.937 174.059 177.158  0.00  0.00     0.217 HD
ENDBRANCH  10  26
TORSDOF 6
ENDMDL
MODEL 5
REMARK VINA RESULT:      -8.0      2.035      6.734
REMARK  6 active torsions:
REMARK  status: ('A' for Active; 'I' for Inactive)
REMARK    1  A    between atoms: O_2  and  C_12 
REMARK    2  A    between atoms: O_3  and  C_14 
REMARK    3  A    between atoms: O_5  and  C_16 
REMARK    4  A    between atoms: O_6  and  C_20 
REMARK    5  A    between atoms: O_7  and  C_22 
REMARK    6  A    between atoms: C_10  and  C_11 
ROOT
HETATM    1  O   UNK     0     186.180 175.706 179.141  0.00  0.00    -0.306 OA
HETATM    2  O   UNK     0     188.141 179.081 177.972  0.00  0.00    -0.284 OA
HETATM    3  C   UNK     0     188.193 176.742 178.266  0.00  0.00     0.084 A 
HETATM    4  C   UNK     0     187.469 175.626 178.681  0.00  0.00     0.096 A 
HETATM    5  C   UNK     0     185.567 176.948 179.181  0.00  0.00     0.123 A 
HETATM    6  C   UNK     0     186.158 178.102 178.818  0.00  0.00     0.152 A 
HETATM    7  C   UNK     0     187.554 178.065 178.319  0.00  0.00     0.223 A 
HETATM    8  C   UNK     0     189.505 176.600 177.807  0.00  0.00     0.085 A 
HETATM    9  C   UNK     0     188.054 174.360 178.643  0.00  0.00     0.075 A 
HETATM   10  C   UNK     0     189.364 174.215 178.185  0.00  0.00     0.071 A 
HETATM   11  C   UNK     0     190.088 175.333 177.769  0.00  0.00     0.074 A 
ENDROOT
BRANCH   5  12
HETATM   12  C   UNK     0     184.187 176.893 179.694  0.00  0.00     0.004 A 
HETATM   13  C   UNK     0     183.946 176.502 181.011  0.00  0.00     0.053 A 
HETATM   14  C   UNK     0     182.640 176.450 181.496  0.00  0.00     0.099 A 
HETATM   15  C   UNK     0     181.573 176.789 180.662  0.00  0.00     0.098 A 
HETATM   16  C   UNK     0     181.813 177.181 179.346  0.00  0.00     0.040 A 
HETATM   17  C   UNK     0     183.120 177.233 178.861  0.00  0.00     0.017 A 
BRANCH  14  18
HETATM   18  O   UNK     0     182.416 176.065 182.783  0.00  0.00    -0.358 OA
HETATM   19  H   UNK     0     182.984 176.576 183.382  0.00  0.00     0.217 HD
ENDBRANCH  14  18
BRANCH  15  20
HETATM   20  O   UNK     0     180.292 176.745 181.125  0.00  0.00    -0.358 OA
HETATM   21  H   UNK     0     180.216 177.281 181.930  0.00  0.00     0.217 HD
ENDBRANCH  15  20
ENDBRANCH   5  12
BRANCH   6  22
HETATM   22  O   UNK     0     185.532 179.327 178.901  0.00  0.00    -0.355 OA
HETATM   23  H   UNK     0     185.734 179.743 179.755  0.00  0.00     0.218 HD
ENDBRANCH   6  22
BRANCH   8  24
HETATM   24  O   UNK     0     190.256 177.657 177.390  0.00  0.00    -0.360 OA
HETATM   25  H   UNK     0     189.782 178.165 176.714  0.00  0.00     0.217 HD
ENDBRANCH   8  24
BRANCH  10  26
HETATM   26  O   UNK     0     189.937 172.980 178.146  0.00  0.00    -0.361 OA
HETATM   27  H   UNK     0     189.503 172.454 177.452  0.00  0.00     0.217 HD
ENDBRANCH  10  26
TORSDOF 6
ENDMDL
MODEL 6
REMARK VINA RESULT:      -7.9      1.906      6.558
REMARK  6 active torsions:
REMARK  status: ('A' for Active; 'I' for Inactive)
REMARK    1  A    between atoms: O_2  and  C_12 
REMARK    2  A    between atoms: O_3  and  C_14 
REMARK    3  A    between atoms: O_5  and  C_16 
REMARK    4  A    between atoms: O_6  and  C_20 
REMARK    5  A    between atoms: O_7  and  C_22 
REMARK    6  A    between atoms: C_10  and  C_11 
ROOT
HETATM    1  O   UNK     0     186.118 177.167 178.590  0.00  0.00    -0.306 OA
HETATM    2  O   UNK     0     186.892 178.198 182.456  0.00  0.00    -0.284 OA
HETATM    3  C   UNK     0     187.742 177.563 180.349  0.00  0.00     0.084 A 
HETATM    4  C   UNK     0     187.411 177.217 179.040  0.00  0.00     0.096 A 
HETATM    5  C   UNK     0     185.097 177.488 179.471  0.00  0.00     0.123 A 
HETATM    6  C   UNK     0     185.281 177.830 180.760  0.00  0.00     0.152 A 
HETATM    7  C   UNK     0     186.663 177.892 181.293  0.00  0.00     0.223 A 
HETATM    8  C   UNK     0     189.079 177.596 180.753  0.00  0.00     0.085 A 
HETATM    9  C   UNK     0     188.417 176.899 178.127  0.00  0.00     0.075 A 
HETATM   10  C   UNK     0     189.753 176.931 178.527  0.00  0.00     0.071 A 
HETATM   11  C   UNK     0     190.083 177.279 179.837  0.00  0.00     0.074 A 
ENDROOT
BRANCH   5  12
HETATM   12  C   UNK     0     183.759 177.395 178.860  0.00  0.00     0.004 A 
HETATM   13  C   UNK     0     183.447 178.168 177.742  0.00  0.00     0.053 A 
HETATM   14  C   UNK     0     182.181 178.080 177.164  0.00  0.00     0.099 A 
HETATM   15  C   UNK     0     181.226 177.218 177.705  0.00  0.00     0.098 A 
HETATM   16  C   UNK     0     181.538 176.444 178.822  0.00  0.00     0.040 A 
HETATM   17  C   UNK     0     182.805 176.533 179.400  0.00  0.00     0.017 A 
BRANCH  14  18
HETATM   18  O   UNK     0     181.887 178.841 176.073  0.00  0.00    -0.358 OA
HETATM   19  H   UNK     0     181.531 179.698 176.358  0.00  0.00     0.217 HD
ENDBRANCH  14  18
BRANCH  15  20
HETATM   20  O   UNK     0     179.987 177.121 177.147  0.00  0.00    -0.358 OA
HETATM   21  H   UNK     0     179.315 177.090 177.846  0.00  0.00     0.217 HD
ENDBRANCH  15  20
ENDBRANCH   5  12
BRANCH   6  22
HETATM   22  O   UNK     0     184.241 178.111 181.620  0.00  0.00    -0.355 OA
HETATM   23  H   UNK     0     184.519 177.951 182.536  0.00  0.00     0.218 HD
ENDBRANCH   6  22
BRANCH   8  24
HETATM   24  O   UNK     0     189.457 177.928 182.020  0.00  0.00    -0.360 OA
HETATM   25  H   UNK     0     190.311 178.385 182.011  0.00  0.00     0.217 HD
ENDBRANCH   8  24
BRANCH  10  26
HETATM   26  O   UNK     0     190.735 176.622 177.637  0.00  0.00    -0.361 OA
HETATM   27  H   UNK     0     190.398 175.954 177.015  0.00  0.00     0.217 HD
ENDBRANCH  10  26
TORSDOF 6
ENDMDL
MODEL 7
REMARK VINA RESULT:      -7.9     38.158     43.162
REMARK  6 active torsions:
REMARK  status: ('A' for Active; 'I' for Inactive)
REMARK    1  A    between atoms: O_2  and  C_12 
REMARK    2  A    between atoms: O_3  and  C_14 
REMARK    3  A    between atoms: O_5  and  C_16 
REMARK    4  A    between atoms: O_6  and  C_20 
REMARK    5  A    between atoms: O_7  and  C_22 
REMARK    6  A    between atoms: C_10  and  C_11 
ROOT
HETATM    1  O   UNK     0     152.409 188.738 157.175  0.00  0.00    -0.306 OA
HETATM    2  O   UNK     0     155.223 188.779 154.228  0.00  0.00    -0.284 OA
HETATM    3  C   UNK     0     154.657 188.194 156.442  0.00  0.00     0.084 A 
HETATM    4  C   UNK     0     153.652 188.212 157.407  0.00  0.00     0.096 A 
HETATM    5  C   UNK     0     152.136 189.264 155.921  0.00  0.00     0.123 A 
HETATM    6  C   UNK     0     153.019 189.315 154.907  0.00  0.00     0.152 A 
HETATM    7  C   UNK     0     154.379 188.762 155.114  0.00  0.00     0.223 A 
HETATM    8  C   UNK     0     155.908 187.644 156.736  0.00  0.00     0.085 A 
HETATM    9  C   UNK     0     153.893 187.682 158.675  0.00  0.00     0.075 A 
HETATM   10  C   UNK     0     155.140 187.132 158.972  0.00  0.00     0.071 A 
HETATM   11  C   UNK     0     156.145 187.114 158.004  0.00  0.00     0.074 A 
ENDROOT
BRANCH   5  12
HETATM   12  C   UNK     0     150.766 189.795 155.806  0.00  0.00     0.004 A 
HETATM   13  C   UNK     0     149.723 188.957 155.411  0.00  0.00     0.053 A 
HETATM   14  C   UNK     0     148.427 189.460 155.302  0.00  0.00     0.099 A 
HETATM   15  C   UNK     0     148.174 190.802 155.588  0.00  0.00     0.098 A 
HETATM   16  C   UNK     0     149.216 191.640 155.983  0.00  0.00     0.040 A 
HETATM   17  C   UNK     0     150.513 191.137 156.092  0.00  0.00     0.017 A 
BRANCH  14  18
HETATM   18  O   UNK     0     147.417 188.633 154.914  0.00  0.00    -0.358 OA
HETATM   19  H   UNK     0     146.883 188.382 155.686  0.00  0.00     0.217 HD
ENDBRANCH  14  18
BRANCH  15  20
HETATM   20  O   UNK     0     146.911 191.305 155.487  0.00  0.00    -0.358 OA
HETATM   21  H   UNK     0     146.401 191.070 156.279  0.00  0.00     0.217 HD
ENDBRANCH  15  20
ENDBRANCH   5  12
BRANCH   6  22
HETATM   22  O   UNK     0     152.726 189.874 153.682  0.00  0.00    -0.355 OA
HETATM   23  H   UNK     0     152.609 189.174 153.019  0.00  0.00     0.218 HD
ENDBRANCH   6  22
BRANCH   8  24
HETATM   24  O   UNK     0     156.924 187.602 155.829  0.00  0.00    -0.360 OA
HETATM   25  H   UNK     0     156.829 186.832 155.248  0.00  0.00     0.217 HD
ENDBRANCH   8  24
BRANCH  10  26
HETATM   26  O   UNK     0     155.376 186.614 160.209  0.00  0.00    -0.361 OA
HETATM   27  H   UNK     0     156.331 186.455 160.307  0.00  0.00     0.217 HD
ENDBRANCH  10  26
TORSDOF 6
ENDMDL
MODEL 8
REMARK VINA RESULT:      -7.9     39.968     43.185
REMARK  6 active torsions:
REMARK  status: ('A' for Active; 'I' for Inactive)
REMARK    1  A    between atoms: O_2  and  C_12 
REMARK    2  A    between atoms: O_3  and  C_14 
REMARK    3  A    between atoms: O_5  and  C_16 
REMARK    4  A    between atoms: O_6  and  C_20 
REMARK    5  A    between atoms: O_7  and  C_22 
REMARK    6  A    between atoms: C_10  and  C_11 
ROOT
HETATM    1  O   UNK     0     154.363 175.422 151.044  0.00  0.00    -0.306 OA
HETATM    2  O   UNK     0     156.743 173.121 148.668  0.00  0.00    -0.284 OA
HETATM    3  C   UNK     0     156.518 175.063 149.987  0.00  0.00     0.084 A 
HETATM    4  C   UNK     0     155.654 175.805 150.789  0.00  0.00     0.096 A 
HETATM    5  C   UNK     0     153.903 174.237 150.490  0.00  0.00     0.123 A 
HETATM    6  C   UNK     0     154.632 173.435 149.692  0.00  0.00     0.152 A 
HETATM    7  C   UNK     0     156.032 173.812 149.385  0.00  0.00     0.223 A 
HETATM    8  C   UNK     0     157.824 175.505 149.762  0.00  0.00     0.085 A 
HETATM    9  C   UNK     0     156.090 176.997 151.370  0.00  0.00     0.075 A 
HETATM   10  C   UNK     0     157.394 177.440 151.146  0.00  0.00     0.071 A 
HETATM   11  C   UNK     0     158.259 176.695 150.344  0.00  0.00     0.074 A 
ENDROOT
BRANCH   5  12
HETATM   12  C   UNK     0     152.503 173.943 150.842  0.00  0.00     0.004 A 
HETATM   13  C   UNK     0     152.212 173.194 151.982  0.00  0.00     0.053 A 
HETATM   14  C   UNK     0     150.887 172.916 152.315  0.00  0.00     0.099 A 
HETATM   15  C   UNK     0     149.851 173.387 151.508  0.00  0.00     0.098 A 
HETATM   16  C   UNK     0     150.141 174.137 150.368  0.00  0.00     0.040 A 
HETATM   17  C   UNK     0     151.467 174.416 150.035  0.00  0.00     0.017 A 
BRANCH  14  18
HETATM   18  O   UNK     0     150.615 172.181 153.429  0.00  0.00    -0.358 OA
HETATM   19  H   UNK     0     151.348 172.259 154.061  0.00  0.00     0.217 HD
ENDBRANCH  14  18
BRANCH  15  20
HETATM   20  O   UNK     0     148.552 173.124 151.824  0.00  0.00    -0.358 OA
HETATM   21  H   UNK     0     148.292 172.265 151.455  0.00  0.00     0.217 HD
ENDBRANCH  15  20
ENDBRANCH   5  12
BRANCH   6  22
HETATM   22  O   UNK     0     154.134 172.279 149.130  0.00  0.00    -0.355 OA
HETATM   23  H   UNK     0     154.560 171.506 149.533  0.00  0.00     0.218 HD
ENDBRANCH   6  22
BRANCH   8  24
HETATM   24  O   UNK     0     158.709 174.817 148.986  0.00  0.00    -0.360 OA
HETATM   25  H   UNK     0     158.687 173.872 149.202  0.00  0.00     0.217 HD
ENDBRANCH   8  24
BRANCH  10  26
HETATM   26  O   UNK     0     157.822 178.602 151.713  0.00  0.00    -0.361 OA
HETATM   27  H   UNK     0     157.487 179.350 151.188  0.00  0.00     0.217 HD
ENDBRANCH  10  26
TORSDOF 6
ENDMDL
MODEL 9
REMARK VINA RESULT:      -7.8     40.727     41.593
REMARK  6 active torsions:
REMARK  status: ('A' for Active; 'I' for Inactive)
REMARK    1  A    between atoms: O_2  and  C_12 
REMARK    2  A    between atoms: O_3  and  C_14 
REMARK    3  A    between atoms: O_5  and  C_16 
REMARK    4  A    between atoms: O_6  and  C_20 
REMARK    5  A    between atoms: O_7  and  C_22 
REMARK    6  A    between atoms: C_10  and  C_11 
ROOT
HETATM    1  O   UNK     0     148.475 177.024 162.649  0.00  0.00    -0.306 OA
HETATM    2  O   UNK     0     148.097 181.081 162.617  0.00  0.00    -0.284 OA
HETATM    3  C   UNK     0     147.911 179.067 163.830  0.00  0.00     0.084 A 
HETATM    4  C   UNK     0     148.059 177.683 163.776  0.00  0.00     0.096 A 
HETATM    5  C   UNK     0     148.774 177.769 161.519  0.00  0.00     0.123 A 
HETATM    6  C   UNK     0     148.665 179.108 161.437  0.00  0.00     0.152 A 
HETATM    7  C   UNK     0     148.213 179.863 162.631  0.00  0.00     0.223 A 
HETATM    8  C   UNK     0     147.481 179.685 165.008  0.00  0.00     0.085 A 
HETATM    9  C   UNK     0     147.775 176.906 164.900  0.00  0.00     0.075 A 
HETATM   10  C   UNK     0     147.346 177.520 166.077  0.00  0.00     0.071 A 
HETATM   11  C   UNK     0     147.199 178.906 166.130  0.00  0.00     0.074 A 
ENDROOT
BRANCH   5  12
HETATM   12  C   UNK     0     149.209 176.939 160.381  0.00  0.00     0.004 A 
HETATM   13  C   UNK     0     148.284 176.146 159.702  0.00  0.00     0.053 A 
HETATM   14  C   UNK     0     148.696 175.361 158.625  0.00  0.00     0.099 A 
HETATM   15  C   UNK     0     150.034 175.370 158.227  0.00  0.00     0.098 A 
HETATM   16  C   UNK     0     150.958 176.164 158.905  0.00  0.00     0.040 A 
HETATM   17  C   UNK     0     150.546 176.949 159.983  0.00  0.00     0.017 A 
BRANCH  14  18
HETATM   18  O   UNK     0     147.785 174.589 157.971  0.00  0.00    -0.358 OA
HETATM   19  H   UNK     0     147.220 174.131 158.614  0.00  0.00     0.217 HD
ENDBRANCH  14  18
BRANCH  15  20
HETATM   20  O   UNK     0     150.448 174.610 157.175  0.00  0.00    -0.358 OA
HETATM   21  H   UNK     0     151.417 174.609 157.132  0.00  0.00     0.217 HD
ENDBRANCH  15  20
ENDBRANCH   5  12
BRANCH   6  22
HETATM   22  O   UNK     0     148.939 179.816 160.288  0.00  0.00    -0.355 OA
HETATM   23  H   UNK     0     148.926 180.769 160.476  0.00  0.00     0.218 HD
ENDBRANCH   6  22
BRANCH   8  24
HETATM   24  O   UNK     0     147.320 181.034 165.113  0.00  0.00    -0.360 OA
HETATM   25  H   UNK     0     147.279 181.441 164.235  0.00  0.00     0.217 HD
ENDBRANCH   8  24
BRANCH  10  26
HETATM   26  O   UNK     0     147.069 176.763 167.175  0.00  0.00    -0.361 OA
HETATM   27  H   UNK     0     146.924 177.353 167.935  0.00  0.00     0.217 HD
ENDBRANCH  10  26
TORSDOF 6
ENDMDL
