MODEL 1
REMARK VINA RESULT:      -8.7      0.000      0.000
REMARK  5 active torsions:
REMARK  status: ('A' for Active; 'I' for Inactive)
REMARK    1  A    between atoms: O_2  and  C_13 
REMARK    2  A    between atoms: O_4  and  C_16 
REMARK    3  A    between atoms: O_5  and  C_19 
REMARK    4  A    between atoms: O_6  and  C_21 
REMARK    5  A    between atoms: C_9  and  C_10 
ROOT
HETATM    1  O   UNK     0       4.483  44.015  22.803  0.00  0.00    -0.309 OA
HETATM    2  O   UNK     0       1.926  41.494  20.879  0.00  0.00    -0.287 OA
HETATM    3  C   UNK     0       2.919  42.159  22.917  0.00  0.00     0.081 A 
HETATM    4  C   UNK     0       3.807  43.054  23.512  0.00  0.00     0.095 A 
HETATM    5  C   UNK     0       4.279  44.092  21.434  0.00  0.00     0.090 A 
HETATM    6  C   UNK     0       2.693  42.244  21.466  0.00  0.00     0.190 A 
HETATM    7  C   UNK     0       3.446  43.293  20.748  0.00  0.00     0.094 A 
HETATM    8  C   UNK     0       2.259  41.202  23.689  0.00  0.00     0.085 A 
HETATM    9  C   UNK     0       4.039  42.996  24.886  0.00  0.00     0.075 A 
HETATM   10  C   UNK     0       3.380  42.041  25.661  0.00  0.00     0.071 A 
HETATM   11  C   UNK     0       2.493  41.146  25.064  0.00  0.00     0.074 A 
ENDROOT
BRANCH   5  12
HETATM   12  C   UNK     0       5.050  45.162  20.771  0.00  0.00     0.001 A 
HETATM   13  C   UNK     0       6.160  44.845  19.985  0.00  0.00     0.053 A 
HETATM   14  C   UNK     0       6.888  45.856  19.359  0.00  0.00     0.099 A 
HETATM   15  C   UNK     0       6.509  47.189  19.517  0.00  0.00     0.098 A 
HETATM   16  C   UNK     0       5.402  47.511  20.302  0.00  0.00     0.040 A 
HETATM   17  C   UNK     0       4.673  46.499  20.928  0.00  0.00     0.017 A 
BRANCH  14  18
HETATM   18  O   UNK     0       7.968  45.530  18.595  0.00  0.00    -0.358 OA
HETATM   19  H   UNK     0       7.734  45.666  17.661  0.00  0.00     0.217 HD
ENDBRANCH  14  18
BRANCH  15  20
HETATM   20  O   UNK     0       7.211  48.186  18.910  0.00  0.00    -0.358 OA
HETATM   21  H   UNK     0       8.158  48.060  19.090  0.00  0.00     0.217 HD
ENDBRANCH  15  20
ENDBRANCH   5  12
BRANCH   8  22
HETATM   22  O   UNK     0       1.382  40.306  23.155  0.00  0.00    -0.360 OA
HETATM   23  H   UNK     0       0.503  40.414  23.550  0.00  0.00     0.217 HD
ENDBRANCH   8  22
BRANCH  10  24
HETATM   24  O   UNK     0       3.605  41.982  27.003  0.00  0.00    -0.361 OA
HETATM   25  H   UNK     0       3.072  42.667  27.442  0.00  0.00     0.217 HD
ENDBRANCH  10  24
TORSDOF 5
ENDMDL
MODEL 2
REMARK VINA RESULT:      -8.5      1.182      2.701
REMARK  5 active torsions:
REMARK  status: ('A' for Active; 'I' for Inactive)
REMARK    1  A    between atoms: O_2  and  C_13 
REMARK    2  A    between atoms: O_4  and  C_16 
REMARK    3  A    between atoms: O_5  and  C_19 
REMARK    4  A    between atoms: O_6  and  C_21 
REMARK    5  A    between atoms: C_9  and  C_10 
ROOT
HETATM    1  O   UNK     0       4.220  43.448  21.794  0.00  0.00    -0.309 OA
HETATM    2  O   UNK     0       4.313  43.775  25.854  0.00  0.00    -0.287 OA
HETATM    3  C   UNK     0       3.588  42.557  23.964  0.00  0.00     0.081 A 
HETATM    4  C   UNK     0       3.595  42.505  22.572  0.00  0.00     0.095 A 
HETATM    5  C   UNK     0       4.864  44.502  22.424  0.00  0.00     0.090 A 
HETATM    6  C   UNK     0       4.278  43.669  24.637  0.00  0.00     0.190 A 
HETATM    7  C   UNK     0       4.932  44.658  23.756  0.00  0.00     0.094 A 
HETATM    8  C   UNK     0       2.936  41.568  24.704  0.00  0.00     0.085 A 
HETATM    9  C   UNK     0       2.950  41.461  21.909  0.00  0.00     0.075 A 
HETATM   10  C   UNK     0       2.298  40.471  22.645  0.00  0.00     0.071 A 
HETATM   11  C   UNK     0       2.291  40.525  24.039  0.00  0.00     0.074 A 
ENDROOT
BRANCH   5  12
HETATM   12  C   UNK     0       5.506  45.454  21.497  0.00  0.00     0.001 A 
HETATM   13  C   UNK     0       6.873  45.358  21.228  0.00  0.00     0.053 A 
HETATM   14  C   UNK     0       7.480  46.258  20.351  0.00  0.00     0.099 A 
HETATM   15  C   UNK     0       6.720  47.256  19.740  0.00  0.00     0.098 A 
HETATM   16  C   UNK     0       5.355  47.355  20.006  0.00  0.00     0.040 A 
HETATM   17  C   UNK     0       4.749  46.455  20.883  0.00  0.00     0.017 A 
BRANCH  14  18
HETATM   18  O   UNK     0       8.815  46.152  20.099  0.00  0.00    -0.358 OA
HETATM   19  H   UNK     0       8.935  46.008  19.145  0.00  0.00     0.217 HD
ENDBRANCH  14  18
BRANCH  15  20
HETATM   20  O   UNK     0       7.301  48.139  18.881  0.00  0.00    -0.358 OA
HETATM   21  H   UNK     0       8.238  48.243  19.120  0.00  0.00     0.217 HD
ENDBRANCH  15  20
ENDBRANCH   5  12
BRANCH   8  22
HETATM   22  O   UNK     0       2.900  41.575  26.066  0.00  0.00    -0.360 OA
HETATM   23  H   UNK     0       3.666  42.050  26.424  0.00  0.00     0.217 HD
ENDBRANCH   8  22
BRANCH  10  24
HETATM   24  O   UNK     0       1.667  39.450  22.001  0.00  0.00    -0.361 OA
HETATM   25  H   UNK     0       1.105  39.819  21.299  0.00  0.00     0.217 HD
ENDBRANCH  10  24
TORSDOF 5
ENDMDL
MODEL 3
REMARK VINA RESULT:      -7.6      1.572      7.084
REMARK  5 active torsions:
REMARK  status: ('A' for Active; 'I' for Inactive)
REMARK    1  A    between atoms: O_2  and  C_13 
REMARK    2  A    between atoms: O_4  and  C_16 
REMARK    3  A    between atoms: O_5  and  C_19 
REMARK    4  A    between atoms: O_6  and  C_21 
REMARK    5  A    between atoms: C_9  and  C_10 
ROOT
HETATM    1  O   UNK     0       6.069  43.349  21.233  0.00  0.00    -0.309 OA
HETATM    2  O   UNK     0       5.079  47.216  20.418  0.00  0.00    -0.287 OA
HETATM    3  C   UNK     0       6.658  45.472  20.209  0.00  0.00     0.081 A 
HETATM    4  C   UNK     0       6.933  44.142  20.521  0.00  0.00     0.095 A 
HETATM    5  C   UNK     0       4.872  43.900  21.667  0.00  0.00     0.090 A 
HETATM    6  C   UNK     0       5.386  46.057  20.659  0.00  0.00     0.190 A 
HETATM    7  C   UNK     0       4.491  45.165  21.424  0.00  0.00     0.094 A 
HETATM    8  C   UNK     0       7.576  46.230  19.480  0.00  0.00     0.085 A 
HETATM    9  C   UNK     0       8.131  43.561  20.105  0.00  0.00     0.075 A 
HETATM   10  C   UNK     0       9.051  44.316  19.377  0.00  0.00     0.071 A 
HETATM   11  C   UNK     0       8.774  45.647  19.065  0.00  0.00     0.074 A 
ENDROOT
BRANCH   5  12
HETATM   12  C   UNK     0       4.016  42.961  22.417  0.00  0.00     0.001 A 
HETATM   13  C   UNK     0       3.290  41.978  21.740  0.00  0.00     0.053 A 
HETATM   14  C   UNK     0       2.480  41.091  22.449  0.00  0.00     0.099 A 
HETATM   15  C   UNK     0       2.394  41.184  23.838  0.00  0.00     0.098 A 
HETATM   16  C   UNK     0       3.116  42.164  24.518  0.00  0.00     0.040 A 
HETATM   17  C   UNK     0       3.926  43.052  23.808  0.00  0.00     0.017 A 
BRANCH  14  18
HETATM   18  O   UNK     0       1.778  40.138  21.774  0.00  0.00    -0.358 OA
HETATM   19  H   UNK     0       2.280  39.306  21.810  0.00  0.00     0.217 HD
ENDBRANCH  14  18
BRANCH  15  20
HETATM   20  O   UNK     0       1.608  40.323  24.542  0.00  0.00    -0.358 OA
HETATM   21  H   UNK     0       1.019  40.834  25.123  0.00  0.00     0.217 HD
ENDBRANCH  15  20
ENDBRANCH   5  12
BRANCH   8  22
HETATM   22  O   UNK     0       7.354  47.533  19.150  0.00  0.00    -0.360 OA
HETATM   23  H   UNK     0       8.141  48.069  19.332  0.00  0.00     0.217 HD
ENDBRANCH   8  22
BRANCH  10  24
HETATM   24  O   UNK     0      10.222  43.752  18.968  0.00  0.00    -0.361 OA
HETATM   25  H   UNK     0      10.940  44.398  19.082  0.00  0.00     0.217 HD
ENDBRANCH  10  24
TORSDOF 5
ENDMDL
MODEL 4
REMARK VINA RESULT:      -7.5      1.666      6.813
REMARK  5 active torsions:
REMARK  status: ('A' for Active; 'I' for Inactive)
REMARK    1  A    between atoms: O_2  and  C_13 
REMARK    2  A    between atoms: O_4  and  C_16 
REMARK    3  A    between atoms: O_5  and  C_19 
REMARK    4  A    between atoms: O_6  and  C_21 
REMARK    5  A    between atoms: C_9  and  C_10 
ROOT
HETATM    1  O   UNK     0       5.767  44.253  22.378  0.00  0.00    -0.309 OA
HETATM    2  O   UNK     0       4.062  43.193  18.833  0.00  0.00    -0.287 OA
HETATM    3  C   UNK     0       5.739  44.421  19.955  0.00  0.00     0.081 A 
HETATM    4  C   UNK     0       6.274  44.742  21.201  0.00  0.00     0.095 A 
HETATM    5  C   UNK     0       4.668  43.408  22.323  0.00  0.00     0.090 A 
HETATM    6  C   UNK     0       4.580  43.518  19.891  0.00  0.00     0.190 A 
HETATM    7  C   UNK     0       4.069  43.021  21.186  0.00  0.00     0.094 A 
HETATM    8  C   UNK     0       6.299  44.949  18.789  0.00  0.00     0.085 A 
HETATM    9  C   UNK     0       7.375  45.594  21.289  0.00  0.00     0.075 A 
HETATM   10  C   UNK     0       7.936  46.124  20.127  0.00  0.00     0.071 A 
HETATM   11  C   UNK     0       7.399  45.802  18.880  0.00  0.00     0.074 A 
ENDROOT
BRANCH   5  12
HETATM   12  C   UNK     0       4.207  42.936  23.643  0.00  0.00     0.001 A 
HETATM   13  C   UNK     0       3.266  41.907  23.732  0.00  0.00     0.053 A 
HETATM   14  C   UNK     0       2.831  41.461  24.979  0.00  0.00     0.099 A 
HETATM   15  C   UNK     0       3.334  42.043  26.143  0.00  0.00     0.098 A 
HETATM   16  C   UNK     0       4.273  43.071  26.059  0.00  0.00     0.040 A 
HETATM   17  C   UNK     0       4.709  43.517  24.811  0.00  0.00     0.017 A 
BRANCH  14  18
HETATM   18  O   UNK     0       1.912  40.457  25.050  0.00  0.00    -0.358 OA
HETATM   19  H   UNK     0       2.197  39.830  25.737  0.00  0.00     0.217 HD
ENDBRANCH  14  18
BRANCH  15  20
HETATM   20  O   UNK     0       2.917  41.615  27.367  0.00  0.00    -0.358 OA
HETATM   21  H   UNK     0       1.994  41.887  27.500  0.00  0.00     0.217 HD
ENDBRANCH  15  20
ENDBRANCH   5  12
BRANCH   8  22
HETATM   22  O   UNK     0       5.813  44.666  17.549  0.00  0.00    -0.360 OA
HETATM   23  H   UNK     0       6.532  44.405  16.953  0.00  0.00     0.217 HD
ENDBRANCH   8  22
BRANCH  10  24
HETATM   24  O   UNK     0       9.011  46.956  20.209  0.00  0.00    -0.361 OA
HETATM   25  H   UNK     0       8.828  47.760  19.695  0.00  0.00     0.217 HD
ENDBRANCH  10  24
TORSDOF 5
ENDMDL
MODEL 5
REMARK VINA RESULT:      -7.5      1.683      3.443
REMARK  5 active torsions:
REMARK  status: ('A' for Active; 'I' for Inactive)
REMARK    1  A    between atoms: O_2  and  C_13 
REMARK    2  A    between atoms: O_4  and  C_16 
REMARK    3  A    between atoms: O_5  and  C_19 
REMARK    4  A    between atoms: O_6  and  C_21 
REMARK    5  A    between atoms: C_9  and  C_10 
ROOT
HETATM    1  O   UNK     0       3.338  42.305  23.116  0.00  0.00    -0.309 OA
HETATM    2  O   UNK     0       3.622  42.386  27.179  0.00  0.00    -0.287 OA
HETATM    3  C   UNK     0       2.783  41.300  25.257  0.00  0.00     0.081 A 
HETATM    4  C   UNK     0       2.727  41.332  23.865  0.00  0.00     0.095 A 
HETATM    5  C   UNK     0       4.036  43.306  23.777  0.00  0.00     0.090 A 
HETATM    6  C   UNK     0       3.529  42.354  25.961  0.00  0.00     0.190 A 
HETATM    7  C   UNK     0       4.167  43.381  25.111  0.00  0.00     0.094 A 
HETATM    8  C   UNK     0       2.140  40.284  25.966  0.00  0.00     0.085 A 
HETATM    9  C   UNK     0       2.027  40.344  23.172  0.00  0.00     0.075 A 
HETATM   10  C   UNK     0       1.384  39.326  23.878  0.00  0.00     0.071 A 
HETATM   11  C   UNK     0       1.440  39.296  25.271  0.00  0.00     0.074 A 
ENDROOT
BRANCH   5  12
HETATM   12  C   UNK     0       4.659  44.297  22.878  0.00  0.00     0.001 A 
HETATM   13  C   UNK     0       6.032  44.544  22.948  0.00  0.00     0.053 A 
HETATM   14  C   UNK     0       6.620  45.481  22.100  0.00  0.00     0.099 A 
HETATM   15  C   UNK     0       5.837  46.174  21.176  0.00  0.00     0.098 A 
HETATM   16  C   UNK     0       4.466  45.931  21.103  0.00  0.00     0.040 A 
HETATM   17  C   UNK     0       3.877  44.994  21.952  0.00  0.00     0.017 A 
BRANCH  14  18
HETATM   18  O   UNK     0       7.961  45.712  22.181  0.00  0.00    -0.358 OA
HETATM   19  H   UNK     0       8.402  45.199  21.482  0.00  0.00     0.217 HD
ENDBRANCH  14  18
BRANCH  15  20
HETATM   20  O   UNK     0       6.401  47.091  20.341  0.00  0.00    -0.358 OA
HETATM   21  H   UNK     0       5.741  47.365  19.681  0.00  0.00     0.217 HD
ENDBRANCH  15  20
ENDBRANCH   5  12
BRANCH   8  22
HETATM   22  O   UNK     0       2.166  40.209  27.326  0.00  0.00    -0.360 OA
HETATM   23  H   UNK     0       2.677  39.437  27.615  0.00  0.00     0.217 HD
ENDBRANCH   8  22
BRANCH  10  24
HETATM   24  O   UNK     0       0.700  38.360  23.205  0.00  0.00    -0.361 OA
HETATM   25  H   UNK     0      -0.187  38.271  23.594  0.00  0.00     0.217 HD
ENDBRANCH  10  24
TORSDOF 5
ENDMDL
MODEL 6
REMARK VINA RESULT:      -7.3      1.975      3.448
REMARK  5 active torsions:
REMARK  status: ('A' for Active; 'I' for Inactive)
REMARK    1  A    between atoms: O_2  and  C_13 
REMARK    2  A    between atoms: O_4  and  C_16 
REMARK    3  A    between atoms: O_5  and  C_19 
REMARK    4  A    between atoms: O_6  and  C_21 
REMARK    5  A    between atoms: C_9  and  C_10 
ROOT
HETATM    1  O   UNK     0       3.159  41.393  21.934  0.00  0.00    -0.309 OA
HETATM    2  O   UNK     0       2.752  41.893  25.956  0.00  0.00    -0.287 OA
HETATM    3  C   UNK     0       2.462  40.489  24.078  0.00  0.00     0.081 A 
HETATM    4  C   UNK     0       2.630  40.385  22.699  0.00  0.00     0.095 A 
HETATM    5  C   UNK     0       3.535  42.571  22.562  0.00  0.00     0.090 A 
HETATM    6  C   UNK     0       2.868  41.734  24.749  0.00  0.00     0.190 A 
HETATM    7  C   UNK     0       3.429  42.790  23.882  0.00  0.00     0.094 A 
HETATM    8  C   UNK     0       1.918  39.429  24.806  0.00  0.00     0.085 A 
HETATM    9  C   UNK     0       2.255  39.215  22.038  0.00  0.00     0.075 A 
HETATM   10  C   UNK     0       1.712  38.153  22.762  0.00  0.00     0.071 A 
HETATM   11  C   UNK     0       1.544  38.260  24.142  0.00  0.00     0.074 A 
ENDROOT
BRANCH   5  12
HETATM   12  C   UNK     0       4.096  43.586  21.648  0.00  0.00     0.001 A 
HETATM   13  C   UNK     0       4.419  43.245  20.333  0.00  0.00     0.053 A 
HETATM   14  C   UNK     0       4.949  44.203  19.470  0.00  0.00     0.099 A 
HETATM   15  C   UNK     0       5.157  45.508  19.919  0.00  0.00     0.098 A 
HETATM   16  C   UNK     0       4.836  45.852  21.232  0.00  0.00     0.040 A 
HETATM   17  C   UNK     0       4.306  44.892  22.095  0.00  0.00     0.017 A 
BRANCH  14  18
HETATM   18  O   UNK     0       5.261  43.855  18.190  0.00  0.00    -0.358 OA
HETATM   19  H   UNK     0       4.493  43.402  17.801  0.00  0.00     0.217 HD
ENDBRANCH  14  18
BRANCH  15  20
HETATM   20  O   UNK     0       5.673  46.453  19.086  0.00  0.00    -0.358 OA
HETATM   21  H   UNK     0       6.302  46.029  18.477  0.00  0.00     0.217 HD
ENDBRANCH  15  20
ENDBRANCH   5  12
BRANCH   8  22
HETATM   22  O   UNK     0       1.734  39.483  26.155  0.00  0.00    -0.360 OA
HETATM   23  H   UNK     0       2.457  39.029  26.615  0.00  0.00     0.217 HD
ENDBRANCH   8  22
BRANCH  10  24
HETATM   24  O   UNK     0       1.344  37.010  22.119  0.00  0.00    -0.361 OA
HETATM   25  H   UNK     0       0.941  36.402  22.762  0.00  0.00     0.217 HD
ENDBRANCH  10  24
TORSDOF 5
ENDMDL
MODEL 7
REMARK VINA RESULT:      -7.3      3.907      6.821
REMARK  5 active torsions:
REMARK  status: ('A' for Active; 'I' for Inactive)
REMARK    1  A    between atoms: O_2  and  C_13 
REMARK    2  A    between atoms: O_4  and  C_16 
REMARK    3  A    between atoms: O_5  and  C_19 
REMARK    4  A    between atoms: O_6  and  C_21 
REMARK    5  A    between atoms: C_9  and  C_10 
ROOT
HETATM    1  O   UNK     0       8.845  45.338  19.846  0.00  0.00    -0.309 OA
HETATM    2  O   UNK     0       6.239  43.370  22.282  0.00  0.00    -0.287 OA
HETATM    3  C   UNK     0       6.655  45.235  20.893  0.00  0.00     0.081 A 
HETATM    4  C   UNK     0       7.594  45.855  20.071  0.00  0.00     0.095 A 
HETATM    5  C   UNK     0       9.190  44.149  20.471  0.00  0.00     0.090 A 
HETATM    6  C   UNK     0       7.014  43.969  21.551  0.00  0.00     0.190 A 
HETATM    7  C   UNK     0       8.372  43.455  21.279  0.00  0.00     0.094 A 
HETATM    8  C   UNK     0       5.397  45.809  21.085  0.00  0.00     0.085 A 
HETATM    9  C   UNK     0       7.279  47.056  19.434  0.00  0.00     0.075 A 
HETATM   10  C   UNK     0       6.023  47.632  19.623  0.00  0.00     0.071 A 
HETATM   11  C   UNK     0       5.084  47.010  20.447  0.00  0.00     0.074 A 
ENDROOT
BRANCH   5  12
HETATM   12  C   UNK     0      10.553  43.679  20.156  0.00  0.00     0.001 A 
HETATM   13  C   UNK     0      11.226  44.175  19.037  0.00  0.00     0.053 A 
HETATM   14  C   UNK     0      12.514  43.730  18.740  0.00  0.00     0.099 A 
HETATM   15  C   UNK     0      13.135  42.789  19.562  0.00  0.00     0.098 A 
HETATM   16  C   UNK     0      12.466  42.291  20.680  0.00  0.00     0.040 A 
HETATM   17  C   UNK     0      11.177  42.736  20.977  0.00  0.00     0.017 A 
BRANCH  14  18
HETATM   18  O   UNK     0      13.158  44.223  17.644  0.00  0.00    -0.358 OA
HETATM   19  H   UNK     0      13.977  43.715  17.517  0.00  0.00     0.217 HD
ENDBRANCH  14  18
BRANCH  15  20
HETATM   20  O   UNK     0      14.393  42.348  19.282  0.00  0.00    -0.358 OA
HETATM   21  H   UNK     0      14.946  43.108  19.033  0.00  0.00     0.217 HD
ENDBRANCH  15  20
ENDBRANCH   5  12
BRANCH   8  22
HETATM   22  O   UNK     0       4.445  45.242  21.878  0.00  0.00    -0.360 OA
HETATM   23  H   UNK     0       3.568  45.330  21.473  0.00  0.00     0.217 HD
ENDBRANCH   8  22
BRANCH  10  24
HETATM   24  O   UNK     0       5.711  48.803  19.003  0.00  0.00    -0.361 OA
HETATM   25  H   UNK     0       6.298  48.920  18.236  0.00  0.00     0.217 HD
ENDBRANCH  10  24
TORSDOF 5
ENDMDL
MODEL 8
REMARK VINA RESULT:      -7.2      2.394      6.940
REMARK  5 active torsions:
REMARK  status: ('A' for Active; 'I' for Inactive)
REMARK    1  A    between atoms: O_2  and  C_13 
REMARK    2  A    between atoms: O_4  and  C_16 
REMARK    3  A    between atoms: O_5  and  C_19 
REMARK    4  A    between atoms: O_6  and  C_21 
REMARK    5  A    between atoms: C_9  and  C_10 
ROOT
HETATM    1  O   UNK     0       4.529  42.218  23.168  0.00  0.00    -0.309 OA
HETATM    2  O   UNK     0       1.494  42.107  20.453  0.00  0.00    -0.287 OA
HETATM    3  C   UNK     0       3.779  42.527  20.878  0.00  0.00     0.081 A 
HETATM    4  C   UNK     0       4.771  42.543  21.857  0.00  0.00     0.095 A 
HETATM    5  C   UNK     0       3.239  41.866  23.534  0.00  0.00     0.090 A 
HETATM    6  C   UNK     0       2.411  42.145  21.261  0.00  0.00     0.190 A 
HETATM    7  C   UNK     0       2.202  41.807  22.684  0.00  0.00     0.094 A 
HETATM    8  C   UNK     0       4.084  42.867  19.558  0.00  0.00     0.085 A 
HETATM    9  C   UNK     0       6.077  42.900  21.521  0.00  0.00     0.075 A 
HETATM   10  C   UNK     0       6.385  43.240  20.203  0.00  0.00     0.071 A 
HETATM   11  C   UNK     0       5.391  43.224  19.225  0.00  0.00     0.074 A 
ENDROOT
BRANCH   5  12
HETATM   12  C   UNK     0       3.091  41.531  24.964  0.00  0.00     0.001 A 
HETATM   13  C   UNK     0       3.705  42.321  25.938  0.00  0.00     0.053 A 
HETATM   14  C   UNK     0       3.566  42.004  27.289  0.00  0.00     0.099 A 
HETATM   15  C   UNK     0       2.811  40.895  27.670  0.00  0.00     0.098 A 
HETATM   16  C   UNK     0       2.197  40.102  26.701  0.00  0.00     0.040 A 
HETATM   17  C   UNK     0       2.337  40.420  25.349  0.00  0.00     0.017 A 
BRANCH  14  18
HETATM   18  O   UNK     0       4.171  42.785  28.227  0.00  0.00    -0.358 OA
HETATM   19  H   UNK     0       3.548  42.917  28.962  0.00  0.00     0.217 HD
ENDBRANCH  14  18
BRANCH  15  20
HETATM   20  O   UNK     0       2.666  40.575  28.986  0.00  0.00    -0.358 OA
HETATM   21  H   UNK     0       1.726  40.640  29.227  0.00  0.00     0.217 HD
ENDBRANCH  15  20
ENDBRANCH   5  12
BRANCH   8  22
HETATM   22  O   UNK     0       3.151  42.867  18.566  0.00  0.00    -0.360 OA
HETATM   23  H   UNK     0       3.578  42.825  17.697  0.00  0.00     0.217 HD
ENDBRANCH   8  22
BRANCH  10  24
HETATM   24  O   UNK     0       7.659  43.589  19.872  0.00  0.00    -0.361 OA
HETATM   25  H   UNK     0       8.030  44.141  20.581  0.00  0.00     0.217 HD
ENDBRANCH  10  24
TORSDOF 5
ENDMDL
MODEL 9
REMARK VINA RESULT:      -7.1     28.505     30.264
REMARK  5 active torsions:
REMARK  status: ('A' for Active; 'I' for Inactive)
REMARK    1  A    between atoms: O_2  and  C_13 
REMARK    2  A    between atoms: O_4  and  C_16 
REMARK    3  A    between atoms: O_5  and  C_19 
REMARK    4  A    between atoms: O_6  and  C_21 
REMARK    5  A    between atoms: C_9  and  C_10 
ROOT
HETATM    1  O   UNK     0      15.696  67.669   7.884  0.00  0.00    -0.309 OA
HETATM    2  O   UNK     0      12.845  69.993   9.636  0.00  0.00    -0.287 OA
HETATM    3  C   UNK     0      13.627  68.925   7.679  0.00  0.00     0.081 A 
HETATM    4  C   UNK     0      14.636  68.127   7.144  0.00  0.00     0.095 A 
HETATM    5  C   UNK     0      15.770  68.025   9.222  0.00  0.00     0.090 A 
HETATM    6  C   UNK     0      13.697  69.298   9.101  0.00  0.00     0.190 A 
HETATM    7  C   UNK     0      14.859  68.783   9.854  0.00  0.00     0.094 A 
HETATM    8  C   UNK     0      12.571  69.361   6.877  0.00  0.00     0.085 A 
HETATM    9  C   UNK     0      14.593  67.758   5.799  0.00  0.00     0.075 A 
HETATM   10  C   UNK     0      13.539  68.191   4.995  0.00  0.00     0.071 A 
HETATM   11  C   UNK     0      12.531  68.991   5.532  0.00  0.00     0.074 A 
ENDROOT
BRANCH   5  12
HETATM   12  C   UNK     0      16.945  67.476   9.926  0.00  0.00     0.001 A 
HETATM   13  C   UNK     0      17.350  66.159   9.696  0.00  0.00     0.053 A 
HETATM   14  C   UNK     0      18.460  65.640  10.361  0.00  0.00     0.099 A 
HETATM   15  C   UNK     0      19.172  66.437  11.258  0.00  0.00     0.098 A 
HETATM   16  C   UNK     0      18.771  67.753  11.491  0.00  0.00     0.040 A 
HETATM   17  C   UNK     0      17.660  68.271  10.826  0.00  0.00     0.017 A 
BRANCH  14  18
HETATM   18  O   UNK     0      18.842  64.353  10.127  0.00  0.00    -0.358 OA
HETATM   19  H   UNK     0      18.121  63.902   9.655  0.00  0.00     0.217 HD
ENDBRANCH  14  18
BRANCH  15  20
HETATM   20  O   UNK     0      20.258  65.942  11.913  0.00  0.00    -0.358 OA
HETATM   21  H   UNK     0      20.342  64.994  11.716  0.00  0.00     0.217 HD
ENDBRANCH  15  20
ENDBRANCH   5  12
BRANCH   8  22
HETATM   22  O   UNK     0      11.562  70.143   7.353  0.00  0.00    -0.360 OA
HETATM   23  H   UNK     0      11.847  71.067   7.415  0.00  0.00     0.217 HD
ENDBRANCH   8  22
BRANCH  10  24
HETATM   24  O   UNK     0      13.494  67.832   3.681  0.00  0.00    -0.361 OA
HETATM   25  H   UNK     0      14.402  67.708   3.357  0.00  0.00     0.217 HD
ENDBRANCH  10  24
TORSDOF 5
ENDMDL
