MODEL 1
REMARK VINA RESULT:    -8.643      0.000      0.000
REMARK INTER + INTRA:         -10.451
REMARK INTER:                 -10.175
REMARK INTRA:                  -0.275
REMARK UNBOUND:                -0.292
REMARK  5 active torsions:
REMARK  status: ('A' for Active; 'I' for Inactive)
REMARK    1  A    between atoms: O_2  and  C_13 
REMARK    2  A    between atoms: O_4  and  C_16 
REMARK    3  A    between atoms: O_5  and  C_19 
REMARK    4  A    between atoms: O_6  and  C_21 
REMARK    5  A    between atoms: C_9  and  C_10 
ROOT
HETATM    1  O   UNK     0       4.424  43.987  22.818  0.00  0.00    -0.309 OA
HETATM    2  O   UNK     0       1.948  41.430  20.837  0.00  0.00    -0.287 OA
HETATM    3  C   UNK     0       2.869  42.123  22.899  0.00  0.00     0.081 A 
HETATM    4  C   UNK     0       3.731  43.029  23.513  0.00  0.00     0.095 A 
HETATM    5  C   UNK     0       4.264  44.049  21.441  0.00  0.00     0.090 A 
HETATM    6  C   UNK     0       2.690  42.191  21.440  0.00  0.00     0.190 A 
HETATM    7  C   UNK     0       3.460  43.238  20.737  0.00  0.00     0.094 A 
HETATM    8  C   UNK     0       2.189  41.168  23.658  0.00  0.00     0.085 A 
HETATM    9  C   UNK     0       3.918  42.987  24.894  0.00  0.00     0.075 A 
HETATM   10  C   UNK     0       3.240  42.035  25.657  0.00  0.00     0.071 A 
HETATM   11  C   UNK     0       2.378  41.128  25.040  0.00  0.00     0.074 A 
ENDROOT
BRANCH   5  12
HETATM   12  C   UNK     0       5.050  45.118  20.794  0.00  0.00     0.001 A 
HETATM   13  C   UNK     0       6.225  44.807  20.105  0.00  0.00     0.053 A 
HETATM   14  C   UNK     0       6.967  45.817  19.493  0.00  0.00     0.099 A 
HETATM   15  C   UNK     0       6.536  47.142  19.567  0.00  0.00     0.098 A 
HETATM   16  C   UNK     0       5.364  47.457  20.254  0.00  0.00     0.040 A 
HETATM   17  C   UNK     0       4.621  46.446  20.866  0.00  0.00     0.017 A 
BRANCH  14  18
HETATM   18  O   UNK     0       8.112  45.498  18.826  0.00  0.00    -0.358 OA
HETATM   19  H   UNK     0       7.871  44.992  18.031  0.00  0.00     0.217 HD
ENDBRANCH  14  18
BRANCH  15  20
HETATM   20  O   UNK     0       7.251  48.137  18.972  0.00  0.00    -0.358 OA
HETATM   21  H   UNK     0       6.957  48.993  19.326  0.00  0.00     0.217 HD
ENDBRANCH  15  20
ENDBRANCH   5  12
BRANCH   8  22
HETATM   22  O   UNK     0       1.337  40.262  23.105  0.00  0.00    -0.360 OA
HETATM   23  H   UNK     0       1.226  39.497  23.692  0.00  0.00     0.217 HD
ENDBRANCH   8  22
BRANCH  10  24
HETATM   24  O   UNK     0       3.420  41.992  27.007  0.00  0.00    -0.361 OA
HETATM   25  H   UNK     0       3.167  42.850  27.387  0.00  0.00     0.217 HD
ENDBRANCH  10  24
TORSDOF 5
ENDMDL
MODEL 2
REMARK VINA RESULT:    -8.392      1.138      2.686
REMARK INTER + INTRA:         -10.157
REMARK INTER:                  -9.882
REMARK INTRA:                  -0.275
REMARK UNBOUND:                -0.292
REMARK  5 active torsions:
REMARK  status: ('A' for Active; 'I' for Inactive)
REMARK    1  A    between atoms: O_2  and  C_13 
REMARK    2  A    between atoms: O_4  and  C_16 
REMARK    3  A    between atoms: O_5  and  C_19 
REMARK    4  A    between atoms: O_6  and  C_21 
REMARK    5  A    between atoms: C_9  and  C_10 
ROOT
HETATM    1  O   UNK     0       4.126  43.352  21.811  0.00  0.00    -0.309 OA
HETATM    2  O   UNK     0       4.259  43.622  25.873  0.00  0.00    -0.287 OA
HETATM    3  C   UNK     0       3.496  42.443  23.974  0.00  0.00     0.081 A 
HETATM    4  C   UNK     0       3.491  42.411  22.580  0.00  0.00     0.095 A 
HETATM    5  C   UNK     0       4.795  44.385  22.449  0.00  0.00     0.090 A 
HETATM    6  C   UNK     0       4.212  43.533  24.655  0.00  0.00     0.190 A 
HETATM    7  C   UNK     0       4.877  44.522  23.782  0.00  0.00     0.094 A 
HETATM    8  C   UNK     0       2.831  41.457  24.705  0.00  0.00     0.085 A 
HETATM    9  C   UNK     0       2.821  41.388  21.909  0.00  0.00     0.075 A 
HETATM   10  C   UNK     0       2.156  40.400  22.637  0.00  0.00     0.071 A 
HETATM   11  C   UNK     0       2.161  40.435  24.032  0.00  0.00     0.074 A 
ENDROOT
BRANCH   5  12
HETATM   12  C   UNK     0       5.447  45.337  21.529  0.00  0.00     0.001 A 
HETATM   13  C   UNK     0       6.806  45.209  21.233  0.00  0.00     0.053 A 
HETATM   14  C   UNK     0       7.422  46.109  20.364  0.00  0.00     0.099 A 
HETATM   15  C   UNK     0       6.681  47.141  19.787  0.00  0.00     0.098 A 
HETATM   16  C   UNK     0       5.324  47.272  20.080  0.00  0.00     0.040 A 
HETATM   17  C   UNK     0       4.708  46.372  20.950  0.00  0.00     0.017 A 
BRANCH  14  18
HETATM   18  O   UNK     0       8.749  45.972  20.085  0.00  0.00    -0.358 OA
HETATM   19  H   UNK     0       8.928  45.033  19.906  0.00  0.00     0.217 HD
ENDBRANCH  14  18
BRANCH  15  20
HETATM   20  O   UNK     0       7.271  48.025  18.935  0.00  0.00    -0.358 OA
HETATM   21  H   UNK     0       6.788  48.023  18.092  0.00  0.00     0.217 HD
ENDBRANCH  15  20
ENDBRANCH   5  12
BRANCH   8  22
HETATM   22  O   UNK     0       2.807  41.445  26.067  0.00  0.00    -0.360 OA
HETATM   23  H   UNK     0       2.638  42.336  26.412  0.00  0.00     0.217 HD
ENDBRANCH   8  22
BRANCH  10  24
HETATM   24  O   UNK     0       1.501  39.400  21.985  0.00  0.00    -0.361 OA
HETATM   25  H   UNK     0       0.661  39.223  22.441  0.00  0.00     0.217 HD
ENDBRANCH  10  24
TORSDOF 5
ENDMDL
MODEL 3
REMARK VINA RESULT:    -7.646      1.513      7.154
REMARK INTER + INTRA:          -9.279
REMARK INTER:                  -9.007
REMARK INTRA:                  -0.272
REMARK UNBOUND:                -0.292
REMARK  5 active torsions:
REMARK  status: ('A' for Active; 'I' for Inactive)
REMARK    1  A    between atoms: O_2  and  C_13 
REMARK    2  A    between atoms: O_4  and  C_16 
REMARK    3  A    between atoms: O_5  and  C_19 
REMARK    4  A    between atoms: O_6  and  C_21 
REMARK    5  A    between atoms: C_9  and  C_10 
ROOT
HETATM    1  O   UNK     0       5.953  43.429  20.865  0.00  0.00    -0.309 OA
HETATM    2  O   UNK     0       5.101  47.367  20.258  0.00  0.00    -0.287 OA
HETATM    3  C   UNK     0       6.666  45.608  20.060  0.00  0.00     0.081 A 
HETATM    4  C   UNK     0       6.891  44.252  20.294  0.00  0.00     0.095 A 
HETATM    5  C   UNK     0       4.731  43.973  21.230  0.00  0.00     0.090 A 
HETATM    6  C   UNK     0       5.367  46.187  20.438  0.00  0.00     0.190 A 
HETATM    7  C   UNK     0       4.393  45.260  21.051  0.00  0.00     0.094 A 
HETATM    8  C   UNK     0       7.658  46.397  19.475  0.00  0.00     0.085 A 
HETATM    9  C   UNK     0       8.112  43.678  19.944  0.00  0.00     0.075 A 
HETATM   10  C   UNK     0       9.106  44.463  19.359  0.00  0.00     0.071 A 
HETATM   11  C   UNK     0       8.879  45.820  19.125  0.00  0.00     0.074 A 
ENDROOT
BRANCH   5  12
HETATM   12  C   UNK     0       3.796  43.001  21.829  0.00  0.00     0.001 A 
HETATM   13  C   UNK     0       3.750  42.831  23.215  0.00  0.00     0.053 A 
HETATM   14  C   UNK     0       2.867  41.913  23.780  0.00  0.00     0.099 A 
HETATM   15  C   UNK     0       2.025  41.160  22.961  0.00  0.00     0.098 A 
HETATM   16  C   UNK     0       2.068  41.325  21.577  0.00  0.00     0.040 A 
HETATM   17  C   UNK     0       2.952  42.245  21.012  0.00  0.00     0.017 A 
BRANCH  14  18
HETATM   18  O   UNK     0       2.834  41.758  25.134  0.00  0.00    -0.358 OA
HETATM   19  H   UNK     0       2.466  40.880  25.332  0.00  0.00     0.217 HD
ENDBRANCH  14  18
BRANCH  15  20
HETATM   20  O   UNK     0       1.157  40.260  23.501  0.00  0.00    -0.358 OA
HETATM   21  H   UNK     0       1.548  39.372  23.448  0.00  0.00     0.217 HD
ENDBRANCH  15  20
ENDBRANCH   5  12
BRANCH   8  22
HETATM   22  O   UNK     0       7.486  47.725  19.225  0.00  0.00    -0.360 OA
HETATM   23  H   UNK     0       8.319  48.127  18.935  0.00  0.00     0.217 HD
ENDBRANCH   8  22
BRANCH  10  24
HETATM   24  O   UNK     0      10.300  43.905  19.015  0.00  0.00    -0.361 OA
HETATM   25  H   UNK     0      10.134  43.069  18.547  0.00  0.00     0.217 HD
ENDBRANCH  10  24
TORSDOF 5
ENDMDL
MODEL 4
REMARK VINA RESULT:    -7.575      1.860      3.284
REMARK INTER + INTRA:          -9.195
REMARK INTER:                  -8.867
REMARK INTRA:                  -0.328
REMARK UNBOUND:                -0.292
REMARK  5 active torsions:
REMARK  status: ('A' for Active; 'I' for Inactive)
REMARK    1  A    between atoms: O_2  and  C_13 
REMARK    2  A    between atoms: O_4  and  C_16 
REMARK    3  A    between atoms: O_5  and  C_19 
REMARK    4  A    between atoms: O_6  and  C_21 
REMARK    5  A    between atoms: C_9  and  C_10 
ROOT
HETATM    1  O   UNK     0       3.215  41.661  21.840  0.00  0.00    -0.309 OA
HETATM    2  O   UNK     0       2.988  42.070  25.887  0.00  0.00    -0.287 OA
HETATM    3  C   UNK     0       2.615  40.709  23.993  0.00  0.00     0.081 A 
HETATM    4  C   UNK     0       2.721  40.635  22.605  0.00  0.00     0.095 A 
HETATM    5  C   UNK     0       3.618  42.825  22.478  0.00  0.00     0.090 A 
HETATM    6  C   UNK     0       3.050  41.938  24.673  0.00  0.00     0.190 A 
HETATM    7  C   UNK     0       3.572  43.014  23.806  0.00  0.00     0.094 A 
HETATM    8  C   UNK     0       2.104  39.631  24.720  0.00  0.00     0.085 A 
HETATM    9  C   UNK     0       2.317  39.481  21.935  0.00  0.00     0.075 A 
HETATM   10  C   UNK     0       1.806  38.402  22.658  0.00  0.00     0.071 A 
HETATM   11  C   UNK     0       1.700  38.478  24.047  0.00  0.00     0.074 A 
ENDROOT
BRANCH   5  12
HETATM   12  C   UNK     0       4.138  43.861  21.563  0.00  0.00     0.001 A 
HETATM   13  C   UNK     0       4.531  43.521  20.267  0.00  0.00     0.053 A 
HETATM   14  C   UNK     0       5.022  44.499  19.403  0.00  0.00     0.099 A 
HETATM   15  C   UNK     0       5.121  45.823  19.833  0.00  0.00     0.098 A 
HETATM   16  C   UNK     0       4.731  46.167  21.127  0.00  0.00     0.040 A 
HETATM   17  C   UNK     0       4.240  45.187  21.991  0.00  0.00     0.017 A 
BRANCH  14  18
HETATM   18  O   UNK     0       5.402  44.152  18.142  0.00  0.00    -0.358 OA
HETATM   19  H   UNK     0       5.678  44.958  17.673  0.00  0.00     0.217 HD
ENDBRANCH  14  18
BRANCH  15  20
HETATM   20  O   UNK     0       5.598  46.788  18.999  0.00  0.00    -0.358 OA
HETATM   21  H   UNK     0       6.570  46.787  19.036  0.00  0.00     0.217 HD
ENDBRANCH  15  20
ENDBRANCH   5  12
BRANCH   8  22
HETATM   22  O   UNK     0       1.981  39.655  26.076  0.00  0.00    -0.360 OA
HETATM   23  H   UNK     0       2.655  40.229  26.469  0.00  0.00     0.217 HD
ENDBRANCH   8  22
BRANCH  10  24
HETATM   24  O   UNK     0       1.411  37.273  22.007  0.00  0.00    -0.361 OA
HETATM   25  H   UNK     0       0.899  37.526  21.220  0.00  0.00     0.217 HD
ENDBRANCH  10  24
TORSDOF 5
ENDMDL
MODEL 5
REMARK VINA RESULT:    -7.516      1.633      6.804
REMARK INTER + INTRA:          -9.126
REMARK INTER:                  -8.816
REMARK INTRA:                  -0.310
REMARK UNBOUND:                -0.292
REMARK  5 active torsions:
REMARK  status: ('A' for Active; 'I' for Inactive)
REMARK    1  A    between atoms: O_2  and  C_13 
REMARK    2  A    between atoms: O_4  and  C_16 
REMARK    3  A    between atoms: O_5  and  C_19 
REMARK    4  A    between atoms: O_6  and  C_21 
REMARK    5  A    between atoms: C_9  and  C_10 
ROOT
HETATM    1  O   UNK     0       5.717  44.250  22.374  0.00  0.00    -0.309 OA
HETATM    2  O   UNK     0       3.944  43.159  18.872  0.00  0.00    -0.287 OA
HETATM    3  C   UNK     0       5.648  44.391  19.949  0.00  0.00     0.081 A 
HETATM    4  C   UNK     0       6.206  44.723  21.182  0.00  0.00     0.095 A 
HETATM    5  C   UNK     0       4.613  43.411  22.348  0.00  0.00     0.090 A 
HETATM    6  C   UNK     0       4.482  43.494  19.917  0.00  0.00     0.190 A 
HETATM    7  C   UNK     0       3.992  43.014  21.226  0.00  0.00     0.094 A 
HETATM    8  C   UNK     0       6.189  44.903  18.768  0.00  0.00     0.085 A 
HETATM    9  C   UNK     0       7.313  45.570  21.241  0.00  0.00     0.075 A 
HETATM   10  C   UNK     0       7.857  46.083  20.063  0.00  0.00     0.071 A 
HETATM   11  C   UNK     0       7.296  45.750  18.830  0.00  0.00     0.074 A 
ENDROOT
BRANCH   5  12
HETATM   12  C   UNK     0       4.173  42.957  23.681  0.00  0.00     0.001 A 
HETATM   13  C   UNK     0       3.236  41.927  23.799  0.00  0.00     0.053 A 
HETATM   14  C   UNK     0       2.821  41.498  25.059  0.00  0.00     0.099 A 
HETATM   15  C   UNK     0       3.341  42.097  26.207  0.00  0.00     0.098 A 
HETATM   16  C   UNK     0       4.275  43.126  26.094  0.00  0.00     0.040 A 
HETATM   17  C   UNK     0       4.691  43.555  24.833  0.00  0.00     0.017 A 
BRANCH  14  18
HETATM   18  O   UNK     0       1.906  40.493  25.158  0.00  0.00    -0.358 OA
HETATM   19  H   UNK     0       1.891  40.009  24.314  0.00  0.00     0.217 HD
ENDBRANCH  14  18
BRANCH  15  20
HETATM   20  O   UNK     0       2.943  41.686  27.443  0.00  0.00    -0.358 OA
HETATM   21  H   UNK     0       3.685  41.786  28.063  0.00  0.00     0.217 HD
ENDBRANCH  15  20
ENDBRANCH   5  12
BRANCH   8  22
HETATM   22  O   UNK     0       5.679  44.608  17.540  0.00  0.00    -0.360 OA
HETATM   23  H   UNK     0       5.879  43.690  17.300  0.00  0.00     0.217 HD
ENDBRANCH   8  22
BRANCH  10  24
HETATM   24  O   UNK     0       8.937  46.910  20.117  0.00  0.00    -0.361 OA
HETATM   25  H   UNK     0       9.043  47.232  21.028  0.00  0.00     0.217 HD
ENDBRANCH  10  24
TORSDOF 5
ENDMDL
MODEL 6
REMARK VINA RESULT:    -7.266      2.183      7.250
REMARK INTER + INTRA:          -8.832
REMARK INTER:                  -8.500
REMARK INTRA:                  -0.332
REMARK UNBOUND:                -0.292
REMARK  5 active torsions:
REMARK  status: ('A' for Active; 'I' for Inactive)
REMARK    1  A    between atoms: O_2  and  C_13 
REMARK    2  A    between atoms: O_4  and  C_16 
REMARK    3  A    between atoms: O_5  and  C_19 
REMARK    4  A    between atoms: O_6  and  C_21 
REMARK    5  A    between atoms: C_9  and  C_10 
ROOT
HETATM    1  O   UNK     0       4.072  43.216  24.889  0.00  0.00    -0.309 OA
HETATM    2  O   UNK     0       1.949  41.077  22.148  0.00  0.00    -0.287 OA
HETATM    3  C   UNK     0       3.408  42.885  22.576  0.00  0.00     0.081 A 
HETATM    4  C   UNK     0       4.110  43.571  23.565  0.00  0.00     0.095 A 
HETATM    5  C   UNK     0       3.293  42.130  25.259  0.00  0.00     0.090 A 
HETATM    6  C   UNK     0       2.588  41.727  22.963  0.00  0.00     0.190 A 
HETATM    7  C   UNK     0       2.577  41.386  24.401  0.00  0.00     0.094 A 
HETATM    8  C   UNK     0       3.486  43.292  21.243  0.00  0.00     0.085 A 
HETATM    9  C   UNK     0       4.897  44.672  23.225  0.00  0.00     0.075 A 
HETATM   10  C   UNK     0       4.978  45.082  21.894  0.00  0.00     0.071 A 
HETATM   11  C   UNK     0       4.274  44.394  20.906  0.00  0.00     0.074 A 
ENDROOT
BRANCH   5  12
HETATM   12  C   UNK     0       3.327  41.831  26.704  0.00  0.00     0.001 A 
HETATM   13  C   UNK     0       3.975  42.699  27.586  0.00  0.00     0.053 A 
HETATM   14  C   UNK     0       4.007  42.417  28.951  0.00  0.00     0.099 A 
HETATM   15  C   UNK     0       3.390  41.265  29.440  0.00  0.00     0.098 A 
HETATM   16  C   UNK     0       2.743  40.395  28.563  0.00  0.00     0.040 A 
HETATM   17  C   UNK     0       2.711  40.678  27.197  0.00  0.00     0.017 A 
BRANCH  14  18
HETATM   18  O   UNK     0       4.644  43.273  29.799  0.00  0.00    -0.358 OA
HETATM   19  H   UNK     0       4.227  44.148  29.720  0.00  0.00     0.217 HD
ENDBRANCH  14  18
BRANCH  15  20
HETATM   20  O   UNK     0       3.414  40.978  30.772  0.00  0.00    -0.358 OA
HETATM   21  H   UNK     0       4.141  40.358  30.949  0.00  0.00     0.217 HD
ENDBRANCH  15  20
ENDBRANCH   5  12
BRANCH   8  22
HETATM   22  O   UNK     0       2.819  42.655  20.241  0.00  0.00    -0.360 OA
HETATM   23  H   UNK     0       1.924  42.415  20.527  0.00  0.00     0.217 HD
ENDBRANCH   8  22
BRANCH  10  24
HETATM   24  O   UNK     0       5.745  46.156  21.558  0.00  0.00    -0.361 OA
HETATM   25  H   UNK     0       6.321  46.379  22.309  0.00  0.00     0.217 HD
ENDBRANCH  10  24
TORSDOF 5
ENDMDL
MODEL 7
REMARK VINA RESULT:    -6.977      3.275      4.610
REMARK INTER + INTRA:          -8.493
REMARK INTER:                  -8.167
REMARK INTRA:                  -0.326
REMARK UNBOUND:                -0.292
REMARK  5 active torsions:
REMARK  status: ('A' for Active; 'I' for Inactive)
REMARK    1  A    between atoms: O_2  and  C_13 
REMARK    2  A    between atoms: O_4  and  C_16 
REMARK    3  A    between atoms: O_5  and  C_19 
REMARK    4  A    between atoms: O_6  and  C_21 
REMARK    5  A    between atoms: C_9  and  C_10 
ROOT
HETATM    1  O   UNK     0       5.831  43.932  22.346  0.00  0.00    -0.309 OA
HETATM    2  O   UNK     0       5.772  43.840  18.273  0.00  0.00    -0.287 OA
HETATM    3  C   UNK     0       4.647  43.377  20.299  0.00  0.00     0.081 A 
HETATM    4  C   UNK     0       4.732  43.438  21.688  0.00  0.00     0.095 A 
HETATM    5  C   UNK     0       6.905  44.382  21.593  0.00  0.00     0.090 A 
HETATM    6  C   UNK     0       5.780  43.861  19.496  0.00  0.00     0.190 A 
HETATM    7  C   UNK     0       6.939  44.380  20.251  0.00  0.00     0.094 A 
HETATM    8  C   UNK     0       3.503  42.864  19.684  0.00  0.00     0.085 A 
HETATM    9  C   UNK     0       3.671  42.987  22.473  0.00  0.00     0.075 A 
HETATM   10  C   UNK     0       2.526  42.475  21.862  0.00  0.00     0.071 A 
HETATM   11  C   UNK     0       2.443  42.413  20.471  0.00  0.00     0.074 A 
ENDROOT
BRANCH   5  12
HETATM   12  C   UNK     0       8.029  44.896  22.398  0.00  0.00     0.001 A 
HETATM   13  C   UNK     0       8.162  44.523  23.738  0.00  0.00     0.053 A 
HETATM   14  C   UNK     0       9.225  45.010  24.499  0.00  0.00     0.099 A 
HETATM   15  C   UNK     0      10.159  45.871  23.923  0.00  0.00     0.098 A 
HETATM   16  C   UNK     0      10.029  46.247  22.586  0.00  0.00     0.040 A 
HETATM   17  C   UNK     0       8.966  45.760  21.825  0.00  0.00     0.017 A 
BRANCH  14  18
HETATM   18  O   UNK     0       9.341  44.637  25.805  0.00  0.00    -0.358 OA
HETATM   19  H   UNK     0       9.942  45.260  26.248  0.00  0.00     0.217 HD
ENDBRANCH  14  18
BRANCH  15  20
HETATM   20  O   UNK     0      11.201  46.352  24.656  0.00  0.00    -0.358 OA
HETATM   21  H   UNK     0      10.917  46.456  25.580  0.00  0.00     0.217 HD
ENDBRANCH  15  20
ENDBRANCH   5  12
BRANCH   8  22
HETATM   22  O   UNK     0       3.371  42.783  18.330  0.00  0.00    -0.360 OA
HETATM   23  H   UNK     0       2.818  42.024  18.087  0.00  0.00     0.217 HD
ENDBRANCH   8  22
BRANCH  10  24
HETATM   24  O   UNK     0       1.488  42.033  22.625  0.00  0.00    -0.361 OA
HETATM   25  H   UNK     0       1.792  41.933  23.544  0.00  0.00     0.217 HD
ENDBRANCH  10  24
TORSDOF 5
ENDMDL
MODEL 8
REMARK VINA RESULT:    -6.952      4.159      7.775
REMARK INTER + INTRA:          -8.463
REMARK INTER:                  -8.171
REMARK INTRA:                  -0.292
REMARK UNBOUND:                -0.292
REMARK  5 active torsions:
REMARK  status: ('A' for Active; 'I' for Inactive)
REMARK    1  A    between atoms: O_2  and  C_13 
REMARK    2  A    between atoms: O_4  and  C_16 
REMARK    3  A    between atoms: O_5  and  C_19 
REMARK    4  A    between atoms: O_6  and  C_21 
REMARK    5  A    between atoms: C_9  and  C_10 
ROOT
HETATM    1  O   UNK     0       9.282  43.467  20.769  0.00  0.00    -0.309 OA
HETATM    2  O   UNK     0      11.054  45.255  17.566  0.00  0.00    -0.287 OA
HETATM    3  C   UNK     0      11.238  43.717  19.350  0.00  0.00     0.081 A 
HETATM    4  C   UNK     0      10.572  43.144  20.431  0.00  0.00     0.095 A 
HETATM    5  C   UNK     0       8.617  44.413  20.004  0.00  0.00     0.090 A 
HETATM    6  C   UNK     0      10.532  44.714  18.530  0.00  0.00     0.190 A 
HETATM    7  C   UNK     0       9.147  45.030  18.936  0.00  0.00     0.094 A 
HETATM    8  C   UNK     0      12.552  43.349  19.053  0.00  0.00     0.085 A 
HETATM    9  C   UNK     0      11.218  42.195  21.224  0.00  0.00     0.075 A 
HETATM   10  C   UNK     0      12.530  41.823  20.930  0.00  0.00     0.071 A 
HETATM   11  C   UNK     0      13.196  42.399  19.848  0.00  0.00     0.074 A 
ENDROOT
BRANCH   5  12
HETATM   12  C   UNK     0       7.236  44.682  20.450  0.00  0.00     0.001 A 
HETATM   13  C   UNK     0       6.745  45.990  20.468  0.00  0.00     0.053 A 
HETATM   14  C   UNK     0       5.441  46.243  20.889  0.00  0.00     0.099 A 
HETATM   15  C   UNK     0       4.620  45.190  21.294  0.00  0.00     0.098 A 
HETATM   16  C   UNK     0       5.106  43.883  21.278  0.00  0.00     0.040 A 
HETATM   17  C   UNK     0       6.412  43.629  20.856  0.00  0.00     0.017 A 
BRANCH  14  18
HETATM   18  O   UNK     0       4.977  47.525  20.902  0.00  0.00    -0.358 OA
HETATM   19  H   UNK     0       4.176  47.554  21.453  0.00  0.00     0.217 HD
ENDBRANCH  14  18
BRANCH  15  20
HETATM   20  O   UNK     0       3.344  45.425  21.706  0.00  0.00    -0.358 OA
HETATM   21  H   UNK     0       3.289  45.278  22.666  0.00  0.00     0.217 HD
ENDBRANCH  15  20
ENDBRANCH   5  12
BRANCH   8  22
HETATM   22  O   UNK     0      13.245  43.880  18.008  0.00  0.00    -0.360 OA
HETATM   23  H   UNK     0      13.468  44.807  18.184  0.00  0.00     0.217 HD
ENDBRANCH   8  22
BRANCH  10  24
HETATM   24  O   UNK     0      13.163  40.897  21.702  0.00  0.00    -0.361 OA
HETATM   25  H   UNK     0      12.948  40.009  21.369  0.00  0.00     0.217 HD
ENDBRANCH  10  24
TORSDOF 5
ENDMDL
MODEL 9
REMARK VINA RESULT:    -6.895      3.198      8.225
REMARK INTER + INTRA:          -8.396
REMARK INTER:                  -8.111
REMARK INTRA:                  -0.286
REMARK UNBOUND:                -0.292
REMARK  5 active torsions:
REMARK  status: ('A' for Active; 'I' for Inactive)
REMARK    1  A    between atoms: O_2  and  C_13 
REMARK    2  A    between atoms: O_4  and  C_16 
REMARK    3  A    between atoms: O_5  and  C_19 
REMARK    4  A    between atoms: O_6  and  C_21 
REMARK    5  A    between atoms: C_9  and  C_10 
ROOT
HETATM    1  O   UNK     0       1.892  40.388  22.781  0.00  0.00    -0.309 OA
HETATM    2  O   UNK     0       2.986  41.367  26.581  0.00  0.00    -0.287 OA
HETATM    3  C   UNK     0       3.012  41.931  24.287  0.00  0.00     0.081 A 
HETATM    4  C   UNK     0       2.605  41.537  23.014  0.00  0.00     0.095 A 
HETATM    5  C   UNK     0       1.570  39.581  23.862  0.00  0.00     0.090 A 
HETATM    6  C   UNK     0       2.664  41.081  25.437  0.00  0.00     0.190 A 
HETATM    7  C   UNK     0       1.899  39.854  25.134  0.00  0.00     0.094 A 
HETATM    8  C   UNK     0       3.735  43.112  24.464  0.00  0.00     0.085 A 
HETATM    9  C   UNK     0       2.919  42.325  21.907  0.00  0.00     0.075 A 
HETATM   10  C   UNK     0       3.642  43.506  22.079  0.00  0.00     0.071 A 
HETATM   11  C   UNK     0       4.049  43.898  23.354  0.00  0.00     0.074 A 
ENDROOT
BRANCH   5  12
HETATM   12  C   UNK     0       0.799  38.375  23.501  0.00  0.00     0.001 A 
HETATM   13  C   UNK     0       1.365  37.399  22.676  0.00  0.00     0.053 A 
HETATM   14  C   UNK     0       0.636  36.260  22.336  0.00  0.00     0.099 A 
HETATM   15  C   UNK     0      -0.662  36.092  22.819  0.00  0.00     0.098 A 
HETATM   16  C   UNK     0      -1.231  37.064  23.642  0.00  0.00     0.040 A 
HETATM   17  C   UNK     0      -0.501  38.203  23.983  0.00  0.00     0.017 A 
BRANCH  14  18
HETATM   18  O   UNK     0       1.202  35.318  21.530  0.00  0.00    -0.358 OA
HETATM   19  H   UNK     0       2.117  35.173  21.824  0.00  0.00     0.217 HD
ENDBRANCH  14  18
BRANCH  15  20
HETATM   20  O   UNK     0      -1.383  34.983  22.494  0.00  0.00    -0.358 OA
HETATM   21  H   UNK     0      -2.328  35.172  22.621  0.00  0.00     0.217 HD
ENDBRANCH  15  20
ENDBRANCH   5  12
BRANCH   8  22
HETATM   22  O   UNK     0       4.155  43.539  25.687  0.00  0.00    -0.360 OA
HETATM   23  H   UNK     0       3.657  43.097  26.391  0.00  0.00     0.217 HD
ENDBRANCH   8  22
BRANCH  10  24
HETATM   24  O   UNK     0       3.950  44.278  21.000  0.00  0.00    -0.361 OA
HETATM   25  H   UNK     0       3.817  45.213  21.232  0.00  0.00     0.217 HD
ENDBRANCH  10  24
TORSDOF 5
ENDMDL
