MODEL 1
REMARK VINA RESULT:      -8.6      0.000      0.000
REMARK  5 active torsions:
REMARK  status: ('A' for Active; 'I' for Inactive)
REMARK    1  A    between atoms: O_2  and  C_13 
REMARK    2  A    between atoms: O_4  and  C_16 
REMARK    3  A    between atoms: O_5  and  C_19 
REMARK    4  A    between atoms: O_6  and  C_21 
REMARK    5  A    between atoms: C_9  and  C_10 
ROOT
HETATM    1  O   UNK     0       4.495  43.950  22.882  0.00  0.00    -0.309 OA
HETATM    2  O   UNK     0       1.915  41.444  20.969  0.00  0.00    -0.287 OA
HETATM    3  C   UNK     0       2.914  42.110  23.004  0.00  0.00     0.081 A 
HETATM    4  C   UNK     0       3.810  42.999  23.595  0.00  0.00     0.095 A 
HETATM    5  C   UNK     0       4.292  44.023  21.512  0.00  0.00     0.090 A 
HETATM    6  C   UNK     0       2.688  42.190  21.552  0.00  0.00     0.190 A 
HETATM    7  C   UNK     0       3.451  43.229  20.830  0.00  0.00     0.094 A 
HETATM    8  C   UNK     0       2.245  41.162  23.780  0.00  0.00     0.085 A 
HETATM    9  C   UNK     0       4.042  42.945  24.969  0.00  0.00     0.075 A 
HETATM   10  C   UNK     0       3.374  42.000  25.748  0.00  0.00     0.071 A 
HETATM   11  C   UNK     0       2.478  41.110  25.155  0.00  0.00     0.074 A 
ENDROOT
BRANCH   5  12
HETATM   12  C   UNK     0       5.072  45.083  20.845  0.00  0.00     0.001 A 
HETATM   13  C   UNK     0       6.233  44.761  20.138  0.00  0.00     0.053 A 
HETATM   14  C   UNK     0       6.971  45.763  19.508  0.00  0.00     0.099 A 
HETATM   15  C   UNK     0       6.550  47.091  19.582  0.00  0.00     0.098 A 
HETATM   16  C   UNK     0       5.392  47.417  20.287  0.00  0.00     0.040 A 
HETATM   17  C   UNK     0       4.654  46.414  20.918  0.00  0.00     0.017 A 
BRANCH  14  18
HETATM   18  O   UNK     0       8.102  45.433  18.823  0.00  0.00    -0.358 OA
HETATM   19  H   UNK     0       8.869  45.627  19.388  0.00  0.00     0.217 HD
ENDBRANCH  14  18
BRANCH  15  20
HETATM   20  O   UNK     0       7.261  48.078  18.969  0.00  0.00    -0.358 OA
HETATM   21  H   UNK     0       7.192  47.967  18.006  0.00  0.00     0.217 HD
ENDBRANCH  15  20
ENDBRANCH   5  12
BRANCH   8  22
HETATM   22  O   UNK     0       1.360  40.272  23.250  0.00  0.00    -0.360 OA
HETATM   23  H   UNK     0       1.815  39.460  22.980  0.00  0.00     0.217 HD
ENDBRANCH   8  22
BRANCH  10  24
HETATM   24  O   UNK     0       3.598  41.945  27.091  0.00  0.00    -0.361 OA
HETATM   25  H   UNK     0       2.891  41.423  27.507  0.00  0.00     0.217 HD
ENDBRANCH  10  24
TORSDOF 5
ENDMDL
MODEL 2
REMARK VINA RESULT:      -8.5      1.173      2.687
REMARK  5 active torsions:
REMARK  status: ('A' for Active; 'I' for Inactive)
REMARK    1  A    between atoms: O_2  and  C_13 
REMARK    2  A    between atoms: O_4  and  C_16 
REMARK    3  A    between atoms: O_5  and  C_19 
REMARK    4  A    between atoms: O_6  and  C_21 
REMARK    5  A    between atoms: C_9  and  C_10 
ROOT
HETATM    1  O   UNK     0       4.215  43.481  21.757  0.00  0.00    -0.309 OA
HETATM    2  O   UNK     0       4.334  43.784  25.818  0.00  0.00    -0.287 OA
HETATM    3  C   UNK     0       3.589  42.582  23.925  0.00  0.00     0.081 A 
HETATM    4  C   UNK     0       3.589  42.538  22.532  0.00  0.00     0.095 A 
HETATM    5  C   UNK     0       4.870  44.527  22.389  0.00  0.00     0.090 A 
HETATM    6  C   UNK     0       4.291  43.685  24.600  0.00  0.00     0.190 A 
HETATM    7  C   UNK     0       4.946  44.675  23.721  0.00  0.00     0.094 A 
HETATM    8  C   UNK     0       2.935  41.593  24.662  0.00  0.00     0.085 A 
HETATM    9  C   UNK     0       2.933  41.503  21.867  0.00  0.00     0.075 A 
HETATM   10  C   UNK     0       2.278  40.513  22.600  0.00  0.00     0.071 A 
HETATM   11  C   UNK     0       2.279  40.558  23.995  0.00  0.00     0.074 A 
ENDROOT
BRANCH   5  12
HETATM   12  C   UNK     0       5.513  45.480  21.464  0.00  0.00     0.001 A 
HETATM   13  C   UNK     0       6.881  45.387  21.198  0.00  0.00     0.053 A 
HETATM   14  C   UNK     0       7.489  46.287  20.324  0.00  0.00     0.099 A 
HETATM   15  C   UNK     0       6.730  47.285  19.711  0.00  0.00     0.098 A 
HETATM   16  C   UNK     0       5.364  47.382  19.974  0.00  0.00     0.040 A 
HETATM   17  C   UNK     0       4.756  46.481  20.849  0.00  0.00     0.017 A 
BRANCH  14  18
HETATM   18  O   UNK     0       8.825  46.184  20.075  0.00  0.00    -0.358 OA
HETATM   19  H   UNK     0       8.974  46.355  19.129  0.00  0.00     0.217 HD
ENDBRANCH  14  18
BRANCH  15  20
HETATM   20  O   UNK     0       7.312  48.169  18.854  0.00  0.00    -0.358 OA
HETATM   21  H   UNK     0       7.110  47.905  17.941  0.00  0.00     0.217 HD
ENDBRANCH  15  20
ENDBRANCH   5  12
BRANCH   8  22
HETATM   22  O   UNK     0       2.907  41.591  26.024  0.00  0.00    -0.360 OA
HETATM   23  H   UNK     0       2.436  40.810  26.354  0.00  0.00     0.217 HD
ENDBRANCH   8  22
BRANCH  10  24
HETATM   24  O   UNK     0       1.636  39.500  21.954  0.00  0.00    -0.361 OA
HETATM   25  H   UNK     0       0.711  39.471  22.252  0.00  0.00     0.217 HD
ENDBRANCH  10  24
TORSDOF 5
ENDMDL
MODEL 3
REMARK VINA RESULT:      -7.8      1.629      3.403
REMARK  5 active torsions:
REMARK  status: ('A' for Active; 'I' for Inactive)
REMARK    1  A    between atoms: O_2  and  C_13 
REMARK    2  A    between atoms: O_4  and  C_16 
REMARK    3  A    between atoms: O_5  and  C_19 
REMARK    4  A    between atoms: O_6  and  C_21 
REMARK    5  A    between atoms: C_9  and  C_10 
ROOT
HETATM    1  O   UNK     0       3.121  42.166  22.873  0.00  0.00    -0.309 OA
HETATM    2  O   UNK     0       4.218  43.067  26.692  0.00  0.00    -0.287 OA
HETATM    3  C   UNK     0       3.026  41.633  25.242  0.00  0.00     0.081 A 
HETATM    4  C   UNK     0       2.689  41.381  23.913  0.00  0.00     0.095 A 
HETATM    5  C   UNK     0       3.921  43.262  23.161  0.00  0.00     0.090 A 
HETATM    6  C   UNK     0       3.881  42.789  25.550  0.00  0.00     0.190 A 
HETATM    7  C   UNK     0       4.317  43.604  24.397  0.00  0.00     0.094 A 
HETATM    8  C   UNK     0       2.557  40.799  26.259  0.00  0.00     0.085 A 
HETATM    9  C   UNK     0       1.881  40.291  23.593  0.00  0.00     0.075 A 
HETATM   10  C   UNK     0       1.411  39.455  24.606  0.00  0.00     0.071 A 
HETATM   11  C   UNK     0       1.748  39.708  25.936  0.00  0.00     0.074 A 
ENDROOT
BRANCH   5  12
HETATM   12  C   UNK     0       4.332  44.033  21.972  0.00  0.00     0.001 A 
HETATM   13  C   UNK     0       4.460  45.422  22.045  0.00  0.00     0.053 A 
HETATM   14  C   UNK     0       4.850  46.150  20.922  0.00  0.00     0.099 A 
HETATM   15  C   UNK     0       5.113  45.492  19.720  0.00  0.00     0.098 A 
HETATM   16  C   UNK     0       4.985  44.106  19.642  0.00  0.00     0.040 A 
HETATM   17  C   UNK     0       4.596  43.377  20.767  0.00  0.00     0.017 A 
BRANCH  14  18
HETATM   18  O   UNK     0       4.969  47.505  21.009  0.00  0.00    -0.358 OA
HETATM   19  H   UNK     0       4.570  47.899  20.214  0.00  0.00     0.217 HD
ENDBRANCH  14  18
BRANCH  15  20
HETATM   20  O   UNK     0       5.494  46.193  18.616  0.00  0.00    -0.358 OA
HETATM   21  H   UNK     0       6.258  45.751  18.209  0.00  0.00     0.217 HD
ENDBRANCH  15  20
ENDBRANCH   5  12
BRANCH   8  22
HETATM   22  O   UNK     0       2.858  41.002  27.571  0.00  0.00    -0.360 OA
HETATM   23  H   UNK     0       2.111  41.416  28.031  0.00  0.00     0.217 HD
ENDBRANCH   8  22
BRANCH  10  24
HETATM   24  O   UNK     0       0.622  38.389  24.297  0.00  0.00    -0.361 OA
HETATM   25  H   UNK     0      -0.257  38.712  24.034  0.00  0.00     0.217 HD
ENDBRANCH  10  24
TORSDOF 5
ENDMDL
MODEL 4
REMARK VINA RESULT:      -7.7      1.510      7.143
REMARK  5 active torsions:
REMARK  status: ('A' for Active; 'I' for Inactive)
REMARK    1  A    between atoms: O_2  and  C_13 
REMARK    2  A    between atoms: O_4  and  C_16 
REMARK    3  A    between atoms: O_5  and  C_19 
REMARK    4  A    between atoms: O_6  and  C_21 
REMARK    5  A    between atoms: C_9  and  C_10 
ROOT
HETATM    1  O   UNK     0       5.953  43.370  20.946  0.00  0.00    -0.309 OA
HETATM    2  O   UNK     0       5.078  47.297  20.308  0.00  0.00    -0.287 OA
HETATM    3  C   UNK     0       6.645  45.541  20.105  0.00  0.00     0.081 A 
HETATM    4  C   UNK     0       6.879  44.189  20.352  0.00  0.00     0.095 A 
HETATM    5  C   UNK     0       4.735  43.914  21.325  0.00  0.00     0.090 A 
HETATM    6  C   UNK     0       5.351  46.120  20.497  0.00  0.00     0.190 A 
HETATM    7  C   UNK     0       4.390  45.197  21.136  0.00  0.00     0.094 A 
HETATM    8  C   UNK     0       7.625  46.327  19.496  0.00  0.00     0.085 A 
HETATM    9  C   UNK     0       8.097  43.615  19.989  0.00  0.00     0.075 A 
HETATM   10  C   UNK     0       9.078  44.397  19.380  0.00  0.00     0.071 A 
HETATM   11  C   UNK     0       8.843  45.750  19.134  0.00  0.00     0.074 A 
ENDROOT
BRANCH   5  12
HETATM   12  C   UNK     0       3.813  42.945  21.949  0.00  0.00     0.001 A 
HETATM   13  C   UNK     0       3.746  42.835  23.340  0.00  0.00     0.053 A 
HETATM   14  C   UNK     0       2.875  41.919  23.929  0.00  0.00     0.099 A 
HETATM   15  C   UNK     0       2.065  41.112  23.130  0.00  0.00     0.098 A 
HETATM   16  C   UNK     0       2.130  41.219  21.741  0.00  0.00     0.040 A 
HETATM   17  C   UNK     0       3.002  42.134  21.151  0.00  0.00     0.017 A 
BRANCH  14  18
HETATM   18  O   UNK     0       2.821  41.822  25.288  0.00  0.00    -0.358 OA
HETATM   19  H   UNK     0       2.291  42.564  25.626  0.00  0.00     0.217 HD
ENDBRANCH  14  18
BRANCH  15  20
HETATM   20  O   UNK     0       1.210  40.215  23.694  0.00  0.00    -0.358 OA
HETATM   21  H   UNK     0       0.805  40.616  24.481  0.00  0.00     0.217 HD
ENDBRANCH  15  20
ENDBRANCH   5  12
BRANCH   8  22
HETATM   22  O   UNK     0       7.445  47.652  19.234  0.00  0.00    -0.360 OA
HETATM   23  H   UNK     0       8.083  48.187  19.732  0.00  0.00     0.217 HD
ENDBRANCH   8  22
BRANCH  10  24
HETATM   24  O   UNK     0      10.269  43.839  19.024  0.00  0.00    -0.361 OA
HETATM   25  H   UNK     0      10.394  43.016  19.526  0.00  0.00     0.217 HD
ENDBRANCH  10  24
TORSDOF 5
ENDMDL
MODEL 5
REMARK VINA RESULT:      -7.5      1.789      6.789
REMARK  5 active torsions:
REMARK  status: ('A' for Active; 'I' for Inactive)
REMARK    1  A    between atoms: O_2  and  C_13 
REMARK    2  A    between atoms: O_4  and  C_16 
REMARK    3  A    between atoms: O_5  and  C_19 
REMARK    4  A    between atoms: O_6  and  C_21 
REMARK    5  A    between atoms: C_9  and  C_10 
ROOT
HETATM    1  O   UNK     0       5.522  43.935  22.218  0.00  0.00    -0.309 OA
HETATM    2  O   UNK     0       4.003  43.099  18.531  0.00  0.00    -0.287 OA
HETATM    3  C   UNK     0       5.605  44.271  19.813  0.00  0.00     0.081 A 
HETATM    4  C   UNK     0       6.075  44.512  21.102  0.00  0.00     0.095 A 
HETATM    5  C   UNK     0       4.443  43.081  22.052  0.00  0.00     0.090 A 
HETATM    6  C   UNK     0       4.465  43.358  19.633  0.00  0.00     0.190 A 
HETATM    7  C   UNK     0       3.904  42.765  20.864  0.00  0.00     0.094 A 
HETATM    8  C   UNK     0       6.208  44.887  18.715  0.00  0.00     0.085 A 
HETATM    9  C   UNK     0       7.155  45.372  21.301  0.00  0.00     0.075 A 
HETATM   10  C   UNK     0       7.761  45.989  20.206  0.00  0.00     0.071 A 
HETATM   11  C   UNK     0       7.288  45.747  18.916  0.00  0.00     0.074 A 
ENDROOT
BRANCH   5  12
HETATM   12  C   UNK     0       3.929  42.511  23.314  0.00  0.00     0.001 A 
HETATM   13  C   UNK     0       4.331  43.045  24.541  0.00  0.00     0.053 A 
HETATM   14  C   UNK     0       3.846  42.507  25.732  0.00  0.00     0.099 A 
HETATM   15  C   UNK     0       2.957  41.433  25.702  0.00  0.00     0.098 A 
HETATM   16  C   UNK     0       2.554  40.896  24.479  0.00  0.00     0.040 A 
HETATM   17  C   UNK     0       3.039  41.435  23.287  0.00  0.00     0.017 A 
BRANCH  14  18
HETATM   18  O   UNK     0       4.248  43.039  26.921  0.00  0.00    -0.358 OA
HETATM   19  H   UNK     0       4.549  42.313  27.494  0.00  0.00     0.217 HD
ENDBRANCH  14  18
BRANCH  15  20
HETATM   20  O   UNK     0       2.476  40.900  26.859  0.00  0.00    -0.358 OA
HETATM   21  H   UNK     0       1.584  40.547  26.698  0.00  0.00     0.217 HD
ENDBRANCH  15  20
ENDBRANCH   5  12
BRANCH   8  22
HETATM   22  O   UNK     0       5.785  44.683  17.436  0.00  0.00    -0.360 OA
HETATM   23  H   UNK     0       4.910  44.266  17.429  0.00  0.00     0.217 HD
ENDBRANCH   8  22
BRANCH  10  24
HETATM   24  O   UNK     0       8.816  46.829  20.396  0.00  0.00    -0.361 OA
HETATM   25  H   UNK     0       8.651  47.657  19.914  0.00  0.00     0.217 HD
ENDBRANCH  10  24
TORSDOF 5
ENDMDL
MODEL 6
REMARK VINA RESULT:      -7.3      3.826      6.836
REMARK  5 active torsions:
REMARK  status: ('A' for Active; 'I' for Inactive)
REMARK    1  A    between atoms: O_2  and  C_13 
REMARK    2  A    between atoms: O_4  and  C_16 
REMARK    3  A    between atoms: O_5  and  C_19 
REMARK    4  A    between atoms: O_6  and  C_21 
REMARK    5  A    between atoms: C_9  and  C_10 
ROOT
HETATM    1  O   UNK     0       8.863  45.334  19.854  0.00  0.00    -0.309 OA
HETATM    2  O   UNK     0       6.265  43.358  22.292  0.00  0.00    -0.287 OA
HETATM    3  C   UNK     0       6.673  45.223  20.900  0.00  0.00     0.081 A 
HETATM    4  C   UNK     0       7.610  45.846  20.078  0.00  0.00     0.095 A 
HETATM    5  C   UNK     0       9.213  44.149  20.482  0.00  0.00     0.090 A 
HETATM    6  C   UNK     0       7.038  43.960  21.560  0.00  0.00     0.190 A 
HETATM    7  C   UNK     0       8.399  43.452  21.290  0.00  0.00     0.094 A 
HETATM    8  C   UNK     0       5.411  45.790  21.090  0.00  0.00     0.085 A 
HETATM    9  C   UNK     0       7.289  47.043  19.438  0.00  0.00     0.075 A 
HETATM   10  C   UNK     0       6.029  47.614  19.626  0.00  0.00     0.071 A 
HETATM   11  C   UNK     0       5.093  46.989  20.450  0.00  0.00     0.074 A 
ENDROOT
BRANCH   5  12
HETATM   12  C   UNK     0      10.579  43.685  20.169  0.00  0.00     0.001 A 
HETATM   13  C   UNK     0      11.239  44.158  19.032  0.00  0.00     0.053 A 
HETATM   14  C   UNK     0      12.529  43.720  18.736  0.00  0.00     0.099 A 
HETATM   15  C   UNK     0      13.166  42.807  19.577  0.00  0.00     0.098 A 
HETATM   16  C   UNK     0      12.511  42.331  20.713  0.00  0.00     0.040 A 
HETATM   17  C   UNK     0      11.219  42.770  21.008  0.00  0.00     0.017 A 
BRANCH  14  18
HETATM   18  O   UNK     0      13.159  44.190  17.623  0.00  0.00    -0.358 OA
HETATM   19  H   UNK     0      14.116  44.196  17.793  0.00  0.00     0.217 HD
ENDBRANCH  14  18
BRANCH  15  20
HETATM   20  O   UNK     0      14.426  42.372  19.300  0.00  0.00    -0.358 OA
HETATM   21  H   UNK     0      14.961  43.125  18.996  0.00  0.00     0.217 HD
ENDBRANCH  15  20
ENDBRANCH   5  12
BRANCH   8  22
HETATM   22  O   UNK     0       4.462  45.220  21.883  0.00  0.00    -0.360 OA
HETATM   23  H   UNK     0       4.054  45.886  22.458  0.00  0.00     0.217 HD
ENDBRANCH   8  22
BRANCH  10  24
HETATM   24  O   UNK     0       5.713  48.783  19.003  0.00  0.00    -0.361 OA
HETATM   25  H   UNK     0       4.825  48.703  18.614  0.00  0.00     0.217 HD
ENDBRANCH  10  24
TORSDOF 5
ENDMDL
MODEL 7
REMARK VINA RESULT:      -7.3     22.798     24.302
REMARK  5 active torsions:
REMARK  status: ('A' for Active; 'I' for Inactive)
REMARK    1  A    between atoms: O_2  and  C_13 
REMARK    2  A    between atoms: O_4  and  C_16 
REMARK    3  A    between atoms: O_5  and  C_19 
REMARK    4  A    between atoms: O_6  and  C_21 
REMARK    5  A    between atoms: C_9  and  C_10 
ROOT
HETATM    1  O   UNK     0      -8.205  47.764   1.927  0.00  0.00    -0.309 OA
HETATM    2  O   UNK     0     -10.634  47.858   5.196  0.00  0.00    -0.287 OA
HETATM    3  C   UNK     0      -9.018  46.677   3.941  0.00  0.00     0.081 A 
HETATM    4  C   UNK     0      -8.212  46.710   2.805  0.00  0.00     0.095 A 
HETATM    5  C   UNK     0      -9.044  48.839   2.179  0.00  0.00     0.090 A 
HETATM    6  C   UNK     0      -9.902  47.820   4.217  0.00  0.00     0.190 A 
HETATM    7  C   UNK     0      -9.861  48.928   3.240  0.00  0.00     0.094 A 
HETATM    8  C   UNK     0      -8.982  45.577   4.800  0.00  0.00     0.085 A 
HETATM    9  C   UNK     0      -7.363  45.641   2.521  0.00  0.00     0.075 A 
HETATM   10  C   UNK     0      -7.324  44.540   3.377  0.00  0.00     0.071 A 
HETATM   11  C   UNK     0      -8.132  44.508   4.514  0.00  0.00     0.074 A 
ENDROOT
BRANCH   5  12
HETATM   12  C   UNK     0      -8.954  49.919   1.176  0.00  0.00     0.001 A 
HETATM   13  C   UNK     0      -7.784  50.090   0.431  0.00  0.00     0.053 A 
HETATM   14  C   UNK     0      -7.699  51.110  -0.515  0.00  0.00     0.099 A 
HETATM   15  C   UNK     0      -8.784  51.963  -0.722  0.00  0.00     0.098 A 
HETATM   16  C   UNK     0      -9.953  51.796   0.020  0.00  0.00     0.040 A 
HETATM   17  C   UNK     0     -10.038  50.776   0.968  0.00  0.00     0.017 A 
BRANCH  14  18
HETATM   18  O   UNK     0      -6.552  51.265  -1.234  0.00  0.00    -0.358 OA
HETATM   19  H   UNK     0      -6.719  50.970  -2.145  0.00  0.00     0.217 HD
ENDBRANCH  14  18
BRANCH  15  20
HETATM   20  O   UNK     0      -8.713  52.963  -1.644  0.00  0.00    -0.358 OA
HETATM   21  H   UNK     0      -9.508  52.934  -2.203  0.00  0.00     0.217 HD
ENDBRANCH  15  20
ENDBRANCH   5  12
BRANCH   8  22
HETATM   22  O   UNK     0      -9.750  45.497   5.923  0.00  0.00    -0.360 OA
HETATM   23  H   UNK     0      -9.535  46.219   6.534  0.00  0.00     0.217 HD
ENDBRANCH   8  22
BRANCH  10  24
HETATM   24  O   UNK     0      -6.496  43.494   3.103  0.00  0.00    -0.361 OA
HETATM   25  H   UNK     0      -5.800  43.456   3.781  0.00  0.00     0.217 HD
ENDBRANCH  10  24
TORSDOF 5
ENDMDL
MODEL 8
REMARK VINA RESULT:      -7.3      1.762      6.854
REMARK  5 active torsions:
REMARK  status: ('A' for Active; 'I' for Inactive)
REMARK    1  A    between atoms: O_2  and  C_13 
REMARK    2  A    between atoms: O_4  and  C_16 
REMARK    3  A    between atoms: O_5  and  C_19 
REMARK    4  A    between atoms: O_6  and  C_21 
REMARK    5  A    between atoms: C_9  and  C_10 
ROOT
HETATM    1  O   UNK     0       5.849  43.779  21.975  0.00  0.00    -0.309 OA
HETATM    2  O   UNK     0       5.217  44.314  17.986  0.00  0.00    -0.287 OA
HETATM    3  C   UNK     0       6.554  44.781  19.877  0.00  0.00     0.081 A 
HETATM    4  C   UNK     0       6.712  44.556  21.243  0.00  0.00     0.095 A 
HETATM    5  C   UNK     0       4.769  43.200  21.326  0.00  0.00     0.090 A 
HETATM    6  C   UNK     0       5.415  44.161  19.183  0.00  0.00     0.190 A 
HETATM    7  C   UNK     0       4.514  43.337  20.015  0.00  0.00     0.094 A 
HETATM    8  C   UNK     0       7.465  45.581  19.184  0.00  0.00     0.085 A 
HETATM    9  C   UNK     0       7.784  45.130  21.925  0.00  0.00     0.075 A 
HETATM   10  C   UNK     0       8.696  45.930  21.236  0.00  0.00     0.071 A 
HETATM   11  C   UNK     0       8.536  46.155  19.869  0.00  0.00     0.074 A 
ENDROOT
BRANCH   5  12
HETATM   12  C   UNK     0       3.910  42.382  22.203  0.00  0.00     0.001 A 
HETATM   13  C   UNK     0       3.195  41.302  21.678  0.00  0.00     0.053 A 
HETATM   14  C   UNK     0       2.383  40.529  22.507  0.00  0.00     0.099 A 
HETATM   15  C   UNK     0       2.282  40.833  23.865  0.00  0.00     0.098 A 
HETATM   16  C   UNK     0       2.993  41.911  24.393  0.00  0.00     0.040 A 
HETATM   17  C   UNK     0       3.805  42.684  23.563  0.00  0.00     0.017 A 
BRANCH  14  18
HETATM   18  O   UNK     0       1.692  39.479  21.980  0.00  0.00    -0.358 OA
HETATM   19  H   UNK     0       0.764  39.554  22.259  0.00  0.00     0.217 HD
ENDBRANCH  14  18
BRANCH  15  20
HETATM   20  O   UNK     0       1.493  40.085  24.685  0.00  0.00    -0.358 OA
HETATM   21  H   UNK     0       1.873  40.088  25.580  0.00  0.00     0.217 HD
ENDBRANCH  15  20
ENDBRANCH   5  12
BRANCH   8  22
HETATM   22  O   UNK     0       7.354  45.831  17.849  0.00  0.00    -0.360 OA
HETATM   23  H   UNK     0       8.013  45.322  17.352  0.00  0.00     0.217 HD
ENDBRANCH   8  22
BRANCH  10  24
HETATM   24  O   UNK     0       9.745  46.492  21.899  0.00  0.00    -0.361 OA
HETATM   25  H   UNK     0       9.666  46.287  22.846  0.00  0.00     0.217 HD
ENDBRANCH  10  24
TORSDOF 5
ENDMDL
MODEL 9
REMARK VINA RESULT:      -7.1     28.582     30.306
REMARK  5 active torsions:
REMARK  status: ('A' for Active; 'I' for Inactive)
REMARK    1  A    between atoms: O_2  and  C_13 
REMARK    2  A    between atoms: O_4  and  C_16 
REMARK    3  A    between atoms: O_5  and  C_19 
REMARK    4  A    between atoms: O_6  and  C_21 
REMARK    5  A    between atoms: C_9  and  C_10 
ROOT
HETATM    1  O   UNK     0      15.725  67.620   7.876  0.00  0.00    -0.309 OA
HETATM    2  O   UNK     0      12.819  69.869   9.635  0.00  0.00    -0.287 OA
HETATM    3  C   UNK     0      13.637  68.844   7.670  0.00  0.00     0.081 A 
HETATM    4  C   UNK     0      14.664  68.070   7.133  0.00  0.00     0.095 A 
HETATM    5  C   UNK     0      15.780  67.958   9.220  0.00  0.00     0.090 A 
HETATM    6  C   UNK     0      13.687  69.197   9.097  0.00  0.00     0.190 A 
HETATM    7  C   UNK     0      14.851  68.691   9.854  0.00  0.00     0.094 A 
HETATM    8  C   UNK     0      12.580  69.274   6.864  0.00  0.00     0.085 A 
HETATM    9  C   UNK     0      14.640  67.721   5.783  0.00  0.00     0.075 A 
HETATM   10  C   UNK     0      13.586  68.147   4.974  0.00  0.00     0.071 A 
HETATM   11  C   UNK     0      12.559  68.922   5.514  0.00  0.00     0.074 A 
ENDROOT
BRANCH   5  12
HETATM   12  C   UNK     0      16.959  67.419   9.926  0.00  0.00     0.001 A 
HETATM   13  C   UNK     0      17.385  66.111   9.685  0.00  0.00     0.053 A 
HETATM   14  C   UNK     0      18.498  65.602  10.353  0.00  0.00     0.099 A 
HETATM   15  C   UNK     0      19.190  66.399  11.264  0.00  0.00     0.098 A 
HETATM   16  C   UNK     0      18.768  67.705  11.509  0.00  0.00     0.040 A 
HETATM   17  C   UNK     0      17.654  68.215  10.841  0.00  0.00     0.017 A 
BRANCH  14  18
HETATM   18  O   UNK     0      18.901  64.323  10.107  0.00  0.00    -0.358 OA
HETATM   19  H   UNK     0      19.089  64.239   9.157  0.00  0.00     0.217 HD
ENDBRANCH  14  18
BRANCH  15  20
HETATM   20  O   UNK     0      20.280  65.913  11.922  0.00  0.00    -0.358 OA
HETATM   21  H   UNK     0      20.687  66.632  12.435  0.00  0.00     0.217 HD
ENDBRANCH  15  20
ENDBRANCH   5  12
BRANCH   8  22
HETATM   22  O   UNK     0      11.554  70.030   7.342  0.00  0.00    -0.360 OA
HETATM   23  H   UNK     0      11.533  70.002   8.311  0.00  0.00     0.217 HD
ENDBRANCH   8  22
BRANCH  10  24
HETATM   24  O   UNK     0      13.559  67.807   3.656  0.00  0.00    -0.361 OA
HETATM   25  H   UNK     0      13.917  68.544   3.132  0.00  0.00     0.217 HD
ENDBRANCH  10  24
TORSDOF 5
ENDMDL
