MODEL 1
REMARK VINA RESULT:      -7.9      0.000      0.000
REMARK  13 active torsions:
REMARK  status: ('A' for Active; 'I' for Inactive)
REMARK    1  A    between atoms: O_2  and  C_16 
REMARK    2  A    between atoms: O_2  and  C_17 
REMARK    3  A    between atoms: O_4  and  C_12 
REMARK    4  A    between atoms: O_5  and  C_13 
REMARK    5  A    between atoms: O_6  and  C_15 
REMARK    6  A    between atoms: O_6  and  C_22 
REMARK    7  A    between atoms: O_7  and  C_14 
REMARK    8  A    between atoms: O_8  and  C_18 
REMARK    9  A    between atoms: O_9  and  C_19 
REMARK   10  A    between atoms: O_10  and  C_20 
REMARK   11  A    between atoms: C_11  and  C_16 
REMARK   12  A    between atoms: C_22  and  C_23 
REMARK   13  A    between atoms: C_24  and  C_25 
ROOT
HETATM    1  O   UNK     0     -11.911  46.060  33.859  0.00  0.00    -0.348 OA
HETATM    2  C   UNK     0     -11.345  46.341  35.140  0.00  0.00     0.180 C 
HETATM    3  C   UNK     0     -12.401  46.146  36.231  0.00  0.00     0.180 C 
HETATM    4  C   UNK     0     -13.634  47.005  35.953  0.00  0.00     0.183 C 
HETATM    5  C   UNK     0     -14.119  46.827  34.514  0.00  0.00     0.204 C 
HETATM    6  C   UNK     0     -12.967  46.954  33.519  0.00  0.00     0.291 C 
ENDROOT
BRANCH   2   7
HETATM    7  C   UNK     0     -10.154  45.408  35.333  0.00  0.00     0.205 C 
BRANCH   7   8
HETATM    8  O   UNK     0     -10.534  44.369  36.217  0.00  0.00    -0.356 OA
BRANCH   8   9
HETATM    9  C   UNK     0      -9.414  43.829  36.910  0.00  0.00     0.290 C 
HETATM   10  O   UNK     0      -9.085  42.512  36.454  0.00  0.00    -0.356 OA
HETATM   11  C   UNK     0     -10.077  41.534  36.758  0.00  0.00     0.205 C 
HETATM   12  C   UNK     0     -10.278  41.424  38.264  0.00  0.00     0.173 C 
HETATM   13  C   UNK     0     -10.674  42.778  38.856  0.00  0.00     0.182 C 
HETATM   14  C   UNK     0      -9.673  43.855  38.424  0.00  0.00     0.204 C 
BRANCH  12  15
HETATM   15  O   UNK     0     -11.277  40.458  38.561  0.00  0.00    -0.391 OA
HETATM   16  H   UNK     0     -11.068  40.078  39.433  0.00  0.00     0.210 HD
ENDBRANCH  12  15
BRANCH  13  17
HETATM   17  O   UNK     0     -11.979  43.129  38.400  0.00  0.00    -0.390 OA
HETATM   18  H   UNK     0     -12.362  43.742  39.050  0.00  0.00     0.210 HD
ENDBRANCH  13  17
BRANCH  14  19
HETATM   19  O   UNK     0      -8.430  43.639  39.088  0.00  0.00    -0.388 OA
HETATM   20  H   UNK     0      -8.612  43.411  40.015  0.00  0.00     0.210 HD
ENDBRANCH  14  19
ENDBRANCH   8   9
ENDBRANCH   7   8
ENDBRANCH   2   7
BRANCH   6  21
HETATM   21  O   UNK     0     -13.469  46.637  32.222  0.00  0.00    -0.355 OA
BRANCH  21  22
HETATM   22  C   UNK     0     -13.410  45.241  31.972  0.00  0.00     0.198 C 
BRANCH  22  23
HETATM   23  C   UNK     0     -14.628  44.839  31.203  0.00  0.00     0.000 C 
HETATM   24  C   UNK     0     -15.075  43.575  31.140  0.00  0.00     0.009 C 
BRANCH  24  25
HETATM   25  C   UNK     0     -16.275  43.134  30.408  0.00  0.00    -0.036 A 
HETATM   26  C   UNK     0     -17.025  42.080  30.906  0.00  0.00     0.011 A 
HETATM   27  C   UNK     0     -18.162  41.662  30.214  0.00  0.00     0.001 A 
HETATM   28  C   UNK     0     -18.534  42.305  29.034  0.00  0.00     0.000 A 
HETATM   29  C   UNK     0     -17.770  43.365  28.545  0.00  0.00     0.001 A 
HETATM   30  C   UNK     0     -16.633  43.782  29.237  0.00  0.00     0.011 A 
ENDBRANCH  24  25
ENDBRANCH  22  23
ENDBRANCH  21  22
ENDBRANCH   6  21
BRANCH   3  31
HETATM   31  O   UNK     0     -11.847  46.510  37.493  0.00  0.00    -0.390 OA
HETATM   32  H   UNK     0     -12.394  46.104  38.189  0.00  0.00     0.210 HD
ENDBRANCH   3  31
BRANCH   5  33
HETATM   33  O   UNK     0     -15.085  47.834  34.213  0.00  0.00    -0.388 OA
HETATM   34  H   UNK     0     -14.636  48.696  34.223  0.00  0.00     0.210 HD
ENDBRANCH   5  33
BRANCH   4  35
HETATM   35  O   UNK     0     -14.665  46.603  36.857  0.00  0.00    -0.390 OA
HETATM   36  H   UNK     0     -14.931  47.390  37.363  0.00  0.00     0.210 HD
ENDBRANCH   4  35
TORSDOF 13
ENDMDL
MODEL 2
REMARK VINA RESULT:      -7.6     13.827     18.507
REMARK  13 active torsions:
REMARK  status: ('A' for Active; 'I' for Inactive)
REMARK    1  A    between atoms: O_2  and  C_16 
REMARK    2  A    between atoms: O_2  and  C_17 
REMARK    3  A    between atoms: O_4  and  C_12 
REMARK    4  A    between atoms: O_5  and  C_13 
REMARK    5  A    between atoms: O_6  and  C_15 
REMARK    6  A    between atoms: O_6  and  C_22 
REMARK    7  A    between atoms: O_7  and  C_14 
REMARK    8  A    between atoms: O_8  and  C_18 
REMARK    9  A    between atoms: O_9  and  C_19 
REMARK   10  A    between atoms: O_10  and  C_20 
REMARK   11  A    between atoms: C_11  and  C_16 
REMARK   12  A    between atoms: C_22  and  C_23 
REMARK   13  A    between atoms: C_24  and  C_25 
ROOT
HETATM    1  O   UNK     0       1.375  41.678  40.681  0.00  0.00    -0.348 OA
HETATM    2  C   UNK     0       0.131  41.289  41.266  0.00  0.00     0.180 C 
HETATM    3  C   UNK     0      -0.764  40.640  40.208  0.00  0.00     0.180 C 
HETATM    4  C   UNK     0      -0.965  41.577  39.018  0.00  0.00     0.183 C 
HETATM    5  C   UNK     0       0.371  42.129  38.517  0.00  0.00     0.204 C 
HETATM    6  C   UNK     0       1.216  42.669  39.669  0.00  0.00     0.291 C 
ENDROOT
BRANCH   2   7
HETATM    7  C   UNK     0       0.441  40.329  42.411  0.00  0.00     0.205 C 
BRANCH   7   8
HETATM    8  O   UNK     0       1.397  40.935  43.261  0.00  0.00    -0.356 OA
BRANCH   8   9
HETATM    9  C   UNK     0       2.377  40.002  43.704  0.00  0.00     0.290 C 
HETATM   10  O   UNK     0       2.941  40.374  44.967  0.00  0.00    -0.356 OA
HETATM   11  C   UNK     0       3.718  41.568  44.920  0.00  0.00     0.205 C 
HETATM   12  C   UNK     0       4.893  41.407  43.963  0.00  0.00     0.173 C 
HETATM   13  C   UNK     0       4.400  41.043  42.561  0.00  0.00     0.182 C 
HETATM   14  C   UNK     0       3.462  39.833  42.629  0.00  0.00     0.204 C 
BRANCH  12  15
HETATM   15  O   UNK     0       5.657  42.603  43.910  0.00  0.00    -0.391 OA
HETATM   16  H   UNK     0       6.589  42.362  44.051  0.00  0.00     0.210 HD
ENDBRANCH  12  15
BRANCH  13  17
HETATM   17  O   UNK     0       3.703  42.156  42.003  0.00  0.00    -0.390 OA
HETATM   18  H   UNK     0       3.389  42.705  42.742  0.00  0.00     0.210 HD
ENDBRANCH  13  17
BRANCH  14  19
HETATM   19  O   UNK     0       4.218  38.666  42.945  0.00  0.00    -0.388 OA
HETATM   20  H   UNK     0       3.603  37.920  43.044  0.00  0.00     0.210 HD
ENDBRANCH  14  19
ENDBRANCH   8   9
ENDBRANCH   7   8
ENDBRANCH   2   7
BRANCH   6  21
HETATM   21  O   UNK     0       2.493  43.032  39.145  0.00  0.00    -0.355 OA
BRANCH  21  22
HETATM   22  C   UNK     0       3.040  41.991  38.351  0.00  0.00     0.198 C 
BRANCH  22  23
HETATM   23  C   UNK     0       4.514  42.209  38.222  0.00  0.00     0.000 C 
HETATM   24  C   UNK     0       5.295  41.495  37.398  0.00  0.00     0.009 C 
BRANCH  24  25
HETATM   25  C   UNK     0       6.746  41.683  37.226  0.00  0.00    -0.036 A 
HETATM   26  C   UNK     0       7.556  40.576  37.032  0.00  0.00     0.011 A 
HETATM   27  C   UNK     0       8.931  40.755  36.869  0.00  0.00     0.001 A 
HETATM   28  C   UNK     0       9.475  42.038  36.902  0.00  0.00     0.000 A 
HETATM   29  C   UNK     0       8.647  43.143  37.098  0.00  0.00     0.001 A 
HETATM   30  C   UNK     0       7.273  42.965  37.261  0.00  0.00     0.011 A 
ENDBRANCH  24  25
ENDBRANCH  22  23
ENDBRANCH  21  22
ENDBRANCH   6  21
BRANCH   3  31
HETATM   31  O   UNK     0      -2.030  40.332  40.785  0.00  0.00    -0.390 OA
HETATM   32  H   UNK     0      -2.231  41.015  41.449  0.00  0.00     0.210 HD
ENDBRANCH   3  31
BRANCH   5  33
HETATM   33  O   UNK     0       0.127  43.196  37.601  0.00  0.00    -0.388 OA
HETATM   34  H   UNK     0       0.670  43.044  36.809  0.00  0.00     0.210 HD
ENDBRANCH   5  33
BRANCH   4  35
HETATM   35  O   UNK     0      -1.595  40.835  37.973  0.00  0.00    -0.390 OA
HETATM   36  H   UNK     0      -1.756  41.449  37.236  0.00  0.00     0.210 HD
ENDBRANCH   4  35
TORSDOF 13
ENDMDL
MODEL 3
REMARK VINA RESULT:      -7.6     18.913     24.640
REMARK  13 active torsions:
REMARK  status: ('A' for Active; 'I' for Inactive)
REMARK    1  A    between atoms: O_2  and  C_16 
REMARK    2  A    between atoms: O_2  and  C_17 
REMARK    3  A    between atoms: O_4  and  C_12 
REMARK    4  A    between atoms: O_5  and  C_13 
REMARK    5  A    between atoms: O_6  and  C_15 
REMARK    6  A    between atoms: O_6  and  C_22 
REMARK    7  A    between atoms: O_7  and  C_14 
REMARK    8  A    between atoms: O_8  and  C_18 
REMARK    9  A    between atoms: O_9  and  C_19 
REMARK   10  A    between atoms: O_10  and  C_20 
REMARK   11  A    between atoms: C_11  and  C_16 
REMARK   12  A    between atoms: C_22  and  C_23 
REMARK   13  A    between atoms: C_24  and  C_25 
ROOT
HETATM    1  O   UNK     0     -19.952  52.330  14.627  0.00  0.00    -0.348 OA
HETATM    2  C   UNK     0     -20.403  52.727  13.331  0.00  0.00     0.180 C 
HETATM    3  C   UNK     0     -21.276  51.628  12.722  0.00  0.00     0.180 C 
HETATM    4  C   UNK     0     -20.523  50.299  12.679  0.00  0.00     0.183 C 
HETATM    5  C   UNK     0     -19.891  49.976  14.034  0.00  0.00     0.204 C 
HETATM    6  C   UNK     0     -19.119  51.174  14.585  0.00  0.00     0.291 C 
ENDROOT
BRANCH   2   7
HETATM    7  C   UNK     0     -21.171  54.036  13.492  0.00  0.00     0.205 C 
BRANCH   7   8
HETATM    8  O   UNK     0     -21.102  54.751  12.272  0.00  0.00    -0.356 OA
BRANCH   8   9
HETATM    9  C   UNK     0     -21.300  56.148  12.468  0.00  0.00     0.290 C 
HETATM   10  O   UNK     0     -22.684  56.474  12.638  0.00  0.00    -0.356 OA
HETATM   11  C   UNK     0     -23.473  56.258  11.470  0.00  0.00     0.205 C 
HETATM   12  C   UNK     0     -22.973  57.119  10.317  0.00  0.00     0.173 C 
HETATM   13  C   UNK     0     -21.502  56.822  10.021  0.00  0.00     0.182 C 
HETATM   14  C   UNK     0     -20.673  56.933  11.305  0.00  0.00     0.204 C 
BRANCH  12  15
HETATM   15  O   UNK     0     -23.754  56.891   9.153  0.00  0.00    -0.391 OA
HETATM   16  H   UNK     0     -24.582  57.393   9.252  0.00  0.00     0.210 HD
ENDBRANCH  12  15
BRANCH  13  17
HETATM   17  O   UNK     0     -21.385  55.504   9.489  0.00  0.00    -0.390 OA
HETATM   18  H   UNK     0     -21.800  55.505   8.609  0.00  0.00     0.210 HD
ENDBRANCH  13  17
BRANCH  14  19
HETATM   19  O   UNK     0     -20.584  58.302  11.695  0.00  0.00    -0.388 OA
HETATM   20  H   UNK     0     -20.268  58.340  12.613  0.00  0.00     0.210 HD
ENDBRANCH  14  19
ENDBRANCH   8   9
ENDBRANCH   7   8
ENDBRANCH   2   7
BRANCH   6  21
HETATM   21  O   UNK     0     -18.683  50.846  15.904  0.00  0.00    -0.355 OA
BRANCH  21  22
HETATM   22  C   UNK     0     -17.267  50.852  15.996  0.00  0.00     0.198 C 
BRANCH  22  23
HETATM   23  C   UNK     0     -16.830  49.650  16.770  0.00  0.00     0.000 C 
HETATM   24  C   UNK     0     -15.825  49.671  17.659  0.00  0.00     0.009 C 
BRANCH  24  25
HETATM   25  C   UNK     0     -15.370  48.517  18.455  0.00  0.00    -0.036 A 
HETATM   26  C   UNK     0     -14.569  48.732  19.565  0.00  0.00     0.011 A 
HETATM   27  C   UNK     0     -14.138  47.639  20.319  0.00  0.00     0.001 A 
HETATM   28  C   UNK     0     -14.516  46.348  19.952  0.00  0.00     0.000 A 
HETATM   29  C   UNK     0     -15.323  46.147  18.833  0.00  0.00     0.001 A 
HETATM   30  C   UNK     0     -15.753  47.240  18.079  0.00  0.00     0.011 A 
ENDBRANCH  24  25
ENDBRANCH  22  23
ENDBRANCH  21  22
ENDBRANCH   6  21
BRANCH   3  31
HETATM   31  O   UNK     0     -21.650  52.002  11.398  0.00  0.00    -0.390 OA
HETATM   32  H   UNK     0     -22.602  52.203  11.401  0.00  0.00     0.210 HD
ENDBRANCH   3  31
BRANCH   5  33
HETATM   33  O   UNK     0     -18.981  48.887  13.884  0.00  0.00    -0.388 OA
HETATM   34  H   UNK     0     -19.250  48.182  14.497  0.00  0.00     0.210 HD
ENDBRANCH   5  33
BRANCH   4  35
HETATM   35  O   UNK     0     -21.457  49.274  12.333  0.00  0.00    -0.390 OA
HETATM   36  H   UNK     0     -22.269  49.711  12.025  0.00  0.00     0.210 HD
ENDBRANCH   4  35
TORSDOF 13
ENDMDL
MODEL 4
REMARK VINA RESULT:      -7.5     13.876     16.379
REMARK  13 active torsions:
REMARK  status: ('A' for Active; 'I' for Inactive)
REMARK    1  A    between atoms: O_2  and  C_16 
REMARK    2  A    between atoms: O_2  and  C_17 
REMARK    3  A    between atoms: O_4  and  C_12 
REMARK    4  A    between atoms: O_5  and  C_13 
REMARK    5  A    between atoms: O_6  and  C_15 
REMARK    6  A    between atoms: O_6  and  C_22 
REMARK    7  A    between atoms: O_7  and  C_14 
REMARK    8  A    between atoms: O_8  and  C_18 
REMARK    9  A    between atoms: O_9  and  C_19 
REMARK   10  A    between atoms: O_10  and  C_20 
REMARK   11  A    between atoms: C_11  and  C_16 
REMARK   12  A    between atoms: C_22  and  C_23 
REMARK   13  A    between atoms: C_24  and  C_25 
ROOT
HETATM    1  O   UNK     0     -17.713  39.651  20.034  0.00  0.00    -0.348 OA
HETATM    2  C   UNK     0     -17.367  38.576  20.908  0.00  0.00     0.180 C 
HETATM    3  C   UNK     0     -18.093  38.736  22.247  0.00  0.00     0.180 C 
HETATM    4  C   UNK     0     -17.787  40.096  22.871  0.00  0.00     0.183 C 
HETATM    5  C   UNK     0     -17.990  41.227  21.861  0.00  0.00     0.204 C 
HETATM    6  C   UNK     0     -17.296  40.919  20.535  0.00  0.00     0.291 C 
ENDROOT
BRANCH   2   7
HETATM    7  C   UNK     0     -17.748  37.273  20.211  0.00  0.00     0.205 C 
BRANCH   7   8
HETATM    8  O   UNK     0     -16.840  36.265  20.613  0.00  0.00    -0.356 OA
BRANCH   8   9
HETATM    9  C   UNK     0     -17.362  34.961  20.380  0.00  0.00     0.290 C 
HETATM   10  O   UNK     0     -18.195  34.516  21.456  0.00  0.00    -0.356 OA
HETATM   11  C   UNK     0     -17.491  34.301  22.677  0.00  0.00     0.205 C 
HETATM   12  C   UNK     0     -16.421  33.231  22.499  0.00  0.00     0.173 C 
HETATM   13  C   UNK     0     -15.445  33.625  21.390  0.00  0.00     0.182 C 
HETATM   14  C   UNK     0     -16.212  33.977  20.111  0.00  0.00     0.204 C 
BRANCH  12  15
HETATM   15  O   UNK     0     -15.715  33.030  23.714  0.00  0.00    -0.391 OA
HETATM   16  H   UNK     0     -16.339  32.651  24.358  0.00  0.00     0.210 HD
ENDBRANCH  12  15
BRANCH  13  17
HETATM   17  O   UNK     0     -14.680  34.753  21.814  0.00  0.00    -0.390 OA
HETATM   18  H   UNK     0     -14.893  35.491  21.218  0.00  0.00     0.210 HD
ENDBRANCH  13  17
BRANCH  14  19
HETATM   19  O   UNK     0     -16.769  32.790  19.552  0.00  0.00    -0.388 OA
HETATM   20  H   UNK     0     -16.054  32.285  19.130  0.00  0.00     0.210 HD
ENDBRANCH  14  19
ENDBRANCH   8   9
ENDBRANCH   7   8
ENDBRANCH   2   7
BRANCH   6  21
HETATM   21  O   UNK     0     -17.648  41.943  19.606  0.00  0.00    -0.355 OA
BRANCH  21  22
HETATM   22  C   UNK     0     -16.510  42.413  18.900  0.00  0.00     0.198 C 
BRANCH  22  23
HETATM   23  C   UNK     0     -16.312  43.861  19.216  0.00  0.00     0.000 C 
HETATM   24  C   UNK     0     -15.488  44.661  18.522  0.00  0.00     0.009 C 
BRANCH  24  25
HETATM   25  C   UNK     0     -15.273  46.094  18.786  0.00  0.00    -0.036 A 
HETATM   26  C   UNK     0     -14.549  46.477  19.904  0.00  0.00     0.011 A 
HETATM   27  C   UNK     0     -14.345  47.835  20.155  0.00  0.00     0.001 A 
HETATM   28  C   UNK     0     -14.867  48.790  19.283  0.00  0.00     0.000 A 
HETATM   29  C   UNK     0     -15.594  48.389  18.163  0.00  0.00     0.001 A 
HETATM   30  C   UNK     0     -15.798  47.032  17.912  0.00  0.00     0.011 A 
ENDBRANCH  24  25
ENDBRANCH  22  23
ENDBRANCH  21  22
ENDBRANCH   6  21
BRANCH   3  31
HETATM   31  O   UNK     0     -17.675  37.704  23.136  0.00  0.00    -0.390 OA
HETATM   32  H   UNK     0     -18.221  36.917  22.961  0.00  0.00     0.210 HD
ENDBRANCH   3  31
BRANCH   5  33
HETATM   33  O   UNK     0     -17.439  42.434  22.385  0.00  0.00    -0.388 OA
HETATM   34  H   UNK     0     -18.073  43.152  22.220  0.00  0.00     0.210 HD
ENDBRANCH   5  33
BRANCH   4  35
HETATM   35  O   UNK     0     -18.671  40.283  23.978  0.00  0.00    -0.390 OA
HETATM   36  H   UNK     0     -18.166  40.726  24.681  0.00  0.00     0.210 HD
ENDBRANCH   4  35
TORSDOF 13
ENDMDL
MODEL 5
REMARK VINA RESULT:      -7.5     18.774     24.527
REMARK  13 active torsions:
REMARK  status: ('A' for Active; 'I' for Inactive)
REMARK    1  A    between atoms: O_2  and  C_16 
REMARK    2  A    between atoms: O_2  and  C_17 
REMARK    3  A    between atoms: O_4  and  C_12 
REMARK    4  A    between atoms: O_5  and  C_13 
REMARK    5  A    between atoms: O_6  and  C_15 
REMARK    6  A    between atoms: O_6  and  C_22 
REMARK    7  A    between atoms: O_7  and  C_14 
REMARK    8  A    between atoms: O_8  and  C_18 
REMARK    9  A    between atoms: O_9  and  C_19 
REMARK   10  A    between atoms: O_10  and  C_20 
REMARK   11  A    between atoms: C_11  and  C_16 
REMARK   12  A    between atoms: C_22  and  C_23 
REMARK   13  A    between atoms: C_24  and  C_25 
ROOT
HETATM    1  O   UNK     0     -20.175  51.970  13.743  0.00  0.00    -0.348 OA
HETATM    2  C   UNK     0     -20.664  52.093  12.407  0.00  0.00     0.180 C 
HETATM    3  C   UNK     0     -20.711  50.717  11.739  0.00  0.00     0.180 C 
HETATM    4  C   UNK     0     -19.339  50.045  11.783  0.00  0.00     0.183 C 
HETATM    5  C   UNK     0     -18.749  50.083  13.193  0.00  0.00     0.204 C 
HETATM    6  C   UNK     0     -18.836  51.486  13.794  0.00  0.00     0.291 C 
ENDROOT
BRANCH   2   7
HETATM    7  C   UNK     0     -22.046  52.735  12.479  0.00  0.00     0.205 C 
BRANCH   7   8
HETATM    8  O   UNK     0     -21.895  54.087  12.869  0.00  0.00    -0.356 OA
BRANCH   8   9
HETATM    9  C   UNK     0     -22.664  54.962  12.049  0.00  0.00     0.290 C 
HETATM   10  O   UNK     0     -22.019  55.233  10.800  0.00  0.00    -0.356 OA
HETATM   11  C   UNK     0     -20.814  55.985  10.927  0.00  0.00     0.205 C 
HETATM   12  C   UNK     0     -21.092  57.341  11.564  0.00  0.00     0.173 C 
HETATM   13  C   UNK     0     -21.753  57.168  12.933  0.00  0.00     0.182 C 
HETATM   14  C   UNK     0     -22.978  56.256  12.816  0.00  0.00     0.204 C 
BRANCH  12  15
HETATM   15  O   UNK     0     -19.888  58.081  11.700  0.00  0.00    -0.391 OA
HETATM   16  H   UNK     0     -19.576  57.969  12.615  0.00  0.00     0.210 HD
ENDBRANCH  12  15
BRANCH  13  17
HETATM   17  O   UNK     0     -20.814  56.593  13.840  0.00  0.00    -0.390 OA
HETATM   18  H   UNK     0     -19.927  56.883  13.565  0.00  0.00     0.210 HD
ENDBRANCH  13  17
BRANCH  14  19
HETATM   19  O   UNK     0     -24.014  56.943  12.116  0.00  0.00    -0.388 OA
HETATM   20  H   UNK     0     -24.679  57.236  12.762  0.00  0.00     0.210 HD
ENDBRANCH  14  19
ENDBRANCH   8   9
ENDBRANCH   7   8
ENDBRANCH   2   7
BRANCH   6  21
HETATM   21  O   UNK     0     -18.401  51.411  15.150  0.00  0.00    -0.355 OA
BRANCH  21  22
HETATM   22  C   UNK     0     -19.096  50.397  15.861  0.00  0.00     0.198 C 
BRANCH  22  23
HETATM   23  C   UNK     0     -18.191  49.842  16.914  0.00  0.00     0.000 C 
HETATM   24  C   UNK     0     -17.059  49.177  16.636  0.00  0.00     0.009 C 
BRANCH  24  25
HETATM   25  C   UNK     0     -16.130  48.626  17.638  0.00  0.00    -0.036 A 
HETATM   26  C   UNK     0     -16.157  47.268  17.915  0.00  0.00     0.011 A 
HETATM   27  C   UNK     0     -15.278  46.746  18.864  0.00  0.00     0.001 A 
HETATM   28  C   UNK     0     -14.383  47.588  19.522  0.00  0.00     0.000 A 
HETATM   29  C   UNK     0     -14.366  48.953  19.233  0.00  0.00     0.001 A 
HETATM   30  C   UNK     0     -15.246  49.475  18.284  0.00  0.00     0.011 A 
ENDBRANCH  24  25
ENDBRANCH  22  23
ENDBRANCH  21  22
ENDBRANCH   6  21
BRANCH   3  31
HETATM   31  O   UNK     0     -21.120  50.866  10.381  0.00  0.00    -0.390 OA
HETATM   32  H   UNK     0     -21.207  49.976   9.995  0.00  0.00     0.210 HD
ENDBRANCH   3  31
BRANCH   5  33
HETATM   33  O   UNK     0     -17.375  49.702  13.141  0.00  0.00    -0.388 OA
HETATM   34  H   UNK     0     -16.836  50.492  13.311  0.00  0.00     0.210 HD
ENDBRANCH   5  33
BRANCH   4  35
HETATM   35  O   UNK     0     -19.500  48.686  11.371  0.00  0.00    -0.390 OA
HETATM   36  H   UNK     0     -18.698  48.434  10.881  0.00  0.00     0.210 HD
ENDBRANCH   4  35
TORSDOF 13
ENDMDL
MODEL 6
REMARK VINA RESULT:      -7.3     21.356     26.516
REMARK  13 active torsions:
REMARK  status: ('A' for Active; 'I' for Inactive)
REMARK    1  A    between atoms: O_2  and  C_16 
REMARK    2  A    between atoms: O_2  and  C_17 
REMARK    3  A    between atoms: O_4  and  C_12 
REMARK    4  A    between atoms: O_5  and  C_13 
REMARK    5  A    between atoms: O_6  and  C_15 
REMARK    6  A    between atoms: O_6  and  C_22 
REMARK    7  A    between atoms: O_7  and  C_14 
REMARK    8  A    between atoms: O_8  and  C_18 
REMARK    9  A    between atoms: O_9  and  C_19 
REMARK   10  A    between atoms: O_10  and  C_20 
REMARK   11  A    between atoms: C_11  and  C_16 
REMARK   12  A    between atoms: C_22  and  C_23 
REMARK   13  A    between atoms: C_24  and  C_25 
ROOT
HETATM    1  O   UNK     0     -22.233  53.530  10.807  0.00  0.00    -0.348 OA
HETATM    2  C   UNK     0     -23.092  53.797   9.698  0.00  0.00     0.180 C 
HETATM    3  C   UNK     0     -24.533  53.976  10.184  0.00  0.00     0.180 C 
HETATM    4  C   UNK     0     -24.993  52.755  10.978  0.00  0.00     0.183 C 
HETATM    5  C   UNK     0     -23.969  52.372  12.048  0.00  0.00     0.204 C 
HETATM    6  C   UNK     0     -22.557  52.310  11.468  0.00  0.00     0.291 C 
ENDROOT
BRANCH   2   7
HETATM    7  C   UNK     0     -22.570  55.051   9.002  0.00  0.00     0.205 C 
BRANCH   7   8
HETATM    8  O   UNK     0     -21.694  55.725   9.887  0.00  0.00    -0.356 OA
BRANCH   8   9
HETATM    9  C   UNK     0     -22.251  56.953  10.347  0.00  0.00     0.290 C 
HETATM   10  O   UNK     0     -21.265  57.987  10.439  0.00  0.00    -0.356 OA
HETATM   11  C   UNK     0     -20.279  57.754  11.442  0.00  0.00     0.205 C 
HETATM   12  C   UNK     0     -20.926  57.660  12.819  0.00  0.00     0.173 C 
HETATM   13  C   UNK     0     -21.978  56.550  12.845  0.00  0.00     0.182 C 
HETATM   14  C   UNK     0     -22.966  56.732  11.688  0.00  0.00     0.204 C 
BRANCH  12  15
HETATM   15  O   UNK     0     -19.941  57.415  13.813  0.00  0.00    -0.391 OA
HETATM   16  H   UNK     0     -19.069  57.475  13.384  0.00  0.00     0.210 HD
ENDBRANCH  12  15
BRANCH  13  17
HETATM   17  O   UNK     0     -21.331  55.285  12.727  0.00  0.00    -0.390 OA
HETATM   18  H   UNK     0     -21.415  54.831  13.583  0.00  0.00     0.210 HD
ENDBRANCH  13  17
BRANCH  14  19
HETATM   19  O   UNK     0     -23.788  57.870  11.942  0.00  0.00    -0.388 OA
HETATM   20  H   UNK     0     -23.921  58.345  11.105  0.00  0.00     0.210 HD
ENDBRANCH  14  19
ENDBRANCH   8   9
ENDBRANCH   7   8
ENDBRANCH   2   7
BRANCH   6  21
HETATM   21  O   UNK     0     -21.648  52.090  12.547  0.00  0.00    -0.355 OA
BRANCH  21  22
HETATM   22  C   UNK     0     -20.751  51.029  12.258  0.00  0.00     0.198 C 
BRANCH  22  23
HETATM   23  C   UNK     0     -20.197  50.506  13.545  0.00  0.00     0.000 C 
HETATM   24  C   UNK     0     -19.085  50.991  14.119  0.00  0.00     0.009 C 
BRANCH  24  25
HETATM   25  C   UNK     0     -18.511  50.518  15.391  0.00  0.00    -0.036 A 
HETATM   26  C   UNK     0     -17.136  50.541  15.565  0.00  0.00     0.011 A 
HETATM   27  C   UNK     0     -16.591  50.093  16.769  0.00  0.00     0.001 A 
HETATM   28  C   UNK     0     -17.429  49.630  17.783  0.00  0.00     0.000 A 
HETATM   29  C   UNK     0     -18.811  49.614  17.594  0.00  0.00     0.001 A 
HETATM   30  C   UNK     0     -19.356  50.061  16.390  0.00  0.00     0.011 A 
ENDBRANCH  24  25
ENDBRANCH  22  23
ENDBRANCH  21  22
ENDBRANCH   6  21
BRANCH   3  31
HETATM   31  O   UNK     0     -25.390  54.159   9.060  0.00  0.00    -0.390 OA
HETATM   32  H   UNK     0     -26.228  53.700   9.244  0.00  0.00     0.210 HD
ENDBRANCH   3  31
BRANCH   5  33
HETATM   33  O   UNK     0     -24.294  51.087  12.576  0.00  0.00    -0.388 OA
HETATM   34  H   UNK     0     -25.239  51.084  12.802  0.00  0.00     0.210 HD
ENDBRANCH   5  33
BRANCH   4  35
HETATM   35  O   UNK     0     -26.236  53.077  11.603  0.00  0.00    -0.390 OA
HETATM   36  H   UNK     0     -26.770  53.567  10.954  0.00  0.00     0.210 HD
ENDBRANCH   4  35
TORSDOF 13
ENDMDL
MODEL 7
REMARK VINA RESULT:      -7.2      1.824      2.592
REMARK  13 active torsions:
REMARK  status: ('A' for Active; 'I' for Inactive)
REMARK    1  A    between atoms: O_2  and  C_16 
REMARK    2  A    between atoms: O_2  and  C_17 
REMARK    3  A    between atoms: O_4  and  C_12 
REMARK    4  A    between atoms: O_5  and  C_13 
REMARK    5  A    between atoms: O_6  and  C_15 
REMARK    6  A    between atoms: O_6  and  C_22 
REMARK    7  A    between atoms: O_7  and  C_14 
REMARK    8  A    between atoms: O_8  and  C_18 
REMARK    9  A    between atoms: O_9  and  C_19 
REMARK   10  A    between atoms: O_10  and  C_20 
REMARK   11  A    between atoms: C_11  and  C_16 
REMARK   12  A    between atoms: C_22  and  C_23 
REMARK   13  A    between atoms: C_24  and  C_25 
ROOT
HETATM    1  O   UNK     0     -12.967  47.099  35.106  0.00  0.00    -0.348 OA
HETATM    2  C   UNK     0     -12.640  47.643  36.385  0.00  0.00     0.180 C 
HETATM    3  C   UNK     0     -13.428  48.934  36.621  0.00  0.00     0.180 C 
HETATM    4  C   UNK     0     -13.177  49.936  35.495  0.00  0.00     0.183 C 
HETATM    5  C   UNK     0     -13.357  49.285  34.123  0.00  0.00     0.204 C 
HETATM    6  C   UNK     0     -12.598  47.962  34.034  0.00  0.00     0.291 C 
ENDROOT
BRANCH   2   7
HETATM    7  C   UNK     0     -12.963  46.583  37.434  0.00  0.00     0.205 C 
BRANCH   7   8
HETATM    8  O   UNK     0     -11.765  46.226  38.098  0.00  0.00    -0.356 OA
BRANCH   8   9
HETATM    9  C   UNK     0     -10.710  45.963  37.177  0.00  0.00     0.290 C 
HETATM   10  O   UNK     0     -10.910  44.734  36.470  0.00  0.00    -0.356 OA
HETATM   11  C   UNK     0     -10.832  43.575  37.297  0.00  0.00     0.205 C 
HETATM   12  C   UNK     0      -9.458  43.472  37.947  0.00  0.00     0.173 C 
HETATM   13  C   UNK     0      -9.154  44.726  38.767  0.00  0.00     0.182 C 
HETATM   14  C   UNK     0      -9.360  45.980  37.910  0.00  0.00     0.204 C 
BRANCH  12  15
HETATM   15  O   UNK     0      -9.390  42.323  38.779  0.00  0.00    -0.391 OA
HETATM   16  H   UNK     0      -9.181  41.560  38.212  0.00  0.00     0.210 HD
ENDBRANCH  12  15
BRANCH  13  17
HETATM   17  O   UNK     0     -10.023  44.772  39.898  0.00  0.00    -0.390 OA
HETATM   18  H   UNK     0     -10.233  43.854  40.143  0.00  0.00     0.210 HD
ENDBRANCH  13  17
BRANCH  14  19
HETATM   19  O   UNK     0      -8.327  46.058  36.930  0.00  0.00    -0.388 OA
HETATM   20  H   UNK     0      -7.670  46.709  37.228  0.00  0.00     0.210 HD
ENDBRANCH  14  19
ENDBRANCH   8   9
ENDBRANCH   7   8
ENDBRANCH   2   7
BRANCH   6  21
HETATM   21  O   UNK     0     -12.927  47.350  32.787  0.00  0.00    -0.355 OA
BRANCH  21  22
HETATM   22  C   UNK     0     -12.750  45.943  32.839  0.00  0.00     0.198 C 
BRANCH  22  23
HETATM   23  C   UNK     0     -13.996  45.283  32.340  0.00  0.00     0.000 C 
HETATM   24  C   UNK     0     -14.051  44.583  31.196  0.00  0.00     0.009 C 
BRANCH  24  25
HETATM   25  C   UNK     0     -15.249  43.905  30.673  0.00  0.00    -0.036 A 
HETATM   26  C   UNK     0     -15.673  44.175  29.381  0.00  0.00     0.011 A 
HETATM   27  C   UNK     0     -16.807  43.532  28.885  0.00  0.00     0.001 A 
HETATM   28  C   UNK     0     -17.502  42.627  29.687  0.00  0.00     0.000 A 
HETATM   29  C   UNK     0     -17.064  42.365  30.984  0.00  0.00     0.001 A 
HETATM   30  C   UNK     0     -15.929  43.008  31.481  0.00  0.00     0.011 A 
ENDBRANCH  24  25
ENDBRANCH  22  23
ENDBRANCH  21  22
ENDBRANCH   6  21
BRANCH   3  31
HETATM   31  O   UNK     0     -13.030  49.509  37.863  0.00  0.00    -0.390 OA
HETATM   32  H   UNK     0     -12.060  49.590  37.859  0.00  0.00     0.210 HD
ENDBRANCH   3  31
BRANCH   5  33
HETATM   33  O   UNK     0     -12.853  50.160  33.115  0.00  0.00    -0.388 OA
HETATM   34  H   UNK     0     -13.579  50.360  32.499  0.00  0.00     0.210 HD
ENDBRANCH   5  33
BRANCH   4  35
HETATM   35  O   UNK     0     -14.113  51.006  35.640  0.00  0.00    -0.390 OA
HETATM   36  H   UNK     0     -14.842  50.682  36.195  0.00  0.00     0.210 HD
ENDBRANCH   4  35
TORSDOF 13
ENDMDL
MODEL 8
REMARK VINA RESULT:      -7.1     13.636     17.803
REMARK  13 active torsions:
REMARK  status: ('A' for Active; 'I' for Inactive)
REMARK    1  A    between atoms: O_2  and  C_16 
REMARK    2  A    between atoms: O_2  and  C_17 
REMARK    3  A    between atoms: O_4  and  C_12 
REMARK    4  A    between atoms: O_5  and  C_13 
REMARK    5  A    between atoms: O_6  and  C_15 
REMARK    6  A    between atoms: O_6  and  C_22 
REMARK    7  A    between atoms: O_7  and  C_14 
REMARK    8  A    between atoms: O_8  and  C_18 
REMARK    9  A    between atoms: O_9  and  C_19 
REMARK   10  A    between atoms: O_10  and  C_20 
REMARK   11  A    between atoms: C_11  and  C_16 
REMARK   12  A    between atoms: C_22  and  C_23 
REMARK   13  A    between atoms: C_24  and  C_25 
ROOT
HETATM    1  O   UNK     0     -15.924  46.287  18.836  0.00  0.00    -0.348 OA
HETATM    2  C   UNK     0     -16.369  45.031  19.351  0.00  0.00     0.180 C 
HETATM    3  C   UNK     0     -16.556  45.125  20.868  0.00  0.00     0.180 C 
HETATM    4  C   UNK     0     -15.269  45.594  21.545  0.00  0.00     0.183 C 
HETATM    5  C   UNK     0     -14.707  46.842  20.862  0.00  0.00     0.204 C 
HETATM    6  C   UNK     0     -14.649  46.666  19.345  0.00  0.00     0.291 C 
ENDROOT
BRANCH   2   7
HETATM    7  C   UNK     0     -17.673  44.678  18.642  0.00  0.00     0.205 C 
BRANCH   7   8
HETATM    8  O   UNK     0     -17.657  43.296  18.333  0.00  0.00    -0.356 OA
BRANCH   8   9
HETATM    9  C   UNK     0     -16.348  42.845  18.000  0.00  0.00     0.290 C 
HETATM   10  O   UNK     0     -15.956  43.258  16.686  0.00  0.00    -0.356 OA
HETATM   11  C   UNK     0     -16.716  42.651  15.643  0.00  0.00     0.205 C 
HETATM   12  C   UNK     0     -16.559  41.136  15.675  0.00  0.00     0.173 C 
HETATM   13  C   UNK     0     -16.989  40.579  17.033  0.00  0.00     0.182 C 
HETATM   14  C   UNK     0     -16.263  41.319  18.161  0.00  0.00     0.204 C 
BRANCH  12  15
HETATM   15  O   UNK     0     -17.328  40.536  14.643  0.00  0.00    -0.391 OA
HETATM   16  H   UNK     0     -16.827  40.628  13.813  0.00  0.00     0.210 HD
ENDBRANCH  12  15
BRANCH  13  17
HETATM   17  O   UNK     0     -18.398  40.742  17.185  0.00  0.00    -0.390 OA
HETATM   18  H   UNK     0     -18.562  41.672  17.419  0.00  0.00     0.210 HD
ENDBRANCH  13  17
BRANCH  14  19
HETATM   19  O   UNK     0     -14.885  40.951  18.159  0.00  0.00    -0.388 OA
HETATM   20  H   UNK     0     -14.366  41.709  17.842  0.00  0.00     0.210 HD
ENDBRANCH  14  19
ENDBRANCH   8   9
ENDBRANCH   7   8
ENDBRANCH   2   7
BRANCH   6  21
HETATM   21  O   UNK     0     -14.252  47.912  18.774  0.00  0.00    -0.355 OA
BRANCH  21  22
HETATM   22  C   UNK     0     -14.838  49.006  19.462  0.00  0.00     0.198 C 
BRANCH  22  23
HETATM   23  C   UNK     0     -15.951  49.557  18.630  0.00  0.00     0.000 C 
HETATM   24  C   UNK     0     -16.057  49.346  17.309  0.00  0.00     0.009 C 
BRANCH  24  25
HETATM   25  C   UNK     0     -17.142  49.855  16.451  0.00  0.00    -0.036 A 
HETATM   26  C   UNK     0     -18.458  49.703  16.859  0.00  0.00     0.011 A 
HETATM   27  C   UNK     0     -19.485  50.184  16.048  0.00  0.00     0.001 A 
HETATM   28  C   UNK     0     -19.183  50.812  14.840  0.00  0.00     0.000 A 
HETATM   29  C   UNK     0     -17.854  50.958  14.442  0.00  0.00     0.001 A 
HETATM   30  C   UNK     0     -16.826  50.476  15.254  0.00  0.00     0.011 A 
ENDBRANCH  24  25
ENDBRANCH  22  23
ENDBRANCH  21  22
ENDBRANCH   6  21
BRANCH   3  31
HETATM   31  O   UNK     0     -16.919  43.845  21.378  0.00  0.00    -0.390 OA
HETATM   32  H   UNK     0     -17.355  43.978  22.238  0.00  0.00     0.210 HD
ENDBRANCH   3  31
BRANCH   5  33
HETATM   33  O   UNK     0     -13.382  47.084  21.336  0.00  0.00    -0.388 OA
HETATM   34  H   UNK     0     -12.758  46.777  20.658  0.00  0.00     0.210 HD
ENDBRANCH   5  33
BRANCH   4  35
HETATM   35  O   UNK     0     -15.571  45.893  22.909  0.00  0.00    -0.390 OA
HETATM   36  H   UNK     0     -16.511  45.690  23.050  0.00  0.00     0.210 HD
ENDBRANCH   4  35
TORSDOF 13
ENDMDL
MODEL 9
REMARK VINA RESULT:      -7.0     14.812     17.258
REMARK  13 active torsions:
REMARK  status: ('A' for Active; 'I' for Inactive)
REMARK    1  A    between atoms: O_2  and  C_16 
REMARK    2  A    between atoms: O_2  and  C_17 
REMARK    3  A    between atoms: O_4  and  C_12 
REMARK    4  A    between atoms: O_5  and  C_13 
REMARK    5  A    between atoms: O_6  and  C_15 
REMARK    6  A    between atoms: O_6  and  C_22 
REMARK    7  A    between atoms: O_7  and  C_14 
REMARK    8  A    between atoms: O_8  and  C_18 
REMARK    9  A    between atoms: O_9  and  C_19 
REMARK   10  A    between atoms: O_10  and  C_20 
REMARK   11  A    between atoms: C_11  and  C_16 
REMARK   12  A    between atoms: C_22  and  C_23 
REMARK   13  A    between atoms: C_24  and  C_25 
ROOT
HETATM    1  O   UNK     0     -17.735  37.329  20.092  0.00  0.00    -0.348 OA
HETATM    2  C   UNK     0     -17.639  36.130  20.863  0.00  0.00     0.180 C 
HETATM    3  C   UNK     0     -18.532  36.233  22.102  0.00  0.00     0.180 C 
HETATM    4  C   UNK     0     -18.176  37.469  22.926  0.00  0.00     0.183 C 
HETATM    5  C   UNK     0     -18.106  38.719  22.047  0.00  0.00     0.204 C 
HETATM    6  C   UNK     0     -17.262  38.473  20.798  0.00  0.00     0.291 C 
ENDROOT
BRANCH   2   7
HETATM    7  C   UNK     0     -18.051  34.969  19.963  0.00  0.00     0.205 C 
BRANCH   7   8
HETATM    8  O   UNK     0     -17.938  33.766  20.701  0.00  0.00    -0.356 OA
BRANCH   8   9
HETATM    9  C   UNK     0     -16.710  33.097  20.433  0.00  0.00     0.290 C 
HETATM   10  O   UNK     0     -16.908  31.891  19.686  0.00  0.00    -0.356 OA
HETATM   11  C   UNK     0     -17.607  30.878  20.404  0.00  0.00     0.205 C 
HETATM   12  C   UNK     0     -16.837  30.479  21.657  0.00  0.00     0.173 C 
HETATM   13  C   UNK     0     -16.602  31.694  22.555  0.00  0.00     0.182 C 
HETATM   14  C   UNK     0     -15.962  32.830  21.749  0.00  0.00     0.204 C 
BRANCH  12  15
HETATM   15  O   UNK     0     -17.545  29.478  22.375  0.00  0.00    -0.391 OA
HETATM   16  H   UNK     0     -17.067  28.639  22.258  0.00  0.00     0.210 HD
ENDBRANCH  12  15
BRANCH  13  17
HETATM   17  O   UNK     0     -17.849  32.133  23.091  0.00  0.00    -0.390 OA
HETATM   18  H   UNK     0     -17.752  32.179  24.058  0.00  0.00     0.210 HD
ENDBRANCH  13  17
BRANCH  14  19
HETATM   19  O   UNK     0     -14.616  32.483  21.429  0.00  0.00    -0.388 OA
HETATM   20  H   UNK     0     -14.554  31.515  21.371  0.00  0.00     0.210 HD
ENDBRANCH  14  19
ENDBRANCH   8   9
ENDBRANCH   7   8
ENDBRANCH   2   7
BRANCH   6  21
HETATM   21  O   UNK     0     -17.360  39.628  19.966  0.00  0.00    -0.355 OA
BRANCH  21  22
HETATM   22  C   UNK     0     -16.090  40.013  19.464  0.00  0.00     0.198 C 
BRANCH  22  23
HETATM   23  C   UNK     0     -16.230  41.323  18.757  0.00  0.00     0.000 C 
HETATM   24  C   UNK     0     -16.870  42.379  19.283  0.00  0.00     0.009 C 
BRANCH  24  25
HETATM   25  C   UNK     0     -17.020  43.692  18.631  0.00  0.00    -0.036 A 
HETATM   26  C   UNK     0     -17.509  44.762  19.364  0.00  0.00     0.011 A 
HETATM   27  C   UNK     0     -17.651  46.005  18.747  0.00  0.00     0.001 A 
HETATM   28  C   UNK     0     -17.301  46.162  17.407  0.00  0.00     0.000 A 
HETATM   29  C   UNK     0     -16.810  45.077  16.682  0.00  0.00     0.001 A 
HETATM   30  C   UNK     0     -16.668  43.833  17.298  0.00  0.00     0.011 A 
ENDBRANCH  24  25
ENDBRANCH  22  23
ENDBRANCH  21  22
ENDBRANCH   6  21
BRANCH   3  31
HETATM   31  O   UNK     0     -18.363  35.066  22.903  0.00  0.00    -0.390 OA
HETATM   32  H   UNK     0     -17.411  34.870  22.949  0.00  0.00     0.210 HD
ENDBRANCH   3  31
BRANCH   5  33
HETATM   33  O   UNK     0     -17.511  39.784  22.788  0.00  0.00    -0.388 OA
HETATM   34  H   UNK     0     -18.036  39.922  23.594  0.00  0.00     0.210 HD
ENDBRANCH   5  33
BRANCH   4  35
HETATM   35  O   UNK     0     -19.188  37.643  23.920  0.00  0.00    -0.390 OA
HETATM   36  H   UNK     0     -19.585  36.771  24.087  0.00  0.00     0.210 HD
ENDBRANCH   4  35
TORSDOF 13
ENDMDL
