MODEL 1
REMARK VINA RESULT:      -9.0      0.000      0.000
REMARK  13 active torsions:
REMARK  status: ('A' for Active; 'I' for Inactive)
REMARK    1  A    between atoms: O_2  and  C_16 
REMARK    2  A    between atoms: O_2  and  C_17 
REMARK    3  A    between atoms: O_4  and  C_12 
REMARK    4  A    between atoms: O_5  and  C_13 
REMARK    5  A    between atoms: O_6  and  C_15 
REMARK    6  A    between atoms: O_6  and  C_22 
REMARK    7  A    between atoms: O_7  and  C_14 
REMARK    8  A    between atoms: O_8  and  C_18 
REMARK    9  A    between atoms: O_9  and  C_19 
REMARK   10  A    between atoms: O_10  and  C_20 
REMARK   11  A    between atoms: C_11  and  C_16 
REMARK   12  A    between atoms: C_22  and  C_23 
REMARK   13  A    between atoms: C_24  and  C_25 
ROOT
HETATM    1  O   UNK     0     181.504 177.527 180.142  0.00  0.00    -0.348 OA
HETATM    2  C   UNK     0     180.356 177.934 179.396  0.00  0.00     0.180 C 
HETATM    3  C   UNK     0     180.644 177.834 177.896  0.00  0.00     0.180 C 
HETATM    4  C   UNK     0     181.881 178.651 177.526  0.00  0.00     0.183 C 
HETATM    5  C   UNK     0     183.053 178.333 178.455  0.00  0.00     0.204 C 
HETATM    6  C   UNK     0     182.627 178.376 179.922  0.00  0.00     0.291 C 
ENDROOT
BRANCH   2   7
HETATM    7  C   UNK     0     179.195 177.033 179.810  0.00  0.00     0.205 C 
BRANCH   7   8
HETATM    8  O   UNK     0     179.660 175.697 179.864  0.00  0.00    -0.356 OA
BRANCH   8   9
HETATM    9  C   UNK     0     178.590 174.762 179.769  0.00  0.00     0.290 C 
HETATM   10  O   UNK     0     178.871 173.551 180.480  0.00  0.00    -0.356 OA
HETATM   11  C   UNK     0     179.936 172.788 179.917  0.00  0.00     0.205 C 
HETATM   12  C   UNK     0     179.604 172.375 178.489  0.00  0.00     0.173 C 
HETATM   13  C   UNK     0     179.321 173.604 177.624  0.00  0.00     0.182 C 
HETATM   14  C   UNK     0     178.264 174.488 178.293  0.00  0.00     0.204 C 
BRANCH  12  15
HETATM   15  O   UNK     0     180.673 171.626 177.929  0.00  0.00    -0.391 OA
HETATM   16  H   UNK     0     181.415 172.239 177.781  0.00  0.00     0.210 HD
ENDBRANCH  12  15
BRANCH  13  17
HETATM   17  O   UNK     0     180.527 174.347 177.453  0.00  0.00    -0.390 OA
HETATM   18  H   UNK     0     180.542 175.041 178.134  0.00  0.00     0.210 HD
ENDBRANCH  13  17
BRANCH  14  19
HETATM   19  O   UNK     0     176.996 173.837 178.235  0.00  0.00    -0.388 OA
HETATM   20  H   UNK     0     176.648 173.925 177.332  0.00  0.00     0.210 HD
ENDBRANCH  14  19
ENDBRANCH   8   9
ENDBRANCH   7   8
ENDBRANCH   2   7
BRANCH   6  21
HETATM   21  O   UNK     0     183.729 177.932 180.712  0.00  0.00    -0.355 OA
BRANCH  21  22
HETATM   22  C   UNK     0     183.928 176.533 180.583  0.00  0.00     0.198 C 
BRANCH  22  23
HETATM   23  C   UNK     0     185.304 176.290 180.050  0.00  0.00     0.000 C 
HETATM   24  C   UNK     0     185.545 175.632 178.906  0.00  0.00     0.009 C 
BRANCH  24  25
HETATM   25  C   UNK     0     186.880 175.382 178.334  0.00  0.00    -0.036 A 
HETATM   26  C   UNK     0     187.083 174.260 177.547  0.00  0.00     0.011 A 
HETATM   27  C   UNK     0     188.347 174.023 177.006  0.00  0.00     0.001 A 
HETATM   28  C   UNK     0     189.391 174.913 177.259  0.00  0.00     0.000 A 
HETATM   29  C   UNK     0     189.172 176.039 178.052  0.00  0.00     0.001 A 
HETATM   30  C   UNK     0     187.908 176.275 178.594  0.00  0.00     0.011 A 
ENDBRANCH  24  25
ENDBRANCH  22  23
ENDBRANCH  21  22
ENDBRANCH   6  21
BRANCH   3  31
HETATM   31  O   UNK     0     179.520 178.321 177.167  0.00  0.00    -0.390 OA
HETATM   32  H   UNK     0     179.814 179.084 176.639  0.00  0.00     0.210 HD
ENDBRANCH   3  31
BRANCH   5  33
HETATM   33  O   UNK     0     184.087 179.298 178.260  0.00  0.00    -0.388 OA
HETATM   34  H   UNK     0     184.108 179.531 177.316  0.00  0.00     0.210 HD
ENDBRANCH   5  33
BRANCH   4  35
HETATM   35  O   UNK     0     182.238 178.328 176.181  0.00  0.00    -0.390 OA
HETATM   36  H   UNK     0     181.654 177.607 175.891  0.00  0.00     0.210 HD
ENDBRANCH   4  35
TORSDOF 13
ENDMDL
MODEL 2
REMARK VINA RESULT:      -8.6     32.751     36.473
REMARK  13 active torsions:
REMARK  status: ('A' for Active; 'I' for Inactive)
REMARK    1  A    between atoms: O_2  and  C_16 
REMARK    2  A    between atoms: O_2  and  C_17 
REMARK    3  A    between atoms: O_4  and  C_12 
REMARK    4  A    between atoms: O_5  and  C_13 
REMARK    5  A    between atoms: O_6  and  C_15 
REMARK    6  A    between atoms: O_6  and  C_22 
REMARK    7  A    between atoms: O_7  and  C_14 
REMARK    8  A    between atoms: O_8  and  C_18 
REMARK    9  A    between atoms: O_9  and  C_19 
REMARK   10  A    between atoms: O_10  and  C_20 
REMARK   11  A    between atoms: C_11  and  C_16 
REMARK   12  A    between atoms: C_22  and  C_23 
REMARK   13  A    between atoms: C_24  and  C_25 
ROOT
HETATM    1  O   UNK     0     155.922 187.288 158.526  0.00  0.00    -0.348 OA
HETATM    2  C   UNK     0     155.909 186.982 159.921  0.00  0.00     0.180 C 
HETATM    3  C   UNK     0     156.271 185.510 160.136  0.00  0.00     0.180 C 
HETATM    4  C   UNK     0     155.333 184.600 159.344  0.00  0.00     0.183 C 
HETATM    5  C   UNK     0     155.217 185.054 157.889  0.00  0.00     0.204 C 
HETATM    6  C   UNK     0     154.943 186.554 157.795  0.00  0.00     0.291 C 
ENDROOT
BRANCH   2   7
HETATM    7  C   UNK     0     156.902 187.914 160.607  0.00  0.00     0.205 C 
BRANCH   7   8
HETATM    8  O   UNK     0     158.108 187.205 160.824  0.00  0.00    -0.356 OA
BRANCH   8   9
HETATM    9  C   UNK     0     159.250 187.999 160.516  0.00  0.00     0.290 C 
HETATM   10  O   UNK     0     159.331 188.303 159.119  0.00  0.00    -0.356 OA
HETATM   11  C   UNK     0     159.574 187.165 158.296  0.00  0.00     0.205 C 
HETATM   12  C   UNK     0     160.898 186.509 158.665  0.00  0.00     0.173 C 
HETATM   13  C   UNK     0     160.908 186.104 160.140  0.00  0.00     0.182 C 
HETATM   14  C   UNK     0     160.523 187.300 161.017  0.00  0.00     0.204 C 
BRANCH  12  15
HETATM   15  O   UNK     0     161.129 185.368 157.851  0.00  0.00    -0.391 OA
HETATM   16  H   UNK     0     160.352 185.255 157.275  0.00  0.00     0.210 HD
ENDBRANCH  12  15
BRANCH  13  17
HETATM   17  O   UNK     0     159.976 185.043 160.344  0.00  0.00    -0.390 OA
HETATM   18  H   UNK     0     159.780 185.004 161.296  0.00  0.00     0.210 HD
ENDBRANCH  13  17
BRANCH  14  19
HETATM   19  O   UNK     0     161.583 188.255 161.007  0.00  0.00    -0.388 OA
HETATM   20  H   UNK     0     161.203 189.137 161.148  0.00  0.00     0.210 HD
ENDBRANCH  14  19
ENDBRANCH   8   9
ENDBRANCH   7   8
ENDBRANCH   2   7
BRANCH   6  21
HETATM   21  O   UNK     0     154.991 186.925 156.418  0.00  0.00    -0.355 OA
BRANCH  21  22
HETATM   22  C   UNK     0     154.716 188.306 156.245  0.00  0.00     0.198 C 
BRANCH  22  23
HETATM   23  C   UNK     0     153.244 188.484 156.057  0.00  0.00     0.000 C 
HETATM   24  C   UNK     0     152.639 189.682 156.066  0.00  0.00     0.009 C 
BRANCH  24  25
HETATM   25  C   UNK     0     151.197 189.907 155.871  0.00  0.00    -0.036 A 
HETATM   26  C   UNK     0     150.726 191.201 155.715  0.00  0.00     0.011 A 
HETATM   27  C   UNK     0     149.360 191.415 155.530  0.00  0.00     0.001 A 
HETATM   28  C   UNK     0     148.483 190.331 155.502  0.00  0.00     0.000 A 
HETATM   29  C   UNK     0     148.971 189.034 155.660  0.00  0.00     0.001 A 
HETATM   30  C   UNK     0     150.337 188.821 155.845  0.00  0.00     0.011 A 
ENDBRANCH  24  25
ENDBRANCH  22  23
ENDBRANCH  21  22
ENDBRANCH   6  21
BRANCH   3  31
HETATM   31  O   UNK     0     156.173 185.198 161.523  0.00  0.00    -0.390 OA
HETATM   32  H   UNK     0     156.544 185.945 162.025  0.00  0.00     0.210 HD
ENDBRANCH   3  31
BRANCH   5  33
HETATM   33  O   UNK     0     154.139 184.361 157.261  0.00  0.00    -0.388 OA
HETATM   34  H   UNK     0     154.395 183.429 157.164  0.00  0.00     0.210 HD
ENDBRANCH   5  33
BRANCH   4  35
HETATM   35  O   UNK     0     155.863 183.274 159.389  0.00  0.00    -0.390 OA
HETATM   36  H   UNK     0     156.716 183.286 158.922  0.00  0.00     0.210 HD
ENDBRANCH   4  35
TORSDOF 13
ENDMDL
MODEL 3
REMARK VINA RESULT:      -8.5     32.330     35.346
REMARK  13 active torsions:
REMARK  status: ('A' for Active; 'I' for Inactive)
REMARK    1  A    between atoms: O_2  and  C_16 
REMARK    2  A    between atoms: O_2  and  C_17 
REMARK    3  A    between atoms: O_4  and  C_12 
REMARK    4  A    between atoms: O_5  and  C_13 
REMARK    5  A    between atoms: O_6  and  C_15 
REMARK    6  A    between atoms: O_6  and  C_22 
REMARK    7  A    between atoms: O_7  and  C_14 
REMARK    8  A    between atoms: O_8  and  C_18 
REMARK    9  A    between atoms: O_9  and  C_19 
REMARK   10  A    between atoms: O_10  and  C_20 
REMARK   11  A    between atoms: C_11  and  C_16 
REMARK   12  A    between atoms: C_22  and  C_23 
REMARK   13  A    between atoms: C_24  and  C_25 
ROOT
HETATM    1  O   UNK     0     156.066 187.754 158.889  0.00  0.00    -0.348 OA
HETATM    2  C   UNK     0     155.810 186.883 157.786  0.00  0.00     0.180 C 
HETATM    3  C   UNK     0     155.050 185.643 158.266  0.00  0.00     0.180 C 
HETATM    4  C   UNK     0     155.816 184.937 159.384  0.00  0.00     0.183 C 
HETATM    5  C   UNK     0     156.242 185.923 160.472  0.00  0.00     0.204 C 
HETATM    6  C   UNK     0     156.908 187.159 159.872  0.00  0.00     0.291 C 
ENDROOT
BRANCH   2   7
HETATM    7  C   UNK     0     155.011 187.670 156.752  0.00  0.00     0.205 C 
BRANCH   7   8
HETATM    8  O   UNK     0     153.647 187.659 157.133  0.00  0.00    -0.356 OA
BRANCH   8   9
HETATM    9  C   UNK     0     152.788 187.467 156.014  0.00  0.00     0.290 C 
HETATM   10  O   UNK     0     152.881 188.545 155.075  0.00  0.00    -0.356 OA
HETATM   11  C   UNK     0     152.389 189.786 155.574  0.00  0.00     0.205 C 
HETATM   12  C   UNK     0     150.915 189.670 155.941  0.00  0.00     0.173 C 
HETATM   13  C   UNK     0     150.702 188.565 156.977  0.00  0.00     0.182 C 
HETATM   14  C   UNK     0     151.343 187.259 156.494  0.00  0.00     0.204 C 
BRANCH  12  15
HETATM   15  O   UNK     0     150.433 190.906 156.449  0.00  0.00    -0.391 OA
HETATM   16  H   UNK     0     150.882 191.071 157.297  0.00  0.00     0.210 HD
ENDBRANCH  12  15
BRANCH  13  17
HETATM   17  O   UNK     0     151.294 188.958 158.214  0.00  0.00    -0.390 OA
HETATM   18  H   UNK     0     151.738 189.811 158.068  0.00  0.00     0.210 HD
ENDBRANCH  13  17
BRANCH  14  19
HETATM   19  O   UNK     0     150.587 186.737 155.403  0.00  0.00    -0.388 OA
HETATM   20  H   UNK     0     150.418 185.795 155.570  0.00  0.00     0.210 HD
ENDBRANCH  14  19
ENDBRANCH   8   9
ENDBRANCH   7   8
ENDBRANCH   2   7
BRANCH   6  21
HETATM   21  O   UNK     0     157.146 188.088 160.929  0.00  0.00    -0.355 OA
BRANCH  21  22
HETATM   22  C   UNK     0     158.354 188.804 160.727  0.00  0.00     0.198 C 
BRANCH  22  23
HETATM   23  C   UNK     0     159.471 187.824 160.557  0.00  0.00     0.000 C 
HETATM   24  C   UNK     0     160.447 187.969 159.648  0.00  0.00     0.009 C 
BRANCH  24  25
HETATM   25  C   UNK     0     161.573 187.039 159.455  0.00  0.00    -0.036 A 
HETATM   26  C   UNK     0     161.333 185.783 158.921  0.00  0.00     0.011 A 
HETATM   27  C   UNK     0     162.400 184.903 158.737  0.00  0.00     0.001 A 
HETATM   28  C   UNK     0     163.692 185.291 159.090  0.00  0.00     0.000 A 
HETATM   29  C   UNK     0     163.918 186.558 159.626  0.00  0.00     0.001 A 
HETATM   30  C   UNK     0     162.852 187.439 159.809  0.00  0.00     0.011 A 
ENDBRANCH  24  25
ENDBRANCH  22  23
ENDBRANCH  21  22
ENDBRANCH   6  21
BRANCH   3  31
HETATM   31  O   UNK     0     154.875 184.746 157.173  0.00  0.00    -0.390 OA
HETATM   32  H   UNK     0     154.838 185.272 156.356  0.00  0.00     0.210 HD
ENDBRANCH   3  31
BRANCH   5  33
HETATM   33  O   UNK     0     157.177 185.288 161.345  0.00  0.00    -0.388 OA
HETATM   34  H   UNK     0     157.302 185.861 162.120  0.00  0.00     0.210 HD
ENDBRANCH   5  33
BRANCH   4  35
HETATM   35  O   UNK     0     154.957 183.945 159.949  0.00  0.00    -0.390 OA
HETATM   36  H   UNK     0     155.217 183.087 159.573  0.00  0.00     0.210 HD
ENDBRANCH   4  35
TORSDOF 13
ENDMDL
MODEL 4
REMARK VINA RESULT:      -8.4      3.569      9.165
REMARK  13 active torsions:
REMARK  status: ('A' for Active; 'I' for Inactive)
REMARK    1  A    between atoms: O_2  and  C_16 
REMARK    2  A    between atoms: O_2  and  C_17 
REMARK    3  A    between atoms: O_4  and  C_12 
REMARK    4  A    between atoms: O_5  and  C_13 
REMARK    5  A    between atoms: O_6  and  C_15 
REMARK    6  A    between atoms: O_6  and  C_22 
REMARK    7  A    between atoms: O_7  and  C_14 
REMARK    8  A    between atoms: O_8  and  C_18 
REMARK    9  A    between atoms: O_9  and  C_19 
REMARK   10  A    between atoms: O_10  and  C_20 
REMARK   11  A    between atoms: C_11  and  C_16 
REMARK   12  A    between atoms: C_22  and  C_23 
REMARK   13  A    between atoms: C_24  and  C_25 
ROOT
HETATM    1  O   UNK     0     185.543 177.228 177.964  0.00  0.00    -0.348 OA
HETATM    2  C   UNK     0     186.515 176.593 178.795  0.00  0.00     0.180 C 
HETATM    3  C   UNK     0     185.817 175.811 179.911  0.00  0.00     0.180 C 
HETATM    4  C   UNK     0     184.892 176.723 180.715  0.00  0.00     0.183 C 
HETATM    5  C   UNK     0     183.978 177.534 179.795  0.00  0.00     0.204 C 
HETATM    6  C   UNK     0     184.770 178.196 178.669  0.00  0.00     0.291 C 
ENDROOT
BRANCH   2   7
HETATM    7  C   UNK     0     187.355 175.680 177.906  0.00  0.00     0.205 C 
BRANCH   7   8
HETATM    8  O   UNK     0     188.707 176.095 177.986  0.00  0.00    -0.356 OA
BRANCH   8   9
HETATM    9  C   UNK     0     189.527 175.106 178.599  0.00  0.00     0.290 C 
HETATM   10  O   UNK     0     189.542 175.231 180.026  0.00  0.00    -0.356 OA
HETATM   11  C   UNK     0     190.173 176.421 180.492  0.00  0.00     0.205 C 
HETATM   12  C   UNK     0     191.630 176.465 180.048  0.00  0.00     0.173 C 
HETATM   13  C   UNK     0     191.731 176.377 178.524  0.00  0.00     0.182 C 
HETATM   14  C   UNK     0     190.946 175.165 178.012  0.00  0.00     0.204 C 
BRANCH  12  15
HETATM   15  O   UNK     0     192.250 177.658 180.504  0.00  0.00    -0.391 OA
HETATM   16  H   UNK     0     193.090 177.756 180.021  0.00  0.00     0.210 HD
ENDBRANCH  12  15
BRANCH  13  17
HETATM   17  O   UNK     0     191.200 177.568 177.946  0.00  0.00    -0.390 OA
HETATM   18  H   UNK     0     190.667 177.308 177.176  0.00  0.00     0.210 HD
ENDBRANCH  13  17
BRANCH  14  19
HETATM   19  O   UNK     0     191.627 173.968 178.384  0.00  0.00    -0.388 OA
HETATM   20  H   UNK     0     192.187 173.690 177.640  0.00  0.00     0.210 HD
ENDBRANCH  14  19
ENDBRANCH   8   9
ENDBRANCH   7   8
ENDBRANCH   2   7
BRANCH   6  21
HETATM   21  O   UNK     0     183.839 178.811 177.779  0.00  0.00    -0.355 OA
BRANCH  21  22
HETATM   22  C   UNK     0     183.195 177.848 176.959  0.00  0.00     0.198 C 
BRANCH  22  23
HETATM   23  C   UNK     0     181.716 178.056 177.046  0.00  0.00     0.000 C 
HETATM   24  C   UNK     0     180.952 177.518 178.009  0.00  0.00     0.009 C 
BRANCH  24  25
HETATM   25  C   UNK     0     179.498 177.706 178.144  0.00  0.00    -0.036 A 
HETATM   26  C   UNK     0     178.782 178.244 177.087  0.00  0.00     0.011 A 
HETATM   27  C   UNK     0     177.404 178.423 177.214  0.00  0.00     0.001 A 
HETATM   28  C   UNK     0     176.761 178.060 178.396  0.00  0.00     0.000 A 
HETATM   29  C   UNK     0     177.494 177.519 179.452  0.00  0.00     0.001 A 
HETATM   30  C   UNK     0     178.872 177.341 179.325  0.00  0.00     0.011 A 
ENDBRANCH  24  25
ENDBRANCH  22  23
ENDBRANCH  21  22
ENDBRANCH   6  21
BRANCH   3  31
HETATM   31  O   UNK     0     186.799 175.251 180.780  0.00  0.00    -0.390 OA
HETATM   32  H   UNK     0     187.284 174.569 180.284  0.00  0.00     0.210 HD
ENDBRANCH   3  31
BRANCH   5  33
HETATM   33  O   UNK     0     183.333 178.558 180.552  0.00  0.00    -0.388 OA
HETATM   34  H   UNK     0     183.918 179.334 180.569  0.00  0.00     0.210 HD
ENDBRANCH   5  33
BRANCH   4  35
HETATM   35  O   UNK     0     184.097 175.901 181.571  0.00  0.00    -0.390 OA
HETATM   36  H   UNK     0     184.649 175.654 182.332  0.00  0.00     0.210 HD
ENDBRANCH   4  35
TORSDOF 13
ENDMDL
MODEL 5
REMARK VINA RESULT:      -8.4     27.498     30.261
REMARK  13 active torsions:
REMARK  status: ('A' for Active; 'I' for Inactive)
REMARK    1  A    between atoms: O_2  and  C_16 
REMARK    2  A    between atoms: O_2  and  C_17 
REMARK    3  A    between atoms: O_4  and  C_12 
REMARK    4  A    between atoms: O_5  and  C_13 
REMARK    5  A    between atoms: O_6  and  C_15 
REMARK    6  A    between atoms: O_6  and  C_22 
REMARK    7  A    between atoms: O_7  and  C_14 
REMARK    8  A    between atoms: O_8  and  C_18 
REMARK    9  A    between atoms: O_9  and  C_19 
REMARK   10  A    between atoms: O_10  and  C_20 
REMARK   11  A    between atoms: C_11  and  C_16 
REMARK   12  A    between atoms: C_22  and  C_23 
REMARK   13  A    between atoms: C_24  and  C_25 
ROOT
HETATM    1  O   UNK     0     160.759 188.072 160.798  0.00  0.00    -0.348 OA
HETATM    2  C   UNK     0     159.900 187.965 159.662  0.00  0.00     0.180 C 
HETATM    3  C   UNK     0     160.146 186.634 158.945  0.00  0.00     0.180 C 
HETATM    4  C   UNK     0     161.617 186.489 158.561  0.00  0.00     0.183 C 
HETATM    5  C   UNK     0     162.532 186.787 159.750  0.00  0.00     0.204 C 
HETATM    6  C   UNK     0     162.139 188.092 160.441  0.00  0.00     0.291 C 
ENDROOT
BRANCH   2   7
HETATM    7  C   UNK     0     158.462 188.082 160.159  0.00  0.00     0.205 C 
BRANCH   7   8
HETATM    8  O   UNK     0     157.851 186.808 160.074  0.00  0.00    -0.356 OA
BRANCH   8   9
HETATM    9  C   UNK     0     156.483 186.851 160.467  0.00  0.00     0.290 C 
HETATM   10  O   UNK     0     155.965 185.546 160.750  0.00  0.00    -0.356 OA
HETATM   11  C   UNK     0     155.882 184.700 159.606  0.00  0.00     0.205 C 
HETATM   12  C   UNK     0     154.958 185.304 158.557  0.00  0.00     0.173 C 
HETATM   13  C   UNK     0     155.444 186.696 158.148  0.00  0.00     0.182 C 
HETATM   14  C   UNK     0     155.653 187.568 159.391  0.00  0.00     0.204 C 
BRANCH  12  15
HETATM   15  O   UNK     0     154.890 184.463 157.414  0.00  0.00    -0.391 OA
HETATM   16  H   UNK     0     154.405 183.659 157.670  0.00  0.00     0.210 HD
ENDBRANCH  12  15
BRANCH  13  17
HETATM   17  O   UNK     0     156.675 186.575 157.437  0.00  0.00    -0.390 OA
HETATM   18  H   UNK     0     157.346 186.259 158.066  0.00  0.00     0.210 HD
ENDBRANCH  13  17
BRANCH  14  19
HETATM   19  O   UNK     0     154.385 187.895 159.958  0.00  0.00    -0.388 OA
HETATM   20  H   UNK     0     153.755 188.045 159.233  0.00  0.00     0.210 HD
ENDBRANCH  14  19
ENDBRANCH   8   9
ENDBRANCH   7   8
ENDBRANCH   2   7
BRANCH   6  21
HETATM   21  O   UNK     0     162.939 188.226 161.614  0.00  0.00    -0.355 OA
BRANCH  21  22
HETATM   22  C   UNK     0     162.707 187.161 162.523  0.00  0.00     0.198 C 
BRANCH  22  23
HETATM   23  C   UNK     0     164.010 186.762 163.138  0.00  0.00     0.000 C 
HETATM   24  C   UNK     0     165.079 186.386 162.419  0.00  0.00     0.009 C 
BRANCH  24  25
HETATM   25  C   UNK     0     166.386 185.999 162.978  0.00  0.00    -0.036 A 
HETATM   26  C   UNK     0     167.448 186.885 162.899  0.00  0.00     0.011 A 
HETATM   27  C   UNK     0     168.686 186.519 163.429  0.00  0.00     0.001 A 
HETATM   28  C   UNK     0     168.844 185.271 164.032  0.00  0.00     0.000 A 
HETATM   29  C   UNK     0     167.765 184.390 164.105  0.00  0.00     0.001 A 
HETATM   30  C   UNK     0     166.528 184.756 163.575  0.00  0.00     0.011 A 
ENDBRANCH  24  25
ENDBRANCH  22  23
ENDBRANCH  21  22
ENDBRANCH   6  21
BRANCH   3  31
HETATM   31  O   UNK     0     159.343 186.577 157.769  0.00  0.00    -0.390 OA
HETATM   32  H   UNK     0     159.906 186.808 157.010  0.00  0.00     0.210 HD
ENDBRANCH   3  31
BRANCH   5  33
HETATM   33  O   UNK     0     163.878 186.910 159.291  0.00  0.00    -0.388 OA
HETATM   34  H   UNK     0     163.990 187.801 158.920  0.00  0.00     0.210 HD
ENDBRANCH   5  33
BRANCH   4  35
HETATM   35  O   UNK     0     161.829 185.146 158.123  0.00  0.00    -0.390 OA
HETATM   36  H   UNK     0     162.574 185.157 157.499  0.00  0.00     0.210 HD
ENDBRANCH   4  35
TORSDOF 13
ENDMDL
MODEL 6
REMARK VINA RESULT:      -8.4     34.153     37.118
REMARK  13 active torsions:
REMARK  status: ('A' for Active; 'I' for Inactive)
REMARK    1  A    between atoms: O_2  and  C_16 
REMARK    2  A    between atoms: O_2  and  C_17 
REMARK    3  A    between atoms: O_4  and  C_12 
REMARK    4  A    between atoms: O_5  and  C_13 
REMARK    5  A    between atoms: O_6  and  C_15 
REMARK    6  A    between atoms: O_6  and  C_22 
REMARK    7  A    between atoms: O_7  and  C_14 
REMARK    8  A    between atoms: O_8  and  C_18 
REMARK    9  A    between atoms: O_9  and  C_19 
REMARK   10  A    between atoms: O_10  and  C_20 
REMARK   11  A    between atoms: C_11  and  C_16 
REMARK   12  A    between atoms: C_22  and  C_23 
REMARK   13  A    between atoms: C_24  and  C_25 
ROOT
HETATM    1  O   UNK     0     155.393 187.443 156.133  0.00  0.00    -0.348 OA
HETATM    2  C   UNK     0     154.043 187.680 156.534  0.00  0.00     0.180 C 
HETATM    3  C   UNK     0     154.007 188.167 157.985  0.00  0.00     0.180 C 
HETATM    4  C   UNK     0     154.709 187.172 158.909  0.00  0.00     0.183 C 
HETATM    5  C   UNK     0     156.086 186.789 158.365  0.00  0.00     0.204 C 
HETATM    6  C   UNK     0     156.014 186.406 156.888  0.00  0.00     0.291 C 
ENDROOT
BRANCH   2   7
HETATM    7  C   UNK     0     153.451 188.711 155.577  0.00  0.00     0.205 C 
BRANCH   7   8
HETATM    8  O   UNK     0     152.040 188.671 155.688  0.00  0.00    -0.356 OA
BRANCH   8   9
HETATM    9  C   UNK     0     151.484 189.975 155.818  0.00  0.00     0.290 C 
HETATM   10  O   UNK     0     150.144 189.939 156.322  0.00  0.00    -0.356 OA
HETATM   11  C   UNK     0     149.209 189.343 155.426  0.00  0.00     0.205 C 
HETATM   12  C   UNK     0     149.149 190.121 154.118  0.00  0.00     0.173 C 
HETATM   13  C   UNK     0     150.531 190.189 153.467  0.00  0.00     0.182 C 
HETATM   14  C   UNK     0     151.562 190.713 154.473  0.00  0.00     0.204 C 
BRANCH  12  15
HETATM   15  O   UNK     0     148.225 189.516 153.224  0.00  0.00    -0.391 OA
HETATM   16  H   UNK     0     148.411 188.560 153.212  0.00  0.00     0.210 HD
ENDBRANCH  12  15
BRANCH  13  17
HETATM   17  O   UNK     0     150.911 188.886 153.029  0.00  0.00    -0.390 OA
HETATM   18  H   UNK     0     150.489 188.732 152.166  0.00  0.00     0.210 HD
ENDBRANCH  13  17
BRANCH  14  19
HETATM   19  O   UNK     0     151.324 192.098 154.715  0.00  0.00    -0.388 OA
HETATM   20  H   UNK     0     152.178 192.561 154.713  0.00  0.00     0.210 HD
ENDBRANCH  14  19
ENDBRANCH   8   9
ENDBRANCH   7   8
ENDBRANCH   2   7
BRANCH   6  21
HETATM   21  O   UNK     0     157.347 186.202 156.421  0.00  0.00    -0.355 OA
BRANCH  21  22
HETATM   22  C   UNK     0     158.065 187.424 156.356  0.00  0.00     0.198 C 
BRANCH  22  23
HETATM   23  C   UNK     0     159.486 187.168 156.742  0.00  0.00     0.000 C 
HETATM   24  C   UNK     0     159.850 186.711 157.951  0.00  0.00     0.009 C 
BRANCH  24  25
HETATM   25  C   UNK     0     161.233 186.431 158.371  0.00  0.00    -0.036 A 
HETATM   26  C   UNK     0     162.077 187.486 158.678  0.00  0.00     0.011 A 
HETATM   27  C   UNK     0     163.388 187.220 159.077  0.00  0.00     0.001 A 
HETATM   28  C   UNK     0     163.836 185.902 159.163  0.00  0.00     0.000 A 
HETATM   29  C   UNK     0     162.975 184.850 158.852  0.00  0.00     0.001 A 
HETATM   30  C   UNK     0     161.665 185.116 158.453  0.00  0.00     0.011 A 
ENDBRANCH  24  25
ENDBRANCH  22  23
ENDBRANCH  21  22
ENDBRANCH   6  21
BRANCH   3  31
HETATM   31  O   UNK     0     152.652 188.320 158.398  0.00  0.00    -0.390 OA
HETATM   32  H   UNK     0     152.081 188.074 157.650  0.00  0.00     0.210 HD
ENDBRANCH   3  31
BRANCH   5  33
HETATM   33  O   UNK     0     156.587 185.669 159.095  0.00  0.00    -0.388 OA
HETATM   34  H   UNK     0     155.890 184.992 159.125  0.00  0.00     0.210 HD
ENDBRANCH   5  33
BRANCH   4  35
HETATM   35  O   UNK     0     154.856 187.787 160.190  0.00  0.00    -0.390 OA
HETATM   36  H   UNK     0     155.026 187.080 160.834  0.00  0.00     0.210 HD
ENDBRANCH   4  35
TORSDOF 13
ENDMDL
MODEL 7
REMARK VINA RESULT:      -8.4     14.068     18.915
REMARK  13 active torsions:
REMARK  status: ('A' for Active; 'I' for Inactive)
REMARK    1  A    between atoms: O_2  and  C_16 
REMARK    2  A    between atoms: O_2  and  C_17 
REMARK    3  A    between atoms: O_4  and  C_12 
REMARK    4  A    between atoms: O_5  and  C_13 
REMARK    5  A    between atoms: O_6  and  C_15 
REMARK    6  A    between atoms: O_6  and  C_22 
REMARK    7  A    between atoms: O_7  and  C_14 
REMARK    8  A    between atoms: O_8  and  C_18 
REMARK    9  A    between atoms: O_9  and  C_19 
REMARK   10  A    between atoms: O_10  and  C_20 
REMARK   11  A    between atoms: C_11  and  C_16 
REMARK   12  A    between atoms: C_22  and  C_23 
REMARK   13  A    between atoms: C_24  and  C_25 
ROOT
HETATM    1  O   UNK     0     166.659 181.019 171.623  0.00  0.00    -0.348 OA
HETATM    2  C   UNK     0     167.701 180.251 172.228  0.00  0.00     0.180 C 
HETATM    3  C   UNK     0     167.848 178.910 171.504  0.00  0.00     0.180 C 
HETATM    4  C   UNK     0     166.520 178.154 171.489  0.00  0.00     0.183 C 
HETATM    5  C   UNK     0     165.378 179.051 171.009  0.00  0.00     0.204 C 
HETATM    6  C   UNK     0     165.384 180.394 171.736  0.00  0.00     0.291 C 
ENDROOT
BRANCH   2   7
HETATM    7  C   UNK     0     168.983 181.076 172.155  0.00  0.00     0.205 C 
BRANCH   7   8
HETATM    8  O   UNK     0     169.966 180.452 172.961  0.00  0.00    -0.356 OA
BRANCH   8   9
HETATM    9  C   UNK     0     171.276 180.913 172.647  0.00  0.00     0.290 C 
HETATM   10  O   UNK     0     171.694 180.494 171.343  0.00  0.00    -0.356 OA
HETATM   11  C   UNK     0     171.876 179.085 171.223  0.00  0.00     0.205 C 
HETATM   12  C   UNK     0     172.948 178.598 172.189  0.00  0.00     0.173 C 
HETATM   13  C   UNK     0     172.582 178.961 173.629  0.00  0.00     0.182 C 
HETATM   14  C   UNK     0     172.265 180.456 173.731  0.00  0.00     0.204 C 
BRANCH  12  15
HETATM   15  O   UNK     0     173.116 177.192 172.074  0.00  0.00    -0.391 OA
HETATM   16  H   UNK     0     172.527 176.882 171.364  0.00  0.00     0.210 HD
ENDBRANCH  12  15
BRANCH  13  17
HETATM   17  O   UNK     0     171.443 178.202 174.031  0.00  0.00    -0.390 OA
HETATM   18  H   UNK     0     171.539 178.011 174.980  0.00  0.00     0.210 HD
ENDBRANCH  13  17
BRANCH  14  19
HETATM   19  O   UNK     0     173.467 181.207 173.576  0.00  0.00    -0.388 OA
HETATM   20  H   UNK     0     174.078 180.696 173.019  0.00  0.00     0.210 HD
ENDBRANCH  14  19
ENDBRANCH   8   9
ENDBRANCH   7   8
ENDBRANCH   2   7
BRANCH   6  21
HETATM   21  O   UNK     0     164.387 181.222 171.139  0.00  0.00    -0.355 OA
BRANCH  21  22
HETATM   22  C   UNK     0     163.639 181.922 172.121  0.00  0.00     0.198 C 
BRANCH  22  23
HETATM   23  C   UNK     0     163.212 180.955 173.179  0.00  0.00     0.000 C 
HETATM   24  C   UNK     0     162.034 180.311 173.156  0.00  0.00     0.009 C 
BRANCH  24  25
HETATM   25  C   UNK     0     161.578 179.341 174.166  0.00  0.00    -0.036 A 
HETATM   26  C   UNK     0     160.303 179.461 174.696  0.00  0.00     0.011 A 
HETATM   27  C   UNK     0     159.869 178.542 175.652  0.00  0.00     0.001 A 
HETATM   28  C   UNK     0     160.717 177.515 176.064  0.00  0.00     0.000 A 
HETATM   29  C   UNK     0     161.997 177.406 175.522  0.00  0.00     0.001 A 
HETATM   30  C   UNK     0     162.431 178.325 174.566  0.00  0.00     0.011 A 
ENDBRANCH  24  25
ENDBRANCH  22  23
ENDBRANCH  21  22
ENDBRANCH   6  21
BRANCH   3  31
HETATM   31  O   UNK     0     168.833 178.122 172.168  0.00  0.00    -0.390 OA
HETATM   32  H   UNK     0     168.430 177.264 172.389  0.00  0.00     0.210 HD
ENDBRANCH   3  31
BRANCH   5  33
HETATM   33  O   UNK     0     164.131 178.406 171.267  0.00  0.00    -0.388 OA
HETATM   34  H   UNK     0     163.723 178.836 172.037  0.00  0.00     0.210 HD
ENDBRANCH   5  33
BRANCH   4  35
HETATM   35  O   UNK     0     166.656 177.041 170.603  0.00  0.00    -0.390 OA
HETATM   36  H   UNK     0     167.605 176.842 170.530  0.00  0.00     0.210 HD
ENDBRANCH   4  35
TORSDOF 13
ENDMDL
MODEL 8
REMARK VINA RESULT:      -8.3     37.441     40.467
REMARK  13 active torsions:
REMARK  status: ('A' for Active; 'I' for Inactive)
REMARK    1  A    between atoms: O_2  and  C_16 
REMARK    2  A    between atoms: O_2  and  C_17 
REMARK    3  A    between atoms: O_4  and  C_12 
REMARK    4  A    between atoms: O_5  and  C_13 
REMARK    5  A    between atoms: O_6  and  C_15 
REMARK    6  A    between atoms: O_6  and  C_22 
REMARK    7  A    between atoms: O_7  and  C_14 
REMARK    8  A    between atoms: O_8  and  C_18 
REMARK    9  A    between atoms: O_9  and  C_19 
REMARK   10  A    between atoms: O_10  and  C_20 
REMARK   11  A    between atoms: C_11  and  C_16 
REMARK   12  A    between atoms: C_22  and  C_23 
REMARK   13  A    between atoms: C_24  and  C_25 
ROOT
HETATM    1  O   UNK     0     157.093 174.570 149.263  0.00  0.00    -0.348 OA
HETATM    2  C   UNK     0     156.005 174.475 150.183  0.00  0.00     0.180 C 
HETATM    3  C   UNK     0     155.502 175.875 150.546  0.00  0.00     0.180 C 
HETATM    4  C   UNK     0     156.640 176.733 151.097  0.00  0.00     0.183 C 
HETATM    5  C   UNK     0     157.867 176.678 150.186  0.00  0.00     0.204 C 
HETATM    6  C   UNK     0     158.222 175.238 149.819  0.00  0.00     0.291 C 
ENDROOT
BRANCH   2   7
HETATM    7  C   UNK     0     154.914 173.637 149.522  0.00  0.00     0.205 C 
BRANCH   7   8
HETATM    8  O   UNK     0     153.966 174.511 148.938  0.00  0.00    -0.356 OA
BRANCH   8   9
HETATM    9  C   UNK     0     152.914 173.797 148.297  0.00  0.00     0.290 C 
HETATM   10  O   UNK     0     152.103 174.652 147.483  0.00  0.00    -0.356 OA
HETATM   11  C   UNK     0     151.355 175.612 148.226  0.00  0.00     0.205 C 
HETATM   12  C   UNK     0     150.402 174.919 149.192  0.00  0.00     0.173 C 
HETATM   13  C   UNK     0     151.173 174.001 150.143  0.00  0.00     0.182 C 
HETATM   14  C   UNK     0     152.074 173.052 149.346  0.00  0.00     0.204 C 
BRANCH  12  15
HETATM   15  O   UNK     0     149.669 175.879 149.938  0.00  0.00    -0.391 OA
HETATM   16  H   UNK     0     150.132 176.731 149.858  0.00  0.00     0.210 HD
ENDBRANCH  12  15
BRANCH  13  17
HETATM   17  O   UNK     0     151.972 174.794 151.020  0.00  0.00    -0.390 OA
HETATM   18  H   UNK     0     151.367 175.306 151.584  0.00  0.00     0.210 HD
ENDBRANCH  13  17
BRANCH  14  19
HETATM   19  O   UNK     0     151.266 172.094 148.664  0.00  0.00    -0.388 OA
HETATM   20  H   UNK     0     151.355 171.239 149.117  0.00  0.00     0.210 HD
ENDBRANCH  14  19
ENDBRANCH   8   9
ENDBRANCH   7   8
ENDBRANCH   2   7
BRANCH   6  21
HETATM   21  O   UNK     0     159.279 175.276 148.862  0.00  0.00    -0.355 OA
BRANCH  21  22
HETATM   22  C   UNK     0     159.785 173.977 148.598  0.00  0.00     0.198 C 
BRANCH  22  23
HETATM   23  C   UNK     0     160.219 173.911 147.168  0.00  0.00     0.000 C 
HETATM   24  C   UNK     0     159.594 173.167 146.243  0.00  0.00     0.009 C 
BRANCH  24  25
HETATM   25  C   UNK     0     159.974 173.082 144.822  0.00  0.00    -0.036 A 
HETATM   26  C   UNK     0     159.054 172.613 143.899  0.00  0.00     0.011 A 
HETATM   27  C   UNK     0     159.414 172.533 142.553  0.00  0.00     0.001 A 
HETATM   28  C   UNK     0     160.690 172.924 142.149  0.00  0.00     0.000 A 
HETATM   29  C   UNK     0     161.606 173.395 143.089  0.00  0.00     0.001 A 
HETATM   30  C   UNK     0     161.246 173.475 144.435  0.00  0.00     0.011 A 
ENDBRANCH  24  25
ENDBRANCH  22  23
ENDBRANCH  21  22
ENDBRANCH   6  21
BRANCH   3  31
HETATM   31  O   UNK     0     154.474 175.767 151.526  0.00  0.00    -0.390 OA
HETATM   32  H   UNK     0     153.782 175.182 151.172  0.00  0.00     0.210 HD
ENDBRANCH   3  31
BRANCH   5  33
HETATM   33  O   UNK     0     158.984 177.257 150.861  0.00  0.00    -0.388 OA
HETATM   34  H   UNK     0     158.658 177.994 151.405  0.00  0.00     0.210 HD
ENDBRANCH   5  33
BRANCH   4  35
HETATM   35  O   UNK     0     156.173 178.080 151.186  0.00  0.00    -0.390 OA
HETATM   36  H   UNK     0     155.647 178.259 150.389  0.00  0.00     0.210 HD
ENDBRANCH   4  35
TORSDOF 13
ENDMDL
MODEL 9
REMARK VINA RESULT:      -8.3      2.295      3.720
REMARK  13 active torsions:
REMARK  status: ('A' for Active; 'I' for Inactive)
REMARK    1  A    between atoms: O_2  and  C_16 
REMARK    2  A    between atoms: O_2  and  C_17 
REMARK    3  A    between atoms: O_4  and  C_12 
REMARK    4  A    between atoms: O_5  and  C_13 
REMARK    5  A    between atoms: O_6  and  C_15 
REMARK    6  A    between atoms: O_6  and  C_22 
REMARK    7  A    between atoms: O_7  and  C_14 
REMARK    8  A    between atoms: O_8  and  C_18 
REMARK    9  A    between atoms: O_9  and  C_19 
REMARK   10  A    between atoms: O_10  and  C_20 
REMARK   11  A    between atoms: C_11  and  C_16 
REMARK   12  A    between atoms: C_22  and  C_23 
REMARK   13  A    between atoms: C_24  and  C_25 
ROOT
HETATM    1  O   UNK     0     182.989 176.739 180.184  0.00  0.00    -0.348 OA
HETATM    2  C   UNK     0     181.750 177.080 179.561  0.00  0.00     0.180 C 
HETATM    3  C   UNK     0     181.969 177.340 178.068  0.00  0.00     0.180 C 
HETATM    4  C   UNK     0     183.028 178.421 177.856  0.00  0.00     0.183 C 
HETATM    5  C   UNK     0     184.286 178.132 178.676  0.00  0.00     0.204 C 
HETATM    6  C   UNK     0     183.940 177.800 180.127  0.00  0.00     0.291 C 
ENDROOT
BRANCH   2   7
HETATM    7  C   UNK     0     180.782 175.924 179.797  0.00  0.00     0.205 C 
BRANCH   7   8
HETATM    8  O   UNK     0     179.459 176.411 179.665  0.00  0.00    -0.356 OA
BRANCH   8   9
HETATM    9  C   UNK     0     178.516 175.556 180.304  0.00  0.00     0.290 C 
HETATM   10  O   UNK     0     177.177 175.812 179.865  0.00  0.00    -0.356 OA
HETATM   11  C   UNK     0     176.679 177.090 180.255  0.00  0.00     0.205 C 
HETATM   12  C   UNK     0     176.660 177.219 181.773  0.00  0.00     0.173 C 
HETATM   13  C   UNK     0     178.060 177.001 182.350  0.00  0.00     0.182 C 
HETATM   14  C   UNK     0     178.645 175.684 181.830  0.00  0.00     0.204 C 
BRANCH  12  15
HETATM   15  O   UNK     0     176.175 178.498 182.155  0.00  0.00    -0.391 OA
HETATM   16  H   UNK     0     175.993 178.999 181.340  0.00  0.00     0.210 HD
ENDBRANCH  12  15
BRANCH  13  17
HETATM   17  O   UNK     0     178.903 178.084 181.963  0.00  0.00    -0.390 OA
HETATM   18  H   UNK     0     179.028 178.029 180.999  0.00  0.00     0.210 HD
ENDBRANCH  13  17
BRANCH  14  19
HETATM   19  O   UNK     0     177.950 174.589 182.424  0.00  0.00    -0.388 OA
HETATM   20  H   UNK     0     177.318 174.943 183.072  0.00  0.00     0.210 HD
ENDBRANCH  14  19
ENDBRANCH   8   9
ENDBRANCH   7   8
ENDBRANCH   2   7
BRANCH   6  21
HETATM   21  O   UNK     0     185.142 177.406 180.787  0.00  0.00    -0.355 OA
BRANCH  21  22
HETATM   22  C   UNK     0     185.656 176.198 180.248  0.00  0.00     0.198 C 
BRANCH  22  23
HETATM   23  C   UNK     0     187.149 176.236 180.320  0.00  0.00     0.000 C 
HETATM   24  C   UNK     0     187.904 177.015 179.530  0.00  0.00     0.009 C 
BRANCH  24  25
HETATM   25  C   UNK     0     189.374 177.097 179.575  0.00  0.00    -0.036 A 
HETATM   26  C   UNK     0     190.010 177.244 180.798  0.00  0.00     0.011 A 
HETATM   27  C   UNK     0     191.402 177.321 180.841  0.00  0.00     0.001 A 
HETATM   28  C   UNK     0     192.140 177.251 179.660  0.00  0.00     0.000 A 
HETATM   29  C   UNK     0     191.487 177.103 178.436  0.00  0.00     0.001 A 
HETATM   30  C   UNK     0     190.095 177.025 178.393  0.00  0.00     0.011 A 
ENDBRANCH  24  25
ENDBRANCH  22  23
ENDBRANCH  21  22
ENDBRANCH   6  21
BRANCH   3  31
HETATM   31  O   UNK     0     180.742 177.759 177.477  0.00  0.00    -0.390 OA
HETATM   32  H   UNK     0     180.751 177.486 176.543  0.00  0.00     0.210 HD
ENDBRANCH   3  31
BRANCH   5  33
HETATM   33  O   UNK     0     185.130 179.284 178.669  0.00  0.00    -0.388 OA
HETATM   34  H   UNK     0     185.993 179.023 178.306  0.00  0.00     0.210 HD
ENDBRANCH   5  33
BRANCH   4  35
HETATM   35  O   UNK     0     183.361 178.445 176.467  0.00  0.00    -0.390 OA
HETATM   36  H   UNK     0     183.389 179.377 176.191  0.00  0.00     0.210 HD
ENDBRANCH   4  35
TORSDOF 13
ENDMDL
