MODEL 1
REMARK VINA RESULT:      -6.2      0.000      0.000
REMARK  5 active torsions:
REMARK  status: ('A' for Active; 'I' for Inactive)
REMARK    1  A    between atoms: C_3  and  O_1 
REMARK    2  A    between atoms: C_4  and  O_14 
REMARK    3  A    between atoms: C_7  and  C_8 
REMARK    4  A    between atoms: C_9  and  C_10 
REMARK    5  A    between atoms: C_10  and  O_12 
ROOT
ATOM      1  C   LIG     1       6.757  45.701  19.073  0.00  0.00     0.162 A 
ATOM      2  C   LIG     1       6.494  47.007  19.489  0.00  0.00     0.158 A 
ATOM      3  C   LIG     1       5.478  47.253  20.412  0.00  0.00     0.050 A 
ATOM      4  C   LIG     1       4.724  46.194  20.919  0.00  0.00     0.012 A 
ATOM      5  C   LIG     1       4.987  44.890  20.503  0.00  0.00    -0.021 A 
ATOM      6  C   LIG     1       6.003  44.643  19.580  0.00  0.00     0.057 A 
ENDROOT
BRANCH   5   7
ATOM      7  C   LIG     1       4.202  43.786  21.032  0.00  0.00     0.015 C 
ATOM      8  C   LIG     1       2.998  43.901  21.636  0.00  0.00     0.092 C 
BRANCH   8   9
ATOM      9  C   LIG     1       2.295  42.698  22.123  0.00  0.00     0.330 C 
ATOM     10  O   LIG     1       2.697  41.916  22.969  0.00  0.00    -0.246 OA
BRANCH   9  11
ATOM     11  O   LIG     1       1.112  42.593  21.473  0.00  0.00    -0.478 OA
ATOM     12  H   LIG     1       1.046  43.225  20.726  0.00  0.00     0.295 HD
ENDBRANCH   9  11
ENDBRANCH   8   9
ENDBRANCH   5   7
BRANCH   1  13
ATOM     13  O   LIG     1       7.746  45.449  18.170  0.00  0.00    -0.491 OA
ATOM     14  C   LIG     1       8.981  44.956  18.685  0.00  0.00     0.277 C 
ENDBRANCH   1  13
BRANCH   2  15
ATOM     15  O   LIG     1       7.222  48.049  19.000  0.00  0.00    -0.503 OA
ATOM     16  H   LIG     1       7.213  48.014  18.028  0.00  0.00     0.292 HD
ENDBRANCH   2  15
TORSDOF 5
ENDMDL
MODEL 2
REMARK VINA RESULT:      -6.1      1.901      6.252
REMARK  5 active torsions:
REMARK  status: ('A' for Active; 'I' for Inactive)
REMARK    1  A    between atoms: C_3  and  O_1 
REMARK    2  A    between atoms: C_4  and  O_14 
REMARK    3  A    between atoms: C_7  and  C_8 
REMARK    4  A    between atoms: C_9  and  C_10 
REMARK    5  A    between atoms: C_10  and  O_12 
ROOT
ATOM      1  C   LIG     1       2.638  42.244  22.793  0.00  0.00     0.162 A 
ATOM      2  C   LIG     1       3.139  42.431  24.082  0.00  0.00     0.158 A 
ATOM      3  C   LIG     1       4.030  43.472  24.339  0.00  0.00     0.050 A 
ATOM      4  C   LIG     1       4.421  44.328  23.308  0.00  0.00     0.012 A 
ATOM      5  C   LIG     1       3.920  44.141  22.020  0.00  0.00    -0.021 A 
ATOM      6  C   LIG     1       3.029  43.099  21.762  0.00  0.00     0.057 A 
ENDROOT
BRANCH   5   7
ATOM      7  C   LIG     1       4.327  45.032  20.946  0.00  0.00     0.015 C 
ATOM      8  C   LIG     1       4.878  46.256  21.111  0.00  0.00     0.092 C 
BRANCH   8   9
ATOM      9  C   LIG     1       5.258  47.062  19.934  0.00  0.00     0.330 C 
ATOM     10  O   LIG     1       5.436  48.269  19.909  0.00  0.00    -0.246 OA
BRANCH   9  11
ATOM     11  O   LIG     1       5.381  46.240  18.866  0.00  0.00    -0.478 OA
ATOM     12  H   LIG     1       5.902  45.437  19.079  0.00  0.00     0.295 HD
ENDBRANCH   9  11
ENDBRANCH   8   9
ENDBRANCH   5   7
BRANCH   1  13
ATOM     13  O   LIG     1       1.768  41.229  22.529  0.00  0.00    -0.491 OA
ATOM     14  C   LIG     1       2.323  40.016  22.025  0.00  0.00     0.277 C 
ENDBRANCH   1  13
BRANCH   2  15
ATOM     15  O   LIG     1       2.766  41.602  25.096  0.00  0.00    -0.503 OA
ATOM     16  H   LIG     1       3.354  41.749  25.858  0.00  0.00     0.292 HD
ENDBRANCH   2  15
TORSDOF 5
ENDMDL
MODEL 3
REMARK VINA RESULT:      -5.8      1.814      6.416
REMARK  5 active torsions:
REMARK  status: ('A' for Active; 'I' for Inactive)
REMARK    1  A    between atoms: C_3  and  O_1 
REMARK    2  A    between atoms: C_4  and  O_14 
REMARK    3  A    between atoms: C_7  and  C_8 
REMARK    4  A    between atoms: C_9  and  C_10 
REMARK    5  A    between atoms: C_10  and  O_12 
ROOT
ATOM      1  C   LIG     1       3.051  42.433  23.689  0.00  0.00     0.162 A 
ATOM      2  C   LIG     1       2.189  41.792  22.798  0.00  0.00     0.158 A 
ATOM      3  C   LIG     1       1.990  42.317  21.522  0.00  0.00     0.050 A 
ATOM      4  C   LIG     1       2.652  43.483  21.136  0.00  0.00     0.012 A 
ATOM      5  C   LIG     1       3.512  44.123  22.026  0.00  0.00    -0.021 A 
ATOM      6  C   LIG     1       3.713  43.599  23.303  0.00  0.00     0.057 A 
ENDROOT
BRANCH   5   7
ATOM      7  C   LIG     1       4.203  45.338  21.623  0.00  0.00     0.015 C 
ATOM      8  C   LIG     1       5.018  45.456  20.552  0.00  0.00     0.092 C 
BRANCH   8   9
ATOM      9  C   LIG     1       5.654  46.752  20.243  0.00  0.00     0.330 C 
ATOM     10  O   LIG     1       6.648  46.927  19.557  0.00  0.00    -0.246 OA
BRANCH   9  11
ATOM     11  O   LIG     1       4.950  47.736  20.850  0.00  0.00    -0.478 OA
ATOM     12  H   LIG     1       4.466  48.293  20.203  0.00  0.00     0.295 HD
ENDBRANCH   9  11
ENDBRANCH   8   9
ENDBRANCH   5   7
BRANCH   1  13
ATOM     13  O   LIG     1       3.253  41.930  24.939  0.00  0.00    -0.491 OA
ATOM     14  C   LIG     1       4.013  42.729  25.843  0.00  0.00     0.277 C 
ENDBRANCH   1  13
BRANCH   2  15
ATOM     15  O   LIG     1       1.537  40.654  23.164  0.00  0.00    -0.503 OA
ATOM     16  H   LIG     1       1.048  40.820  23.988  0.00  0.00     0.292 HD
ENDBRANCH   2  15
TORSDOF 5
ENDMDL
MODEL 4
REMARK VINA RESULT:      -5.7      1.415      2.598
REMARK  5 active torsions:
REMARK  status: ('A' for Active; 'I' for Inactive)
REMARK    1  A    between atoms: C_3  and  O_1 
REMARK    2  A    between atoms: C_4  and  O_14 
REMARK    3  A    between atoms: C_7  and  C_8 
REMARK    4  A    between atoms: C_9  and  C_10 
REMARK    5  A    between atoms: C_10  and  O_12 
ROOT
ATOM      1  C   LIG     1       6.038  45.566  19.420  0.00  0.00     0.162 A 
ATOM      2  C   LIG     1       6.753  45.006  18.361  0.00  0.00     0.158 A 
ATOM      3  C   LIG     1       6.376  43.768  17.842  0.00  0.00     0.050 A 
ATOM      4  C   LIG     1       5.283  43.089  18.382  0.00  0.00     0.012 A 
ATOM      5  C   LIG     1       4.568  43.648  19.440  0.00  0.00    -0.021 A 
ATOM      6  C   LIG     1       4.945  44.887  19.959  0.00  0.00     0.057 A 
ENDROOT
BRANCH   5   7
ATOM      7  C   LIG     1       3.429  42.941  20.001  0.00  0.00     0.015 C 
ATOM      8  C   LIG     1       3.429  42.257  21.167  0.00  0.00     0.092 C 
BRANCH   8   9
ATOM      9  C   LIG     1       2.199  41.587  21.634  0.00  0.00     0.330 C 
ATOM     10  O   LIG     1       1.990  40.385  21.652  0.00  0.00    -0.246 OA
BRANCH   9  11
ATOM     11  O   LIG     1       1.322  42.531  22.048  0.00  0.00    -0.478 OA
ATOM     12  H   LIG     1       0.679  42.768  21.346  0.00  0.00     0.295 HD
ENDBRANCH   9  11
ENDBRANCH   8   9
ENDBRANCH   5   7
BRANCH   1  13
ATOM     13  O   LIG     1       6.397  46.775  19.937  0.00  0.00    -0.491 OA
ATOM     14  C   LIG     1       5.416  47.809  19.908  0.00  0.00     0.277 C 
ENDBRANCH   1  13
BRANCH   2  15
ATOM     15  O   LIG     1       7.823  45.659  17.827  0.00  0.00    -0.503 OA
ATOM     16  H   LIG     1       8.621  45.116  17.953  0.00  0.00     0.292 HD
ENDBRANCH   2  15
TORSDOF 5
ENDMDL
MODEL 5
REMARK VINA RESULT:      -5.5      1.593      1.639
REMARK  5 active torsions:
REMARK  status: ('A' for Active; 'I' for Inactive)
REMARK    1  A    between atoms: C_3  and  O_1 
REMARK    2  A    between atoms: C_4  and  O_14 
REMARK    3  A    between atoms: C_7  and  C_8 
REMARK    4  A    between atoms: C_9  and  C_10 
REMARK    5  A    between atoms: C_10  and  O_12 
ROOT
ATOM      1  C   LIG     1       7.403  45.731  21.158  0.00  0.00     0.162 A 
ATOM      2  C   LIG     1       6.965  46.503  20.082  0.00  0.00     0.158 A 
ATOM      3  C   LIG     1       5.664  46.355  19.603  0.00  0.00     0.050 A 
ATOM      4  C   LIG     1       4.800  45.436  20.199  0.00  0.00     0.012 A 
ATOM      5  C   LIG     1       5.239  44.664  21.274  0.00  0.00    -0.021 A 
ATOM      6  C   LIG     1       6.540  44.811  21.754  0.00  0.00     0.057 A 
ENDROOT
BRANCH   5   7
ATOM      7  C   LIG     1       4.339  43.706  21.896  0.00  0.00     0.015 C 
ATOM      8  C   LIG     1       2.996  43.678  21.738  0.00  0.00     0.092 C 
BRANCH   8   9
ATOM      9  C   LIG     1       2.192  42.644  22.419  0.00  0.00     0.330 C 
ATOM     10  O   LIG     1       2.486  42.058  23.448  0.00  0.00    -0.246 OA
BRANCH   9  11
ATOM     11  O   LIG     1       1.055  42.442  21.713  0.00  0.00    -0.478 OA
ATOM     12  H   LIG     1       1.165  41.744  21.032  0.00  0.00     0.295 HD
ENDBRANCH   9  11
ENDBRANCH   8   9
ENDBRANCH   5   7
BRANCH   1  13
ATOM     13  O   LIG     1       8.673  45.865  21.635  0.00  0.00    -0.491 OA
ATOM     14  C   LIG     1       9.534  44.735  21.510  0.00  0.00     0.277 C 
ENDBRANCH   1  13
BRANCH   2  15
ATOM     15  O   LIG     1       7.799  47.403  19.491  0.00  0.00    -0.503 OA
ATOM     16  H   LIG     1       8.720  47.139  19.659  0.00  0.00     0.292 HD
ENDBRANCH   2  15
TORSDOF 5
ENDMDL
MODEL 6
REMARK VINA RESULT:      -5.4     26.869     27.666
REMARK  5 active torsions:
REMARK  status: ('A' for Active; 'I' for Inactive)
REMARK    1  A    between atoms: C_3  and  O_1 
REMARK    2  A    between atoms: C_4  and  O_14 
REMARK    3  A    between atoms: C_7  and  C_8 
REMARK    4  A    between atoms: C_9  and  C_10 
REMARK    5  A    between atoms: C_10  and  O_12 
ROOT
ATOM      1  C   LIG     1      14.894  67.039   7.246  0.00  0.00     0.162 A 
ATOM      2  C   LIG     1      13.893  67.751   6.584  0.00  0.00     0.158 A 
ATOM      3  C   LIG     1      13.171  68.733   7.262  0.00  0.00     0.050 A 
ATOM      4  C   LIG     1      13.450  69.003   8.602  0.00  0.00     0.012 A 
ATOM      5  C   LIG     1      14.450  68.292   9.263  0.00  0.00    -0.021 A 
ATOM      6  C   LIG     1      15.173  67.310   8.586  0.00  0.00     0.057 A 
ENDROOT
BRANCH   5   7
ATOM      7  C   LIG     1      14.741  68.575  10.660  0.00  0.00     0.015 C 
ATOM      8  C   LIG     1      15.824  68.134  11.338  0.00  0.00     0.092 C 
BRANCH   8   9
ATOM      9  C   LIG     1      16.010  68.501  12.756  0.00  0.00     0.330 C 
ATOM     10  O   LIG     1      16.502  69.534  13.179  0.00  0.00    -0.246 OA
BRANCH   9  11
ATOM     11  O   LIG     1      15.540  67.495  13.530  0.00  0.00    -0.478 OA
ATOM     12  H   LIG     1      15.749  66.613  13.153  0.00  0.00     0.295 HD
ENDBRANCH   9  11
ENDBRANCH   8   9
ENDBRANCH   5   7
BRANCH   1  13
ATOM     13  O   LIG     1      15.605  66.077   6.594  0.00  0.00    -0.491 OA
ATOM     14  C   LIG     1      16.959  66.385   6.264  0.00  0.00     0.277 C 
ENDBRANCH   1  13
BRANCH   2  15
ATOM     15  O   LIG     1      13.611  67.495   5.276  0.00  0.00    -0.503 OA
ATOM     16  H   LIG     1      13.598  68.335   4.785  0.00  0.00     0.292 HD
ENDBRANCH   2  15
TORSDOF 5
ENDMDL
MODEL 7
REMARK VINA RESULT:      -5.2      3.070      5.365
REMARK  5 active torsions:
REMARK  status: ('A' for Active; 'I' for Inactive)
REMARK    1  A    between atoms: C_3  and  O_1 
REMARK    2  A    between atoms: C_4  and  O_14 
REMARK    3  A    between atoms: C_7  and  C_8 
REMARK    4  A    between atoms: C_9  and  C_10 
REMARK    5  A    between atoms: C_10  and  O_12 
ROOT
ATOM      1  C   LIG     1       3.646  43.410  21.343  0.00  0.00     0.162 A 
ATOM      2  C   LIG     1       2.861  42.507  20.625  0.00  0.00     0.158 A 
ATOM      3  C   LIG     1       2.174  41.495  21.294  0.00  0.00     0.050 A 
ATOM      4  C   LIG     1       2.271  41.385  22.682  0.00  0.00     0.012 A 
ATOM      5  C   LIG     1       3.056  42.287  23.399  0.00  0.00    -0.021 A 
ATOM      6  C   LIG     1       3.743  43.300  22.730  0.00  0.00     0.057 A 
ENDROOT
BRANCH   5   7
ATOM      7  C   LIG     1       3.156  42.174  24.845  0.00  0.00     0.015 C 
ATOM      8  C   LIG     1       2.750  41.112  25.576  0.00  0.00     0.092 C 
BRANCH   8   9
ATOM      9  C   LIG     1       2.917  41.115  27.043  0.00  0.00     0.330 C 
ATOM     10  O   LIG     1       3.163  42.084  27.743  0.00  0.00    -0.246 OA
BRANCH   9  11
ATOM     11  O   LIG     1       2.750  39.852  27.502  0.00  0.00    -0.478 OA
ATOM     12  H   LIG     1       3.314  39.210  27.021  0.00  0.00     0.295 HD
ENDBRANCH   9  11
ENDBRANCH   8   9
ENDBRANCH   5   7
BRANCH   1  13
ATOM     13  O   LIG     1       4.323  44.402  20.700  0.00  0.00    -0.491 OA
ATOM     14  C   LIG     1       4.455  45.646  21.386  0.00  0.00     0.277 C 
ENDBRANCH   1  13
BRANCH   2  15
ATOM     15  O   LIG     1       2.760  42.603  19.270  0.00  0.00    -0.503 OA
ATOM     16  H   LIG     1       1.820  42.573  19.020  0.00  0.00     0.292 HD
ENDBRANCH   2  15
TORSDOF 5
ENDMDL
MODEL 8
REMARK VINA RESULT:      -5.2     11.600     15.515
REMARK  5 active torsions:
REMARK  status: ('A' for Active; 'I' for Inactive)
REMARK    1  A    between atoms: C_3  and  O_1 
REMARK    2  A    between atoms: C_4  and  O_14 
REMARK    3  A    between atoms: C_7  and  C_8 
REMARK    4  A    between atoms: C_9  and  C_10 
REMARK    5  A    between atoms: C_10  and  O_12 
ROOT
ATOM      1  C   LIG     1      -8.249  37.786  26.097  0.00  0.00     0.162 A 
ATOM      2  C   LIG     1      -8.994  38.145  24.973  0.00  0.00     0.158 A 
ATOM      3  C   LIG     1      -8.402  38.129  23.711  0.00  0.00     0.050 A 
ATOM      4  C   LIG     1      -7.066  37.754  23.570  0.00  0.00     0.012 A 
ATOM      5  C   LIG     1      -6.322  37.396  24.693  0.00  0.00    -0.021 A 
ATOM      6  C   LIG     1      -6.912  37.411  25.957  0.00  0.00     0.057 A 
ENDROOT
BRANCH   5   7
ATOM      7  C   LIG     1      -4.929  37.004  24.547  0.00  0.00     0.015 C 
ATOM      8  C   LIG     1      -3.898  37.848  24.318  0.00  0.00     0.092 C 
BRANCH   8   9
ATOM      9  C   LIG     1      -2.523  37.324  24.198  0.00  0.00     0.330 C 
ATOM     10  O   LIG     1      -1.966  36.568  24.977  0.00  0.00    -0.246 OA
BRANCH   9  11
ATOM     11  O   LIG     1      -1.966  37.820  23.069  0.00  0.00    -0.478 OA
ATOM     12  H   LIG     1      -1.268  37.230  22.714  0.00  0.00     0.295 HD
ENDBRANCH   9  11
ENDBRANCH   8   9
ENDBRANCH   5   7
BRANCH   1  13
ATOM     13  O   LIG     1      -8.815  37.798  27.336  0.00  0.00    -0.491 OA
ATOM     14  C   LIG     1      -9.283  36.551  27.846  0.00  0.00     0.277 C 
ENDBRANCH   1  13
BRANCH   2  15
ATOM     15  O   LIG     1     -10.299  38.514  25.098  0.00  0.00    -0.503 OA
ATOM     16  H   LIG     1     -10.707  38.539  24.214  0.00  0.00     0.292 HD
ENDBRANCH   2  15
TORSDOF 5
ENDMDL
MODEL 9
REMARK VINA RESULT:      -5.1     22.030     22.549
REMARK  5 active torsions:
REMARK  status: ('A' for Active; 'I' for Inactive)
REMARK    1  A    between atoms: C_3  and  O_1 
REMARK    2  A    between atoms: C_4  and  O_14 
REMARK    3  A    between atoms: C_7  and  C_8 
REMARK    4  A    between atoms: C_9  and  C_10 
REMARK    5  A    between atoms: C_10  and  O_12 
ROOT
ATOM      1  C   LIG     1      -8.225  45.871   2.409  0.00  0.00     0.162 A 
ATOM      2  C   LIG     1      -6.885  46.146   2.680  0.00  0.00     0.158 A 
ATOM      3  C   LIG     1      -6.534  47.328   3.331  0.00  0.00     0.050 A 
ATOM      4  C   LIG     1      -7.524  48.236   3.711  0.00  0.00     0.012 A 
ATOM      5  C   LIG     1      -8.863  47.960   3.439  0.00  0.00    -0.021 A 
ATOM      6  C   LIG     1      -9.215  46.778   2.788  0.00  0.00     0.057 A 
ENDROOT
BRANCH   5   7
ATOM      7  C   LIG     1      -9.895  48.906   3.835  0.00  0.00     0.015 C 
ATOM      8  C   LIG     1     -10.388  49.046   5.086  0.00  0.00     0.092 C 
BRANCH   8   9
ATOM      9  C   LIG     1     -11.431  50.054   5.362  0.00  0.00     0.330 C 
ATOM     10  O   LIG     1     -12.485  50.189   4.762  0.00  0.00    -0.246 OA
BRANCH   9  11
ATOM     11  O   LIG     1     -11.031  50.819   6.404  0.00  0.00    -0.478 OA
ATOM     12  H   LIG     1     -10.976  50.304   7.237  0.00  0.00     0.295 HD
ENDBRANCH   9  11
ENDBRANCH   8   9
ENDBRANCH   5   7
BRANCH   1  13
ATOM     13  O   LIG     1      -8.580  44.719   1.772  0.00  0.00    -0.491 OA
ATOM     14  C   LIG     1      -9.608  44.814   0.788  0.00  0.00     0.277 C 
ENDBRANCH   1  13
BRANCH   2  15
ATOM     15  O   LIG     1      -5.909  45.268   2.314  0.00  0.00    -0.503 OA
ATOM     16  H   LIG     1      -5.598  44.793   3.104  0.00  0.00     0.292 HD
ENDBRANCH   2  15
TORSDOF 5
ENDMDL
