MODEL 1
REMARK VINA RESULT:      -6.2      0.000      0.000
REMARK  12 active torsions:
REMARK  status: ('A' for Active; 'I' for Inactive)
REMARK    1  A    between atoms: O_1  and  C_10 
REMARK    2  A    between atoms: O_2  and  C_17 
REMARK    3  A    between atoms: O_3  and  C_20 
REMARK    4  A    between atoms: O_4  and  C_27 
REMARK    5  A    between atoms: O_6  and  C_29 
REMARK    6  A    between atoms: O_7  and  C_28 
REMARK    7  A    between atoms: O_8  and  C_33 
REMARK    8  A    between atoms: C_11  and  C_20 
REMARK    9  A    between atoms: C_20  and  C_28 
REMARK   10  A    between atoms: C_28  and  C_31 
REMARK   11  A    between atoms: C_31  and  C_32 
REMARK   12  A    between atoms: C_32  and  C_33 
ROOT
HETATM    1  O   UNK     0      -0.728   0.124   0.442  0.00  0.00    -0.384 OA
HETATM    2  H   UNK     0      -0.533   1.067   0.533  0.00  0.00     0.211 HD
ENDROOT
BRANCH   1   3
HETATM    3  C   UNK     0       0.061  -0.665   1.361  0.00  0.00     0.090 C 
HETATM    4  C   UNK     0       0.360  -2.051   0.733  0.00  0.00    -0.000 C 
HETATM    5  C   UNK     0      -1.073  -2.637   0.630  0.00  0.00     0.034 C 
HETATM    6  C   UNK     0       1.045  -1.836  -0.624  0.00  0.00     0.045 C 
HETATM    7  C   UNK     0       1.258  -2.945   1.632  0.00  0.00     0.019 C 
HETATM    8  C   UNK     0      -1.750  -2.183   1.944  0.00  0.00     0.012 C 
HETATM    9  C   UNK     0      -0.891  -1.030   2.508  0.00  0.00     0.044 C 
HETATM   10  C   UNK     0       2.346  -1.020  -0.476  0.00  0.00     0.128 C 
HETATM   11  C   UNK     0       2.182   0.334   0.311  0.00  0.00     0.055 C 
HETATM   12  C   UNK     0       3.555   1.099   0.570  0.00  0.00    -0.021 C 
HETATM   13  C   UNK     0       1.339   0.119   1.585  0.00  0.00    -0.034 C 
HETATM   14  C   UNK     0       3.378   2.157   1.697  0.00  0.00     0.071 C 
HETATM   15  C   UNK     0       4.078   1.801  -0.737  0.00  0.00     0.045 C 
HETATM   16  C   UNK     0       4.657   0.104   1.030  0.00  0.00     0.017 C 
HETATM   17  C   UNK     0       2.526   3.382   1.321  0.00  0.00     0.047 C 
HETATM   18  C   UNK     0       2.800   1.528   2.949  0.00  0.00     0.154 C 
HETATM   19  C   UNK     0       2.597   3.749  -0.157  0.00  0.00     0.147 C 
HETATM   20  C   UNK     0       3.916   3.324  -0.786  0.00  0.00     0.147 C 
HETATM   21  O   UNK     0       3.202   1.824   4.072  0.00  0.00    -0.293 OA
HETATM   22  C   UNK     0       1.656   0.609   2.792  0.00  0.00     0.057 C 
BRANCH   5  23
HETATM   23  C   UNK     0      -1.180  -4.137   0.397  0.00  0.00     0.084 C 
HETATM   24  C   UNK     0      -0.410  -4.892   1.493  0.00  0.00     0.049 C 
BRANCH  23  25
HETATM   25  O   UNK     0      -2.559  -4.515   0.506  0.00  0.00    -0.387 OA
HETATM   26  H   UNK     0      -2.786  -4.614   1.445  0.00  0.00     0.210 HD
ENDBRANCH  23  25
BRANCH  23  27
HETATM   27  C   UNK     0      -0.675  -4.550  -1.012  0.00  0.00     0.152 C 
BRANCH  27  28
HETATM   28  O   UNK     0      -1.697  -4.296  -1.982  0.00  0.00    -0.393 OA
HETATM   29  H   UNK     0      -1.442  -3.495  -2.470  0.00  0.00     0.210 HD
ENDBRANCH  27  28
BRANCH  27  30
HETATM   30  C   UNK     0      -0.255  -6.028  -1.126  0.00  0.00     0.037 C 
BRANCH  30  31
HETATM   31  C   UNK     0      -1.470  -6.967  -1.235  0.00  0.00     0.040 C 
BRANCH  31  32
HETATM   32  C   UNK     0      -1.645  -7.630  -2.618  0.00  0.00     0.051 C 
HETATM   33  C   UNK     0      -0.323  -7.564  -3.389  0.00  0.00     0.045 C 
HETATM   34  C   UNK     0      -2.116  -9.084  -2.515  0.00  0.00     0.045 C 
BRANCH  32  35
HETATM   35  O   UNK     0      -2.620  -6.890  -3.353  0.00  0.00    -0.391 OA
HETATM   36  H   UNK     0      -3.490  -7.300  -3.215  0.00  0.00     0.210 HD
ENDBRANCH  32  35
ENDBRANCH  31  32
ENDBRANCH  30  31
ENDBRANCH  27  30
ENDBRANCH  23  27
ENDBRANCH   5  23
BRANCH  10  37
HETATM   37  O   UNK     0       2.843  -0.779  -1.789  0.00  0.00    -0.395 OA
HETATM   38  H   UNK     0       2.681   0.156  -2.000  0.00  0.00     0.210 HD
ENDBRANCH  10  37
BRANCH  19  39
HETATM   39  O   UNK     0       2.414   5.156  -0.289  0.00  0.00    -0.393 OA
HETATM   40  H   UNK     0       3.195   5.525  -0.734  0.00  0.00     0.210 HD
ENDBRANCH  19  39
BRANCH  20  41
HETATM   41  O   UNK     0       5.013   3.930  -0.099  0.00  0.00    -0.393 OA
HETATM   42  H   UNK     0       4.702   4.180   0.788  0.00  0.00     0.210 HD
ENDBRANCH  20  41
ENDBRANCH   1   3
TORSDOF 12
ENDMDL
MODEL 2
REMARK VINA RESULT:      -5.7      3.704      5.925
REMARK  12 active torsions:
REMARK  status: ('A' for Active; 'I' for Inactive)
REMARK    1  A    between atoms: O_1  and  C_10 
REMARK    2  A    between atoms: O_2  and  C_17 
REMARK    3  A    between atoms: O_3  and  C_20 
REMARK    4  A    between atoms: O_4  and  C_27 
REMARK    5  A    between atoms: O_6  and  C_29 
REMARK    6  A    between atoms: O_7  and  C_28 
REMARK    7  A    between atoms: O_8  and  C_33 
REMARK    8  A    between atoms: C_11  and  C_20 
REMARK    9  A    between atoms: C_20  and  C_28 
REMARK   10  A    between atoms: C_28  and  C_31 
REMARK   11  A    between atoms: C_31  and  C_32 
REMARK   12  A    between atoms: C_32  and  C_33 
ROOT
HETATM    1  O   UNK     0       2.331  -2.728   2.913  0.00  0.00    -0.384 OA
HETATM    2  H   UNK     0       2.668  -2.758   2.006  0.00  0.00     0.211 HD
ENDROOT
BRANCH   1   3
HETATM    3  C   UNK     0       0.962  -2.266   2.948  0.00  0.00     0.090 C 
HETATM    4  C   UNK     0       0.017  -3.404   2.481  0.00  0.00    -0.000 C 
HETATM    5  C   UNK     0       0.479  -3.577   1.010  0.00  0.00     0.034 C 
HETATM    6  C   UNK     0       0.263  -4.636   3.362  0.00  0.00     0.045 C 
HETATM    7  C   UNK     0      -1.485  -3.011   2.544  0.00  0.00     0.019 C 
HETATM    8  C   UNK     0       0.726  -2.129   0.528  0.00  0.00     0.012 C 
HETATM    9  C   UNK     0       0.843  -1.256   1.797  0.00  0.00     0.044 C 
HETATM   10  C   UNK     0       0.028  -4.318   4.854  0.00  0.00     0.128 C 
HETATM   11  C   UNK     0       0.812  -3.061   5.385  0.00  0.00     0.055 C 
HETATM   12  C   UNK     0       0.458  -2.669   6.888  0.00  0.00    -0.021 C 
HETATM   13  C   UNK     0       0.690  -1.889   4.390  0.00  0.00    -0.034 C 
HETATM   14  C   UNK     0       0.912  -1.211   7.186  0.00  0.00     0.071 C 
HETATM   15  C   UNK     0       1.132  -3.653   7.914  0.00  0.00     0.045 C 
HETATM   16  C   UNK     0      -1.077  -2.738   7.124  0.00  0.00     0.017 C 
HETATM   17  C   UNK     0       2.435  -1.001   7.270  0.00  0.00     0.047 C 
HETATM   18  C   UNK     0       0.344  -0.244   6.167  0.00  0.00     0.154 C 
HETATM   19  C   UNK     0       3.197  -2.225   7.766  0.00  0.00     0.147 C 
HETATM   20  C   UNK     0       2.341  -3.098   8.674  0.00  0.00     0.147 C 
HETATM   21  O   UNK     0      -0.090   0.860   6.487  0.00  0.00    -0.293 OA
HETATM   22  C   UNK     0       0.415  -0.625   4.743  0.00  0.00     0.057 C 
BRANCH   5  23
HETATM   23  C   UNK     0      -0.453  -4.355   0.091  0.00  0.00     0.084 C 
HETATM   24  C   UNK     0      -1.864  -3.747   0.143  0.00  0.00     0.049 C 
BRANCH  23  25
HETATM   25  O   UNK     0       0.023  -4.221  -1.255  0.00  0.00    -0.387 OA
HETATM   26  H   UNK     0      -0.462  -3.501  -1.690  0.00  0.00     0.210 HD
ENDBRANCH  23  25
BRANCH  23  27
HETATM   27  C   UNK     0      -0.495  -5.868   0.441  0.00  0.00     0.152 C 
BRANCH  27  28
HETATM   28  O   UNK     0       0.838  -6.386   0.488  0.00  0.00    -0.393 OA
HETATM   29  H   UNK     0       1.360  -5.798   1.060  0.00  0.00     0.210 HD
ENDBRANCH  27  28
BRANCH  27  30
HETATM   30  C   UNK     0      -1.314  -6.723  -0.545  0.00  0.00     0.037 C 
BRANCH  30  31
HETATM   31  C   UNK     0      -0.413  -7.491  -1.529  0.00  0.00     0.040 C 
BRANCH  31  32
HETATM   32  C   UNK     0      -1.038  -7.726  -2.920  0.00  0.00     0.051 C 
HETATM   33  C   UNK     0      -1.626  -9.139  -2.986  0.00  0.00     0.045 C 
HETATM   34  C   UNK     0      -2.119  -6.696  -3.258  0.00  0.00     0.045 C 
BRANCH  32  35
HETATM   35  O   UNK     0      -0.004  -7.634  -3.901  0.00  0.00    -0.391 OA
HETATM   36  H   UNK     0       0.174  -6.696  -4.078  0.00  0.00     0.210 HD
ENDBRANCH  32  35
ENDBRANCH  31  32
ENDBRANCH  30  31
ENDBRANCH  27  30
ENDBRANCH  23  27
ENDBRANCH   5  23
BRANCH  10  37
HETATM   37  O   UNK     0       0.388  -5.482   5.593  0.00  0.00    -0.395 OA
HETATM   38  H   UNK     0       1.345  -5.618   5.485  0.00  0.00     0.210 HD
ENDBRANCH  10  37
BRANCH  19  39
HETATM   39  O   UNK     0       4.366  -1.788   8.454  0.00  0.00    -0.393 OA
HETATM   40  H   UNK     0       5.072  -2.437   8.298  0.00  0.00     0.210 HD
ENDBRANCH  19  39
BRANCH  20  41
HETATM   41  O   UNK     0       1.879  -2.345   9.797  0.00  0.00    -0.393 OA
HETATM   42  H   UNK     0       2.644  -2.176  10.372  0.00  0.00     0.210 HD
ENDBRANCH  20  41
ENDBRANCH   1   3
TORSDOF 12
ENDMDL
MODEL 3
REMARK VINA RESULT:      -5.5      4.247      6.457
REMARK  12 active torsions:
REMARK  status: ('A' for Active; 'I' for Inactive)
REMARK    1  A    between atoms: O_1  and  C_10 
REMARK    2  A    between atoms: O_2  and  C_17 
REMARK    3  A    between atoms: O_3  and  C_20 
REMARK    4  A    between atoms: O_4  and  C_27 
REMARK    5  A    between atoms: O_6  and  C_29 
REMARK    6  A    between atoms: O_7  and  C_28 
REMARK    7  A    between atoms: O_8  and  C_33 
REMARK    8  A    between atoms: C_11  and  C_20 
REMARK    9  A    between atoms: C_20  and  C_28 
REMARK   10  A    between atoms: C_28  and  C_31 
REMARK   11  A    between atoms: C_31  and  C_32 
REMARK   12  A    between atoms: C_32  and  C_33 
ROOT
HETATM    1  O   UNK     0       0.020  -5.247   4.663  0.00  0.00    -0.384 OA
HETATM    2  H   UNK     0      -0.832  -5.032   4.257  0.00  0.00     0.211 HD
ENDROOT
BRANCH   1   3
HETATM    3  C   UNK     0       1.116  -4.678   3.911  0.00  0.00     0.090 C 
HETATM    4  C   UNK     0       0.574  -3.602   2.935  0.00  0.00    -0.000 C 
HETATM    5  C   UNK     0      -0.309  -4.474   2.004  0.00  0.00     0.034 C 
HETATM    6  C   UNK     0      -0.211  -2.559   3.744  0.00  0.00     0.045 C 
HETATM    7  C   UNK     0       1.696  -2.895   2.126  0.00  0.00     0.019 C 
HETATM    8  C   UNK     0       0.519  -5.766   1.817  0.00  0.00     0.012 C 
HETATM    9  C   UNK     0       1.569  -5.786   2.950  0.00  0.00     0.044 C 
HETATM   10  C   UNK     0       0.670  -1.908   4.829  0.00  0.00     0.128 C 
HETATM   11  C   UNK     0       1.412  -2.929   5.769  0.00  0.00     0.055 C 
HETATM   12  C   UNK     0       2.418  -2.246   6.797  0.00  0.00    -0.021 C 
HETATM   13  C   UNK     0       2.046  -4.065   4.937  0.00  0.00    -0.034 C 
HETATM   14  C   UNK     0       3.412  -3.302   7.362  0.00  0.00     0.071 C 
HETATM   15  C   UNK     0       1.649  -1.555   7.982  0.00  0.00     0.045 C 
HETATM   16  C   UNK     0       3.259  -1.145   6.090  0.00  0.00     0.017 C 
HETATM   17  C   UNK     0       2.796  -4.331   8.327  0.00  0.00     0.047 C 
HETATM   18  C   UNK     0       4.114  -4.044   6.244  0.00  0.00     0.154 C 
HETATM   19  C   UNK     0       1.612  -3.795   9.125  0.00  0.00     0.147 C 
HETATM   20  C   UNK     0       1.699  -2.288   9.327  0.00  0.00     0.147 C 
HETATM   21  O   UNK     0       5.310  -4.320   6.295  0.00  0.00    -0.293 OA
HETATM   22  C   UNK     0       3.293  -4.524   5.115  0.00  0.00     0.057 C 
BRANCH   5  23
HETATM   23  C   UNK     0      -0.734  -3.847   0.684  0.00  0.00     0.084 C 
HETATM   24  C   UNK     0      -2.265  -3.723   0.634  0.00  0.00     0.049 C 
BRANCH  23  25
HETATM   25  O   UNK     0      -0.195  -2.520   0.619  0.00  0.00    -0.387 OA
HETATM   26  H   UNK     0      -0.891  -1.911   0.322  0.00  0.00     0.210 HD
ENDBRANCH  23  25
BRANCH  23  27
HETATM   27  C   UNK     0      -0.208  -4.643  -0.541  0.00  0.00     0.152 C 
BRANCH  27  28
HETATM   28  O   UNK     0       0.211  -3.731  -1.562  0.00  0.00    -0.393 OA
HETATM   29  H   UNK     0       0.979  -3.244  -1.219  0.00  0.00     0.210 HD
ENDBRANCH  27  28
BRANCH  27  30
HETATM   30  C   UNK     0      -1.234  -5.617  -1.151  0.00  0.00     0.037 C 
BRANCH  30  31
HETATM   31  C   UNK     0      -0.579  -6.930  -1.616  0.00  0.00     0.040 C 
BRANCH  31  32
HETATM   32  C   UNK     0      -1.122  -7.478  -2.953  0.00  0.00     0.051 C 
HETATM   33  C   UNK     0      -1.605  -8.919  -2.758  0.00  0.00     0.045 C 
HETATM   34  C   UNK     0      -2.256  -6.621  -3.521  0.00  0.00     0.045 C 
BRANCH  32  35
HETATM   35  O   UNK     0      -0.052  -7.498  -3.899  0.00  0.00    -0.391 OA
HETATM   36  H   UNK     0      -0.028  -6.642  -4.359  0.00  0.00     0.210 HD
ENDBRANCH  32  35
ENDBRANCH  31  32
ENDBRANCH  30  31
ENDBRANCH  27  30
ENDBRANCH  23  27
ENDBRANCH   5  23
BRANCH  10  37
HETATM   37  O   UNK     0      -0.171  -1.046   5.591  0.00  0.00    -0.395 OA
HETATM   38  H   UNK     0      -1.089  -1.211   5.319  0.00  0.00     0.210 HD
ENDBRANCH  10  37
BRANCH  19  39
HETATM   39  O   UNK     0       1.568  -4.462  10.383  0.00  0.00    -0.393 OA
HETATM   40  H   UNK     0       2.480  -4.622  10.676  0.00  0.00     0.210 HD
ENDBRANCH  19  39
BRANCH  20  41
HETATM   41  O   UNK     0       2.912  -1.945   9.999  0.00  0.00    -0.393 OA
HETATM   42  H   UNK     0       3.623  -2.486   9.616  0.00  0.00     0.210 HD
ENDBRANCH  20  41
ENDBRANCH   1   3
TORSDOF 12
ENDMDL
MODEL 4
REMARK VINA RESULT:      -5.5      3.915      6.048
REMARK  12 active torsions:
REMARK  status: ('A' for Active; 'I' for Inactive)
REMARK    1  A    between atoms: O_1  and  C_10 
REMARK    2  A    between atoms: O_2  and  C_17 
REMARK    3  A    between atoms: O_3  and  C_20 
REMARK    4  A    between atoms: O_4  and  C_27 
REMARK    5  A    between atoms: O_6  and  C_29 
REMARK    6  A    between atoms: O_7  and  C_28 
REMARK    7  A    between atoms: O_8  and  C_33 
REMARK    8  A    between atoms: C_11  and  C_20 
REMARK    9  A    between atoms: C_20  and  C_28 
REMARK   10  A    between atoms: C_28  and  C_31 
REMARK   11  A    between atoms: C_31  and  C_32 
REMARK   12  A    between atoms: C_32  and  C_33 
ROOT
HETATM    1  O   UNK     0       2.953  -3.373   1.861  0.00  0.00    -0.384 OA
HETATM    2  H   UNK     0       3.640  -3.698   2.460  0.00  0.00     0.211 HD
ENDROOT
BRANCH   1   3
HETATM    3  C   UNK     0       1.784  -2.939   2.594  0.00  0.00     0.090 C 
HETATM    4  C   UNK     0       0.560  -3.795   2.175  0.00  0.00    -0.000 C 
HETATM    5  C   UNK     0       0.426  -3.396   0.682  0.00  0.00     0.034 C 
HETATM    6  C   UNK     0       0.900  -5.275   2.398  0.00  0.00     0.045 C 
HETATM    7  C   UNK     0      -0.731  -3.434   2.960  0.00  0.00     0.019 C 
HETATM    8  C   UNK     0       0.719  -1.878   0.679  0.00  0.00     0.012 C 
HETATM    9  C   UNK     0       1.428  -1.562   2.015  0.00  0.00     0.044 C 
HETATM   10  C   UNK     0       1.274  -5.553   3.869  0.00  0.00     0.128 C 
HETATM   11  C   UNK     0       2.393  -4.609   4.447  0.00  0.00     0.055 C 
HETATM   12  C   UNK     0       2.673  -4.821   6.001  0.00  0.00    -0.021 C 
HETATM   13  C   UNK     0       2.116  -3.142   4.058  0.00  0.00    -0.034 C 
HETATM   14  C   UNK     0       3.438  -3.596   6.582  0.00  0.00     0.071 C 
HETATM   15  C   UNK     0       3.499  -6.134   6.264  0.00  0.00     0.045 C 
HETATM   16  C   UNK     0       1.338  -4.952   6.785  0.00  0.00     0.017 C 
HETATM   17  C   UNK     0       4.901  -3.459   6.123  0.00  0.00     0.047 C 
HETATM   18  C   UNK     0       2.710  -2.304   6.278  0.00  0.00     0.154 C 
HETATM   19  C   UNK     0       5.578  -4.791   5.818  0.00  0.00     0.147 C 
HETATM   20  C   UNK     0       4.974  -5.932   6.624  0.00  0.00     0.147 C 
HETATM   21  O   UNK     0       2.609  -1.401   7.106  0.00  0.00    -0.293 OA
HETATM   22  C   UNK     0       2.200  -2.108   4.907  0.00  0.00     0.057 C 
BRANCH   5  23
HETATM   23  C   UNK     0      -0.889  -3.746  -0.001  0.00  0.00     0.084 C 
HETATM   24  C   UNK     0      -1.774  -4.558   0.958  0.00  0.00     0.049 C 
BRANCH  23  25
HETATM   25  O   UNK     0      -1.583  -2.527  -0.298  0.00  0.00    -0.387 OA
HETATM   26  H   UNK     0      -1.226  -1.817   0.261  0.00  0.00     0.210 HD
ENDBRANCH  23  25
BRANCH  23  27
HETATM   27  C   UNK     0      -0.673  -4.516  -1.332  0.00  0.00     0.152 C 
BRANCH  27  28
HETATM   28  O   UNK     0      -1.840  -4.394  -2.152  0.00  0.00    -0.393 OA
HETATM   29  H   UNK     0      -1.931  -5.221  -2.654  0.00  0.00     0.210 HD
ENDBRANCH  27  28
BRANCH  27  30
HETATM   30  C   UNK     0      -0.362  -6.015  -1.153  0.00  0.00     0.037 C 
BRANCH  30  31
HETATM   31  C   UNK     0      -1.543  -6.905  -1.579  0.00  0.00     0.040 C 
BRANCH  31  32
HETATM   32  C   UNK     0      -1.335  -7.649  -2.915  0.00  0.00     0.051 C 
HETATM   33  C   UNK     0       0.143  -7.583  -3.314  0.00  0.00     0.045 C 
HETATM   34  C   UNK     0      -1.793  -9.108  -2.852  0.00  0.00     0.045 C 
BRANCH  32  35
HETATM   35  O   UNK     0      -2.093  -6.981  -3.926  0.00  0.00    -0.391 OA
HETATM   36  H   UNK     0      -2.973  -7.389  -3.974  0.00  0.00     0.210 HD
ENDBRANCH  32  35
ENDBRANCH  31  32
ENDBRANCH  30  31
ENDBRANCH  27  30
ENDBRANCH  23  27
ENDBRANCH   5  23
BRANCH  10  37
HETATM   37  O   UNK     0       1.677  -6.917   3.949  0.00  0.00    -0.395 OA
HETATM   38  H   UNK     0       2.054  -7.063   4.834  0.00  0.00     0.210 HD
ENDBRANCH  10  37
BRANCH  19  39
HETATM   39  O   UNK     0       6.971  -4.670   6.092  0.00  0.00    -0.393 OA
HETATM   40  H   UNK     0       7.076  -4.380   7.013  0.00  0.00     0.210 HD
ENDBRANCH  19  39
BRANCH  20  41
HETATM   41  O   UNK     0       5.079  -5.663   8.023  0.00  0.00    -0.393 OA
HETATM   42  H   UNK     0       5.304  -4.723   8.125  0.00  0.00     0.210 HD
ENDBRANCH  20  41
ENDBRANCH   1   3
TORSDOF 12
ENDMDL
MODEL 5
REMARK VINA RESULT:      -5.4      2.013      2.401
REMARK  12 active torsions:
REMARK  status: ('A' for Active; 'I' for Inactive)
REMARK    1  A    between atoms: O_1  and  C_10 
REMARK    2  A    between atoms: O_2  and  C_17 
REMARK    3  A    between atoms: O_3  and  C_20 
REMARK    4  A    between atoms: O_4  and  C_27 
REMARK    5  A    between atoms: O_6  and  C_29 
REMARK    6  A    between atoms: O_7  and  C_28 
REMARK    7  A    between atoms: O_8  and  C_33 
REMARK    8  A    between atoms: C_11  and  C_20 
REMARK    9  A    between atoms: C_20  and  C_28 
REMARK   10  A    between atoms: C_28  and  C_31 
REMARK   11  A    between atoms: C_31  and  C_32 
REMARK   12  A    between atoms: C_32  and  C_33 
ROOT
HETATM    1  O   UNK     0      -1.450  -1.064   0.700  0.00  0.00    -0.384 OA
HETATM    2  H   UNK     0      -1.642  -2.001   0.555  0.00  0.00     0.211 HD
ENDROOT
BRANCH   1   3
HETATM    3  C   UNK     0      -0.502  -0.885   1.776  0.00  0.00     0.090 C 
HETATM    4  C   UNK     0       0.510  -2.060   1.779  0.00  0.00    -0.000 C 
HETATM    5  C   UNK     0      -0.432  -3.251   2.098  0.00  0.00     0.034 C 
HETATM    6  C   UNK     0       1.171  -2.139   0.397  0.00  0.00     0.045 C 
HETATM    7  C   UNK     0       1.606  -1.917   2.872  0.00  0.00     0.019 C 
HETATM    8  C   UNK     0      -1.406  -2.677   3.153  0.00  0.00     0.012 C 
HETATM    9  C   UNK     0      -1.295  -1.139   3.066  0.00  0.00     0.044 C 
HETATM   10  C   UNK     0       1.881  -0.818   0.034  0.00  0.00     0.128 C 
HETATM   11  C   UNK     0       0.982   0.466   0.172  0.00  0.00     0.055 C 
HETATM   12  C   UNK     0       1.764   1.830  -0.077  0.00  0.00    -0.021 C 
HETATM   13  C   UNK     0       0.194   0.432   1.499  0.00  0.00    -0.034 C 
HETATM   14  C   UNK     0       0.954   3.029   0.495  0.00  0.00     0.071 C 
HETATM   15  C   UNK     0       2.042   2.063  -1.608  0.00  0.00     0.045 C 
HETATM   16  C   UNK     0       3.142   1.811   0.643  0.00  0.00     0.017 C 
HETATM   17  C   UNK     0      -0.330   3.382  -0.277  0.00  0.00     0.047 C 
HETATM   18  C   UNK     0       0.599   2.802   1.950  0.00  0.00     0.154 C 
HETATM   19  C   UNK     0      -0.259   3.066  -1.767  0.00  0.00     0.147 C 
HETATM   20  C   UNK     0       1.170   3.121  -2.291  0.00  0.00     0.147 C 
HETATM   21  O   UNK     0       0.659   3.703   2.785  0.00  0.00    -0.293 OA
HETATM   22  C   UNK     0       0.076   1.476   2.332  0.00  0.00     0.057 C 
BRANCH   5  23
HETATM   23  C   UNK     0       0.234  -4.544   2.548  0.00  0.00     0.084 C 
HETATM   24  C   UNK     0       1.749  -4.328   2.691  0.00  0.00     0.049 C 
BRANCH  23  25
HETATM   25  O   UNK     0      -0.274  -4.887   3.844  0.00  0.00    -0.387 OA
HETATM   26  H   UNK     0      -1.108  -5.373   3.738  0.00  0.00     0.210 HD
ENDBRANCH  23  25
BRANCH  23  27
HETATM   27  C   UNK     0      -0.063  -5.724   1.584  0.00  0.00     0.152 C 
BRANCH  27  28
HETATM   28  O   UNK     0       1.168  -6.326   1.169  0.00  0.00    -0.393 OA
HETATM   29  H   UNK     0       0.982  -6.843   0.366  0.00  0.00     0.210 HD
ENDBRANCH  27  28
BRANCH  27  30
HETATM   30  C   UNK     0      -0.858  -5.328   0.325  0.00  0.00     0.037 C 
BRANCH  30  31
HETATM   31  C   UNK     0      -0.160  -5.789  -0.967  0.00  0.00     0.040 C 
BRANCH  31  32
HETATM   32  C   UNK     0      -1.012  -6.715  -1.861  0.00  0.00     0.051 C 
HETATM   33  C   UNK     0      -0.098  -7.493  -2.813  0.00  0.00     0.045 C 
HETATM   34  C   UNK     0      -1.867  -7.690  -1.047  0.00  0.00     0.045 C 
BRANCH  32  35
HETATM   35  O   UNK     0      -1.881  -5.903  -2.652  0.00  0.00    -0.391 OA
HETATM   36  H   UNK     0      -2.236  -5.192  -2.092  0.00  0.00     0.210 HD
ENDBRANCH  32  35
ENDBRANCH  31  32
ENDBRANCH  30  31
ENDBRANCH  27  30
ENDBRANCH  23  27
ENDBRANCH   5  23
BRANCH  10  37
HETATM   37  O   UNK     0       2.362  -0.952  -1.301  0.00  0.00    -0.395 OA
HETATM   38  H   UNK     0       1.608  -1.201  -1.863  0.00  0.00     0.210 HD
ENDBRANCH  10  37
BRANCH  19  39
HETATM   39  O   UNK     0      -1.083   3.990  -2.471  0.00  0.00    -0.393 OA
HETATM   40  H   UNK     0      -0.882   3.916  -3.419  0.00  0.00     0.210 HD
ENDBRANCH  19  39
BRANCH  20  41
HETATM   41  O   UNK     0       1.735   4.412  -2.057  0.00  0.00    -0.393 OA
HETATM   42  H   UNK     0       2.350   4.333  -1.309  0.00  0.00     0.210 HD
ENDBRANCH  20  41
ENDBRANCH   1   3
TORSDOF 12
ENDMDL
MODEL 6
REMARK VINA RESULT:      -5.3      1.853      3.676
REMARK  12 active torsions:
REMARK  status: ('A' for Active; 'I' for Inactive)
REMARK    1  A    between atoms: O_1  and  C_10 
REMARK    2  A    between atoms: O_2  and  C_17 
REMARK    3  A    between atoms: O_3  and  C_20 
REMARK    4  A    between atoms: O_4  and  C_27 
REMARK    5  A    between atoms: O_6  and  C_29 
REMARK    6  A    between atoms: O_7  and  C_28 
REMARK    7  A    between atoms: O_8  and  C_33 
REMARK    8  A    between atoms: C_11  and  C_20 
REMARK    9  A    between atoms: C_20  and  C_28 
REMARK   10  A    between atoms: C_28  and  C_31 
REMARK   11  A    between atoms: C_31  and  C_32 
REMARK   12  A    between atoms: C_32  and  C_33 
ROOT
HETATM    1  O   UNK     0       2.464  -2.338   1.066  0.00  0.00    -0.384 OA
HETATM    2  H   UNK     0       2.231  -3.186   1.471  0.00  0.00     0.211 HD
ENDROOT
BRANCH   1   3
HETATM    3  C   UNK     0       1.291  -1.522   0.847  0.00  0.00     0.090 C 
HETATM    4  C   UNK     0       0.029  -2.291   1.316  0.00  0.00    -0.000 C 
HETATM    5  C   UNK     0       0.033  -3.485   0.327  0.00  0.00     0.034 C 
HETATM    6  C   UNK     0       0.220  -2.695   2.784  0.00  0.00     0.045 C 
HETATM    7  C   UNK     0      -1.277  -1.461   1.172  0.00  0.00     0.019 C 
HETATM    8  C   UNK     0       0.458  -2.848  -1.017  0.00  0.00     0.012 C 
HETATM    9  C   UNK     0       1.098  -1.485  -0.676  0.00  0.00     0.044 C 
HETATM   10  C   UNK     0       0.466  -1.464   3.681  0.00  0.00     0.128 C 
HETATM   11  C   UNK     0       1.621  -0.517   3.187  0.00  0.00     0.055 C 
HETATM   12  C   UNK     0       1.774   0.815   4.048  0.00  0.00    -0.021 C 
HETATM   13  C   UNK     0       1.502  -0.267   1.669  0.00  0.00    -0.034 C 
HETATM   14  C   UNK     0       2.603   1.872   3.262  0.00  0.00     0.071 C 
HETATM   15  C   UNK     0       2.461   0.528   5.434  0.00  0.00     0.045 C 
HETATM   16  C   UNK     0       0.381   1.438   4.344  0.00  0.00     0.017 C 
HETATM   17  C   UNK     0       4.100   1.551   3.108  0.00  0.00     0.047 C 
HETATM   18  C   UNK     0       2.014   2.115   1.888  0.00  0.00     0.154 C 
HETATM   19  C   UNK     0       4.676   0.736   4.262  0.00  0.00     0.147 C 
HETATM   20  C   UNK     0       3.920   0.978   5.561  0.00  0.00     0.147 C 
HETATM   21  O   UNK     0       1.937   3.240   1.401  0.00  0.00    -0.293 OA
HETATM   22  C   UNK     0       1.619   0.937   1.091  0.00  0.00     0.057 C 
BRANCH   5  23
HETATM   23  C   UNK     0      -1.258  -4.286   0.219  0.00  0.00     0.084 C 
HETATM   24  C   UNK     0      -2.305  -3.720   1.193  0.00  0.00     0.049 C 
BRANCH  23  25
HETATM   25  O   UNK     0      -1.778  -4.130  -1.107  0.00  0.00    -0.387 OA
HETATM   26  H   UNK     0      -1.643  -3.212  -1.393  0.00  0.00     0.210 HD
ENDBRANCH  23  25
BRANCH  23  27
HETATM   27  C   UNK     0      -1.032  -5.801   0.477  0.00  0.00     0.152 C 
BRANCH  27  28
HETATM   28  O   UNK     0      -0.033  -5.972   1.487  0.00  0.00    -0.393 OA
HETATM   29  H   UNK     0       0.410  -6.820   1.317  0.00  0.00     0.210 HD
ENDBRANCH  27  28
BRANCH  27  30
HETATM   30  C   UNK     0      -0.603  -6.597  -0.770  0.00  0.00     0.037 C 
BRANCH  30  31
HETATM   31  C   UNK     0      -1.660  -7.637  -1.183  0.00  0.00     0.040 C 
BRANCH  31  32
HETATM   32  C   UNK     0      -1.664  -7.985  -2.687  0.00  0.00     0.051 C 
HETATM   33  C   UNK     0      -0.325  -7.577  -3.311  0.00  0.00     0.045 C 
HETATM   34  C   UNK     0      -1.928  -9.471  -2.945  0.00  0.00     0.045 C 
BRANCH  32  35
HETATM   35  O   UNK     0      -2.694  -7.226  -3.322  0.00  0.00    -0.391 OA
HETATM   36  H   UNK     0      -2.425  -7.042  -4.237  0.00  0.00     0.210 HD
ENDBRANCH  32  35
ENDBRANCH  31  32
ENDBRANCH  30  31
ENDBRANCH  27  30
ENDBRANCH  23  27
ENDBRANCH   5  23
BRANCH  10  37
HETATM   37  O   UNK     0       0.741  -1.949   4.993  0.00  0.00    -0.395 OA
HETATM   38  H   UNK     0       1.238  -1.259   5.465  0.00  0.00     0.210 HD
ENDBRANCH  10  37
BRANCH  19  39
HETATM   39  O   UNK     0       6.052   1.071   4.417  0.00  0.00    -0.393 OA
HETATM   40  H   UNK     0       6.218   1.904   3.945  0.00  0.00     0.210 HD
ENDBRANCH  19  39
BRANCH  20  41
HETATM   41  O   UNK     0       3.952   2.364   5.904  0.00  0.00    -0.393 OA
HETATM   42  H   UNK     0       4.750   2.748   5.504  0.00  0.00     0.210 HD
ENDBRANCH  20  41
ENDBRANCH   1   3
TORSDOF 12
ENDMDL
MODEL 7
REMARK VINA RESULT:      -5.3      4.216      6.375
REMARK  12 active torsions:
REMARK  status: ('A' for Active; 'I' for Inactive)
REMARK    1  A    between atoms: O_1  and  C_10 
REMARK    2  A    between atoms: O_2  and  C_17 
REMARK    3  A    between atoms: O_3  and  C_20 
REMARK    4  A    between atoms: O_4  and  C_27 
REMARK    5  A    between atoms: O_6  and  C_29 
REMARK    6  A    between atoms: O_7  and  C_28 
REMARK    7  A    between atoms: O_8  and  C_33 
REMARK    8  A    between atoms: C_11  and  C_20 
REMARK    9  A    between atoms: C_20  and  C_28 
REMARK   10  A    between atoms: C_28  and  C_31 
REMARK   11  A    between atoms: C_31  and  C_32 
REMARK   12  A    between atoms: C_32  and  C_33 
ROOT
HETATM    1  O   UNK     0       3.009  -3.230   1.735  0.00  0.00    -0.384 OA
HETATM    2  H   UNK     0       3.470  -4.036   2.008  0.00  0.00     0.211 HD
ENDROOT
BRANCH   1   3
HETATM    3  C   UNK     0       2.303  -2.630   2.844  0.00  0.00     0.090 C 
HETATM    4  C   UNK     0       0.816  -3.066   2.811  0.00  0.00    -0.000 C 
HETATM    5  C   UNK     0       0.354  -2.418   1.479  0.00  0.00     0.034 C 
HETATM    6  C   UNK     0       0.756  -4.599   2.814  0.00  0.00     0.045 C 
HETATM    7  C   UNK     0      -0.007  -2.511   4.008  0.00  0.00     0.019 C 
HETATM    8  C   UNK     0       1.065  -1.045   1.472  0.00  0.00     0.012 C 
HETATM    9  C   UNK     0       2.208  -1.135   2.507  0.00  0.00     0.044 C 
HETATM   10  C   UNK     0       1.463  -5.189   4.052  0.00  0.00     0.128 C 
HETATM   11  C   UNK     0       2.931  -4.668   4.276  0.00  0.00     0.055 C 
HETATM   12  C   UNK     0       3.598  -5.183   5.627  0.00  0.00    -0.021 C 
HETATM   13  C   UNK     0       2.993  -3.136   4.095  0.00  0.00    -0.034 C 
HETATM   14  C   UNK     0       4.830  -4.303   5.990  0.00  0.00     0.071 C 
HETATM   15  C   UNK     0       4.040  -6.689   5.513  0.00  0.00     0.045 C 
HETATM   16  C   UNK     0       2.591  -5.087   6.807  0.00  0.00     0.017 C 
HETATM   17  C   UNK     0       6.054  -4.476   5.073  0.00  0.00     0.047 C 
HETATM   18  C   UNK     0       4.457  -2.835   6.030  0.00  0.00     0.154 C 
HETATM   19  C   UNK     0       6.181  -5.873   4.475  0.00  0.00     0.147 C 
HETATM   20  C   UNK     0       5.546  -6.932   5.365  0.00  0.00     0.147 C 
HETATM   21  O   UNK     0       4.885  -2.077   6.898  0.00  0.00    -0.293 OA
HETATM   22  C   UNK     0       3.633  -2.304   4.928  0.00  0.00     0.057 C 
BRANCH   5  23
HETATM   23  C   UNK     0      -1.149  -2.307   1.261  0.00  0.00     0.084 C 
HETATM   24  C   UNK     0      -1.888  -2.559   2.585  0.00  0.00     0.049 C 
BRANCH  23  25
HETATM   25  O   UNK     0      -1.449  -0.967   0.850  0.00  0.00    -0.387 OA
HETATM   26  H   UNK     0      -0.644  -0.428   0.921  0.00  0.00     0.210 HD
ENDBRANCH  23  25
BRANCH  23  27
HETATM   27  C   UNK     0      -1.655  -3.277   0.158  0.00  0.00     0.152 C 
BRANCH  27  28
HETATM   28  O   UNK     0      -2.547  -4.236   0.735  0.00  0.00    -0.393 OA
HETATM   29  H   UNK     0      -3.135  -4.549   0.027  0.00  0.00     0.210 HD
ENDBRANCH  27  28
BRANCH  27  30
HETATM   30  C   UNK     0      -0.535  -4.038  -0.578  0.00  0.00     0.037 C 
BRANCH  30  31
HETATM   31  C   UNK     0      -1.084  -5.215  -1.404  0.00  0.00     0.040 C 
BRANCH  31  32
HETATM   32  C   UNK     0      -0.808  -6.607  -0.797  0.00  0.00     0.051 C 
HETATM   33  C   UNK     0      -0.355  -7.568  -1.902  0.00  0.00     0.045 C 
HETATM   34  C   UNK     0       0.242  -6.563   0.317  0.00  0.00     0.045 C 
BRANCH  32  35
HETATM   35  O   UNK     0      -2.027  -7.110  -0.249  0.00  0.00    -0.391 OA
HETATM   36  H   UNK     0      -2.577  -7.450  -0.975  0.00  0.00     0.210 HD
ENDBRANCH  32  35
ENDBRANCH  31  32
ENDBRANCH  30  31
ENDBRANCH  27  30
ENDBRANCH  23  27
ENDBRANCH   5  23
BRANCH  10  37
HETATM   37  O   UNK     0       1.452  -6.607   3.906  0.00  0.00    -0.395 OA
HETATM   38  H   UNK     0       1.323  -6.994   4.789  0.00  0.00     0.210 HD
ENDBRANCH  10  37
BRANCH  19  39
HETATM   39  O   UNK     0       7.561  -6.160   4.269  0.00  0.00    -0.393 OA
HETATM   40  H   UNK     0       7.871  -6.714   5.005  0.00  0.00     0.210 HD
ENDBRANCH  19  39
BRANCH  20  41
HETATM   41  O   UNK     0       6.148  -6.921   6.660  0.00  0.00    -0.393 OA
HETATM   42  H   UNK     0       6.117  -7.828   7.007  0.00  0.00     0.210 HD
ENDBRANCH  20  41
ENDBRANCH   1   3
TORSDOF 12
ENDMDL
MODEL 8
REMARK VINA RESULT:      -5.2      2.930      3.869
REMARK  12 active torsions:
REMARK  status: ('A' for Active; 'I' for Inactive)
REMARK    1  A    between atoms: O_1  and  C_10 
REMARK    2  A    between atoms: O_2  and  C_17 
REMARK    3  A    between atoms: O_3  and  C_20 
REMARK    4  A    between atoms: O_4  and  C_27 
REMARK    5  A    between atoms: O_6  and  C_29 
REMARK    6  A    between atoms: O_7  and  C_28 
REMARK    7  A    between atoms: O_8  and  C_33 
REMARK    8  A    between atoms: C_11  and  C_20 
REMARK    9  A    between atoms: C_20  and  C_28 
REMARK   10  A    between atoms: C_28  and  C_31 
REMARK   11  A    between atoms: C_31  and  C_32 
REMARK   12  A    between atoms: C_32  and  C_33 
ROOT
HETATM    1  O   UNK     0       1.668  -1.131   1.335  0.00  0.00    -0.384 OA
HETATM    2  H   UNK     0       2.238  -0.431   1.684  0.00  0.00     0.211 HD
ENDROOT
BRANCH   1   3
HETATM    3  C   UNK     0       0.615  -1.461   2.268  0.00  0.00     0.090 C 
HETATM    4  C   UNK     0       0.405  -2.997   2.293  0.00  0.00    -0.000 C 
HETATM    5  C   UNK     0      -0.079  -3.246   0.840  0.00  0.00     0.034 C 
HETATM    6  C   UNK     0       1.744  -3.668   2.628  0.00  0.00     0.045 C 
HETATM    7  C   UNK     0      -0.673  -3.448   3.318  0.00  0.00     0.019 C 
HETATM    8  C   UNK     0      -1.010  -2.045   0.552  0.00  0.00     0.012 C 
HETATM    9  C   UNK     0      -0.683  -0.969   1.611  0.00  0.00     0.044 C 
HETATM   10  C   UNK     0       2.297  -3.178   3.982  0.00  0.00     0.128 C 
HETATM   11  C   UNK     0       2.382  -1.614   4.126  0.00  0.00     0.055 C 
HETATM   12  C   UNK     0       2.829  -1.122   5.573  0.00  0.00    -0.021 C 
HETATM   13  C   UNK     0       1.084  -0.953   3.617  0.00  0.00    -0.034 C 
HETATM   14  C   UNK     0       2.470   0.380   5.768  0.00  0.00     0.071 C 
HETATM   15  C   UNK     0       4.372  -1.332   5.802  0.00  0.00     0.045 C 
HETATM   16  C   UNK     0       2.087  -1.927   6.677  0.00  0.00     0.017 C 
HETATM   17  C   UNK     0       3.315   1.368   4.943  0.00  0.00     0.047 C 
HETATM   18  C   UNK     0       1.006   0.632   5.478  0.00  0.00     0.154 C 
HETATM   19  C   UNK     0       4.734   0.883   4.667  0.00  0.00     0.147 C 
HETATM   20  C   UNK     0       5.231  -0.064   5.750  0.00  0.00     0.147 C 
HETATM   21  O   UNK     0       0.324   1.384   6.170  0.00  0.00    -0.293 OA
HETATM   22  C   UNK     0       0.429   0.021   4.265  0.00  0.00     0.057 C 
BRANCH   5  23
HETATM   23  C   UNK     0      -0.743  -4.588   0.564  0.00  0.00     0.084 C 
HETATM   24  C   UNK     0      -0.245  -5.634   1.575  0.00  0.00     0.049 C 
BRANCH  23  25
HETATM   25  O   UNK     0      -2.156  -4.443   0.757  0.00  0.00    -0.387 OA
HETATM   26  H   UNK     0      -2.331  -3.581   1.170  0.00  0.00     0.210 HD
ENDBRANCH  23  25
BRANCH  23  27
HETATM   27  C   UNK     0      -0.501  -5.074  -0.891  0.00  0.00     0.152 C 
BRANCH  27  28
HETATM   28  O   UNK     0      -1.627  -4.731  -1.705  0.00  0.00    -0.393 OA
HETATM   29  H   UNK     0      -1.747  -3.768  -1.644  0.00  0.00     0.210 HD
ENDBRANCH  27  28
BRANCH  27  30
HETATM   30  C   UNK     0      -0.254  -6.590  -1.019  0.00  0.00     0.037 C 
BRANCH  30  31
HETATM   31  C   UNK     0      -1.558  -7.367  -1.276  0.00  0.00     0.040 C 
BRANCH  31  32
HETATM   32  C   UNK     0      -1.707  -7.911  -2.713  0.00  0.00     0.051 C 
HETATM   33  C   UNK     0      -0.399  -7.694  -3.482  0.00  0.00     0.045 C 
HETATM   34  C   UNK     0      -2.089  -9.394  -2.742  0.00  0.00     0.045 C 
BRANCH  32  35
HETATM   35  O   UNK     0      -2.733  -7.167  -3.373  0.00  0.00    -0.391 OA
HETATM   36  H   UNK     0      -2.315  -6.503  -3.946  0.00  0.00     0.210 HD
ENDBRANCH  32  35
ENDBRANCH  31  32
ENDBRANCH  30  31
ENDBRANCH  27  30
ENDBRANCH  23  27
ENDBRANCH   5  23
BRANCH  10  37
HETATM   37  O   UNK     0       3.583  -3.768   4.149  0.00  0.00    -0.395 OA
HETATM   38  H   UNK     0       3.562  -4.648   3.735  0.00  0.00     0.210 HD
ENDBRANCH  10  37
BRANCH  19  39
HETATM   39  O   UNK     0       5.593   2.015   4.565  0.00  0.00    -0.393 OA
HETATM   40  H   UNK     0       5.121   2.789   4.918  0.00  0.00     0.210 HD
ENDBRANCH  19  39
BRANCH  20  41
HETATM   41  O   UNK     0       5.194   0.576   7.026  0.00  0.00    -0.393 OA
HETATM   42  H   UNK     0       4.486   1.241   7.001  0.00  0.00     0.210 HD
ENDBRANCH  20  41
ENDBRANCH   1   3
TORSDOF 12
ENDMDL
MODEL 9
REMARK VINA RESULT:      -5.1      3.212      4.774
REMARK  12 active torsions:
REMARK  status: ('A' for Active; 'I' for Inactive)
REMARK    1  A    between atoms: O_1  and  C_10 
REMARK    2  A    between atoms: O_2  and  C_17 
REMARK    3  A    between atoms: O_3  and  C_20 
REMARK    4  A    between atoms: O_4  and  C_27 
REMARK    5  A    between atoms: O_6  and  C_29 
REMARK    6  A    between atoms: O_7  and  C_28 
REMARK    7  A    between atoms: O_8  and  C_33 
REMARK    8  A    between atoms: C_11  and  C_20 
REMARK    9  A    between atoms: C_20  and  C_28 
REMARK   10  A    between atoms: C_28  and  C_31 
REMARK   11  A    between atoms: C_31  and  C_32 
REMARK   12  A    between atoms: C_32  and  C_33 
ROOT
HETATM    1  O   UNK     0      -2.618  -0.424   1.702  0.00  0.00    -0.384 OA
HETATM    2  H   UNK     0      -2.767  -0.828   0.835  0.00  0.00     0.211 HD
ENDROOT
BRANCH   1   3
HETATM    3  C   UNK     0      -2.158  -1.402   2.662  0.00  0.00     0.090 C 
HETATM    4  C   UNK     0      -0.821  -2.020   2.177  0.00  0.00    -0.000 C 
HETATM    5  C   UNK     0      -1.287  -2.732   0.879  0.00  0.00     0.034 C 
HETATM    6  C   UNK     0       0.184  -0.885   1.940  0.00  0.00     0.045 C 
HETATM    7  C   UNK     0      -0.223  -3.042   3.182  0.00  0.00     0.019 C 
HETATM    8  C   UNK     0      -2.662  -3.327   1.260  0.00  0.00     0.012 C 
HETATM    9  C   UNK     0      -3.126  -2.587   2.534  0.00  0.00     0.044 C 
HETATM   10  C   UNK     0       0.408  -0.053   3.219  0.00  0.00     0.128 C 
HETATM   11  C   UNK     0      -0.911   0.475   3.895  0.00  0.00     0.055 C 
HETATM   12  C   UNK     0      -0.672   1.217   5.283  0.00  0.00    -0.021 C 
HETATM   13  C   UNK     0      -1.969  -0.647   3.962  0.00  0.00    -0.034 C 
HETATM   14  C   UNK     0      -2.004   1.311   6.082  0.00  0.00     0.071 C 
HETATM   15  C   UNK     0      -0.080   2.660   5.071  0.00  0.00     0.045 C 
HETATM   16  C   UNK     0       0.343   0.428   6.158  0.00  0.00     0.017 C 
HETATM   17  C   UNK     0      -3.049   2.283   5.504  0.00  0.00     0.047 C 
HETATM   18  C   UNK     0      -2.644  -0.053   6.237  0.00  0.00     0.154 C 
HETATM   19  C   UNK     0      -2.441   3.469   4.762  0.00  0.00     0.147 C 
HETATM   20  C   UNK     0      -1.056   3.820   5.290  0.00  0.00     0.147 C 
HETATM   21  O   UNK     0      -3.172  -0.410   7.288  0.00  0.00    -0.293 OA
HETATM   22  C   UNK     0      -2.708  -0.923   5.046  0.00  0.00     0.057 C 
BRANCH   5  23
HETATM   23  C   UNK     0      -0.337  -3.767   0.293  0.00  0.00     0.084 C 
HETATM   24  C   UNK     0       0.289  -3.225  -1.003  0.00  0.00     0.049 C 
BRANCH  23  25
HETATM   25  O   UNK     0       0.730  -3.983   1.226  0.00  0.00    -0.387 OA
HETATM   26  H   UNK     0       1.409  -3.303   1.091  0.00  0.00     0.210 HD
ENDBRANCH  23  25
BRANCH  23  27
HETATM   27  C   UNK     0      -1.038  -5.128   0.035  0.00  0.00     0.152 C 
BRANCH  27  28
HETATM   28  O   UNK     0      -0.328  -6.170   0.713  0.00  0.00    -0.393 OA
HETATM   29  H   UNK     0       0.567  -5.838   0.900  0.00  0.00     0.210 HD
ENDBRANCH  27  28
BRANCH  27  30
HETATM   30  C   UNK     0      -1.151  -5.510  -1.454  0.00  0.00     0.037 C 
BRANCH  30  31
HETATM   31  C   UNK     0      -0.713  -6.963  -1.713  0.00  0.00     0.040 C 
BRANCH  31  32
HETATM   32  C   UNK     0      -1.188  -7.545  -3.061  0.00  0.00     0.051 C 
HETATM   33  C   UNK     0      -1.650  -8.992  -2.861  0.00  0.00     0.045 C 
HETATM   34  C   UNK     0      -2.314  -6.721  -3.691  0.00  0.00     0.045 C 
BRANCH  32  35
HETATM   35  O   UNK     0      -0.079  -7.558  -3.962  0.00  0.00    -0.391 OA
HETATM   36  H   UNK     0       0.324  -6.674  -3.971  0.00  0.00     0.210 HD
ENDBRANCH  32  35
ENDBRANCH  31  32
ENDBRANCH  30  31
ENDBRANCH  27  30
ENDBRANCH  23  27
ENDBRANCH   5  23
BRANCH  10  37
HETATM   37  O   UNK     0       1.262   1.033   2.871  0.00  0.00    -0.395 OA
HETATM   38  H   UNK     0       0.764   1.624   2.281  0.00  0.00     0.210 HD
ENDBRANCH  10  37
BRANCH  19  39
HETATM   39  O   UNK     0      -3.318   4.585   4.887  0.00  0.00    -0.393 OA
HETATM   40  H   UNK     0      -3.974   4.382   5.574  0.00  0.00     0.210 HD
ENDBRANCH  19  39
BRANCH  20  41
HETATM   41  O   UNK     0      -1.117   4.120   6.685  0.00  0.00    -0.393 OA
HETATM   42  H   UNK     0      -1.745   4.852   6.801  0.00  0.00     0.210 HD
ENDBRANCH  20  41
ENDBRANCH   1   3
TORSDOF 12
ENDMDL
MODEL 10
REMARK VINA RESULT:      -5.1      4.118      6.276
REMARK  12 active torsions:
REMARK  status: ('A' for Active; 'I' for Inactive)
REMARK    1  A    between atoms: O_1  and  C_10 
REMARK    2  A    between atoms: O_2  and  C_17 
REMARK    3  A    between atoms: O_3  and  C_20 
REMARK    4  A    between atoms: O_4  and  C_27 
REMARK    5  A    between atoms: O_6  and  C_29 
REMARK    6  A    between atoms: O_7  and  C_28 
REMARK    7  A    between atoms: O_8  and  C_33 
REMARK    8  A    between atoms: C_11  and  C_20 
REMARK    9  A    between atoms: C_20  and  C_28 
REMARK   10  A    between atoms: C_28  and  C_31 
REMARK   11  A    between atoms: C_31  and  C_32 
REMARK   12  A    between atoms: C_32  and  C_33 
ROOT
HETATM    1  O   UNK     0       2.857  -2.598   1.229  0.00  0.00    -0.384 OA
HETATM    2  H   UNK     0       3.004  -3.505   0.925  0.00  0.00     0.211 HD
ENDROOT
BRANCH   1   3
HETATM    3  C   UNK     0       2.908  -2.515   2.672  0.00  0.00     0.090 C 
HETATM    4  C   UNK     0       1.625  -3.144   3.275  0.00  0.00    -0.000 C 
HETATM    5  C   UNK     0       0.544  -2.175   2.728  0.00  0.00     0.034 C 
HETATM    6  C   UNK     0       1.495  -4.582   2.755  0.00  0.00     0.045 C 
HETATM    7  C   UNK     0       1.623  -3.151   4.829  0.00  0.00     0.019 C 
HETATM    8  C   UNK     0       1.206  -0.782   2.843  0.00  0.00     0.012 C 
HETATM    9  C   UNK     0       2.723  -1.027   3.002  0.00  0.00     0.044 C 
HETATM   10  C   UNK     0       2.732  -5.428   3.120  0.00  0.00     0.128 C 
HETATM   11  C   UNK     0       4.108  -4.786   2.706  0.00  0.00     0.055 C 
HETATM   12  C   UNK     0       5.378  -5.606   3.206  0.00  0.00    -0.021 C 
HETATM   13  C   UNK     0       4.142  -3.291   3.086  0.00  0.00    -0.034 C 
HETATM   14  C   UNK     0       6.652  -4.712   3.153  0.00  0.00     0.071 C 
HETATM   15  C   UNK     0       5.605  -6.901   2.342  0.00  0.00     0.045 C 
HETATM   16  C   UNK     0       5.189  -6.063   4.680  0.00  0.00     0.017 C 
HETATM   17  C   UNK     0       7.162  -4.380   1.739  0.00  0.00     0.047 C 
HETATM   18  C   UNK     0       6.441  -3.418   3.910  0.00  0.00     0.154 C 
HETATM   19  C   UNK     0       6.866  -5.464   0.708  0.00  0.00     0.147 C 
HETATM   20  C   UNK     0       6.767  -6.843   1.345  0.00  0.00     0.147 C 
HETATM   21  O   UNK     0       7.315  -2.931   4.625  0.00  0.00    -0.293 OA
HETATM   22  C   UNK     0       5.177  -2.689   3.689  0.00  0.00     0.057 C 
BRANCH   5  23
HETATM   23  C   UNK     0      -0.824  -2.236   3.393  0.00  0.00     0.084 C 
HETATM   24  C   UNK     0      -0.906  -3.470   4.307  0.00  0.00     0.049 C 
BRANCH  23  25
HETATM   25  O   UNK     0      -0.976  -1.077   4.224  0.00  0.00    -0.387 OA
HETATM   26  H   UNK     0      -0.269  -0.445   4.014  0.00  0.00     0.210 HD
ENDBRANCH  23  25
BRANCH  23  27
HETATM   27  C   UNK     0      -1.981  -2.243   2.357  0.00  0.00     0.152 C 
BRANCH  27  28
HETATM   28  O   UNK     0      -2.891  -3.305   2.663  0.00  0.00    -0.393 OA
HETATM   29  H   UNK     0      -3.777  -3.019   2.380  0.00  0.00     0.210 HD
ENDBRANCH  27  28
BRANCH  27  30
HETATM   30  C   UNK     0      -1.521  -2.405   0.896  0.00  0.00     0.037 C 
BRANCH  30  31
HETATM   31  C   UNK     0      -1.830  -3.810   0.345  0.00  0.00     0.040 C 
BRANCH  31  32
HETATM   32  C   UNK     0      -0.928  -4.250  -0.827  0.00  0.00     0.051 C 
HETATM   33  C   UNK     0       0.182  -3.216  -1.038  0.00  0.00     0.045 C 
HETATM   34  C   UNK     0      -0.315  -5.636  -0.606  0.00  0.00     0.045 C 
BRANCH  32  35
HETATM   35  O   UNK     0      -1.722  -4.292  -2.015  0.00  0.00    -0.391 OA
HETATM   36  H   UNK     0      -1.875  -3.381  -2.318  0.00  0.00     0.210 HD
ENDBRANCH  32  35
ENDBRANCH  31  32
ENDBRANCH  30  31
ENDBRANCH  27  30
ENDBRANCH  23  27
ENDBRANCH   5  23
BRANCH  10  37
HETATM   37  O   UNK     0       2.568  -6.702   2.503  0.00  0.00    -0.395 OA
HETATM   38  H   UNK     0       1.615  -6.895   2.472  0.00  0.00     0.210 HD
ENDBRANCH  10  37
BRANCH  19  39
HETATM   39  O   UNK     0       7.890  -5.446  -0.282  0.00  0.00    -0.393 OA
HETATM   40  H   UNK     0       8.678  -5.026   0.101  0.00  0.00     0.210 HD
ENDBRANCH  19  39
BRANCH  20  41
HETATM   41  O   UNK     0       7.981  -7.164   2.027  0.00  0.00    -0.393 OA
HETATM   42  H   UNK     0       7.846  -8.011   2.484  0.00  0.00     0.210 HD
ENDBRANCH  20  41
ENDBRANCH   1   3
TORSDOF 12
ENDMDL
