MODEL 1
REMARK VINA RESULT:    -6.630      0.000      0.000
REMARK INTER + INTRA:          -7.852
REMARK INTER:                  -7.792
REMARK INTRA:                  -0.060
REMARK UNBOUND:                -0.060
REMARK  Name = 370
REMARK  5 active torsions:
REMARK  status: ('A' for Active; 'I' for Inactive)
REMARK    1  A    between atoms: O_1  and  C_7
REMARK    2  A    between atoms: O_2  and  C_8
REMARK    3  A    between atoms: O_3  and  C_9
REMARK    4  A    between atoms: O_4  and  C_12
REMARK    5  A    between atoms: C_6  and  C_12
REMARK                            x       y       z     vdW  Elec       q    Type
REMARK                         _______ _______ _______ _____ _____    ______ ____
ROOT
ATOM      1  C   UNL     1     118.406 151.283 142.689  0.00  0.00    +0.000 A 
ATOM      2  C   UNL     1     116.068 151.805 141.259  0.00  0.00    +0.000 A 
ATOM      3  C   UNL     1     116.000 151.484 142.615  0.00  0.00    +0.000 A 
ATOM      4  C   UNL     1     117.306 151.866 140.618  0.00  0.00    +0.000 A 
ATOM      5  C   UNL     1     117.169 151.222 143.328  0.00  0.00    +0.000 A 
ATOM      6  C   UNL     1     118.474 151.604 141.332  0.00  0.00    +0.000 A 
ENDROOT
BRANCH   2   7
ATOM      7  O   UNL     1     114.925 152.060 140.560  0.00  0.00    +0.000 OA
ATOM      8  H   UNL     1     114.232 151.454 140.874  0.00  0.00    +0.000 HD
ENDBRANCH   2   7
BRANCH   3   9
ATOM      9  O   UNL     1     114.797 151.423 143.251  0.00  0.00    +0.000 OA
ATOM     10  H   UNL     1     114.928 151.616 144.196  0.00  0.00    +0.000 HD
ENDBRANCH   3   9
BRANCH   4  11
ATOM     11  O   UNL     1     117.385 152.177 139.293  0.00  0.00    +0.000 OA
ATOM     12  H   UNL     1     118.314 152.094 139.016  0.00  0.00    +0.000 HD
ENDBRANCH   4  11
BRANCH   1  14
ATOM     13  O   UNL     1     119.676 150.645 144.613  0.00  0.00    +0.000 OA
ATOM     14  C   UNL     1     119.625 151.009 143.433  0.00  0.00    +0.000 C 
BRANCH  14  15
ATOM     15  O   UNL     1     120.745 151.196 142.684  0.00  0.00    +0.000 OA
ATOM     16  H   UNL     1     120.783 150.579 141.922  0.00  0.00    +0.000 HD
ENDBRANCH  14  15
ENDBRANCH   1  14
TORSDOF 5
ENDMDL
MODEL 2
REMARK VINA RESULT:    -6.629     16.534     17.393
REMARK INTER + INTRA:          -7.852
REMARK INTER:                  -7.792
REMARK INTRA:                  -0.060
REMARK UNBOUND:                -0.060
REMARK  Name = 370
REMARK  5 active torsions:
REMARK  status: ('A' for Active; 'I' for Inactive)
REMARK    1  A    between atoms: O_1  and  C_7
REMARK    2  A    between atoms: O_2  and  C_8
REMARK    3  A    between atoms: O_3  and  C_9
REMARK    4  A    between atoms: O_4  and  C_12
REMARK    5  A    between atoms: C_6  and  C_12
REMARK                            x       y       z     vdW  Elec       q    Type
REMARK                         _______ _______ _______ _____ _____    ______ ____
ROOT
ATOM      1  C   UNL     1     126.035 154.733 127.934  0.00  0.00    +0.000 A 
ATOM      2  C   UNL     1     125.229 152.679 126.225  0.00  0.00    +0.000 A 
ATOM      3  C   UNL     1     126.519 152.679 126.757  0.00  0.00    +0.000 A 
ATOM      4  C   UNL     1     124.342 153.706 126.549  0.00  0.00    +0.000 A 
ATOM      5  C   UNL     1     126.921 153.706 127.610  0.00  0.00    +0.000 A 
ATOM      6  C   UNL     1     124.745 154.732 127.402  0.00  0.00    +0.000 A 
ENDROOT
BRANCH   2   7
ATOM      7  O   UNL     1     124.836 151.675 125.390  0.00  0.00    +0.000 OA
ATOM      8  H   UNL     1     123.878 151.756 125.243  0.00  0.00    +0.000 HD
ENDBRANCH   2   7
BRANCH   3   9
ATOM      9  O   UNL     1     127.394 151.681 126.449  0.00  0.00    +0.000 OA
ATOM     10  H   UNL     1     128.298 151.974 126.662  0.00  0.00    +0.000 HD
ENDBRANCH   3   9
BRANCH   4  11
ATOM     11  O   UNL     1     123.080 153.718 126.035  0.00  0.00    +0.000 OA
ATOM     12  H   UNL     1     122.922 154.590 125.634  0.00  0.00    +0.000 HD
ENDBRANCH   4  11
BRANCH   1  14
ATOM     13  O   UNL     1     125.710 156.653 129.322  0.00  0.00    +0.000 OA
ATOM     14  C   UNL     1     126.455 155.804 128.823  0.00  0.00    +0.000 C 
BRANCH  14  15
ATOM     15  O   UNL     1     127.794 155.784 129.064  0.00  0.00    +0.000 OA
ATOM     16  H   UNL     1     128.227 155.002 128.658  0.00  0.00    +0.000 HD
ENDBRANCH  14  15
ENDBRANCH   1  14
TORSDOF 5
ENDMDL
MODEL 3
REMARK VINA RESULT:    -6.626     16.524     17.309
REMARK INTER + INTRA:          -7.848
REMARK INTER:                  -7.789
REMARK INTRA:                  -0.060
REMARK UNBOUND:                -0.060
REMARK  Name = 370
REMARK  5 active torsions:
REMARK  status: ('A' for Active; 'I' for Inactive)
REMARK    1  A    between atoms: O_1  and  C_7
REMARK    2  A    between atoms: O_2  and  C_8
REMARK    3  A    between atoms: O_3  and  C_9
REMARK    4  A    between atoms: O_4  and  C_12
REMARK    5  A    between atoms: C_6  and  C_12
REMARK                            x       y       z     vdW  Elec       q    Type
REMARK                         _______ _______ _______ _____ _____    ______ ____
ROOT
ATOM      1  C   UNL     1     126.038 154.714 127.950  0.00  0.00    +0.000 A 
ATOM      2  C   UNL     1     125.216 152.649 126.262  0.00  0.00    +0.000 A 
ATOM      3  C   UNL     1     124.331 153.678 126.589  0.00  0.00    +0.000 A 
ATOM      4  C   UNL     1     126.512 152.654 126.779  0.00  0.00    +0.000 A 
ATOM      5  C   UNL     1     124.743 154.709 127.433  0.00  0.00    +0.000 A 
ATOM      6  C   UNL     1     126.923 153.685 127.622  0.00  0.00    +0.000 A 
ENDROOT
BRANCH   2   7
ATOM      7  O   UNL     1     124.814 151.640 125.438  0.00  0.00    +0.000 OA
ATOM      8  H   UNL     1     124.065 151.960 124.905  0.00  0.00    +0.000 HD
ENDBRANCH   2   7
BRANCH   3   9
ATOM      9  O   UNL     1     123.064 153.684 126.090  0.00  0.00    +0.000 OA
ATOM     10  H   UNL     1     122.743 152.768 126.027  0.00  0.00    +0.000 HD
ENDBRANCH   3   9
BRANCH   4  11
ATOM     11  O   UNL     1     127.385 151.654 126.469  0.00  0.00    +0.000 OA
ATOM     12  H   UNL     1     128.264 151.901 126.806  0.00  0.00    +0.000 HD
ENDBRANCH   4  11
BRANCH   1  14
ATOM     13  O   UNL     1     125.726 156.641 129.331  0.00  0.00    +0.000 OA
ATOM     14  C   UNL     1     126.466 155.789 128.830  0.00  0.00    +0.000 C 
BRANCH  14  15
ATOM     15  O   UNL     1     127.807 155.770 129.061  0.00  0.00    +0.000 OA
ATOM     16  H   UNL     1     128.228 156.629 128.843  0.00  0.00    +0.000 HD
ENDBRANCH  14  15
ENDBRANCH   1  14
TORSDOF 5
ENDMDL
MODEL 4
REMARK VINA RESULT:    -6.626      0.034      2.402
REMARK INTER + INTRA:          -7.848
REMARK INTER:                  -7.788
REMARK INTRA:                  -0.060
REMARK UNBOUND:                -0.060
REMARK  Name = 370
REMARK  5 active torsions:
REMARK  status: ('A' for Active; 'I' for Inactive)
REMARK    1  A    between atoms: O_1  and  C_7
REMARK    2  A    between atoms: O_2  and  C_8
REMARK    3  A    between atoms: O_3  and  C_9
REMARK    4  A    between atoms: O_4  and  C_12
REMARK    5  A    between atoms: C_6  and  C_12
REMARK                            x       y       z     vdW  Elec       q    Type
REMARK                         _______ _______ _______ _____ _____    ______ ____
ROOT
ATOM      1  C   UNL     1     118.398 151.292 142.696  0.00  0.00    +0.000 A 
ATOM      2  C   UNL     1     116.078 151.807 141.234  0.00  0.00    +0.000 A 
ATOM      3  C   UNL     1     117.325 151.872 140.611  0.00  0.00    +0.000 A 
ATOM      4  C   UNL     1     115.992 151.484 142.589  0.00  0.00    +0.000 A 
ATOM      5  C   UNL     1     118.484 151.615 141.342  0.00  0.00    +0.000 A 
ATOM      6  C   UNL     1     117.151 151.227 143.319  0.00  0.00    +0.000 A 
ENDROOT
BRANCH   2   7
ATOM      7  O   UNL     1     114.944 152.059 140.520  0.00  0.00    +0.000 OA
ATOM      8  H   UNL     1     114.202 152.147 141.143  0.00  0.00    +0.000 HD
ENDBRANCH   2   7
BRANCH   3   9
ATOM      9  O   UNL     1     117.421 152.186 139.289  0.00  0.00    +0.000 OA
ATOM     10  H   UNL     1     117.460 151.363 138.770  0.00  0.00    +0.000 HD
ENDBRANCH   3   9
BRANCH   4  11
ATOM     11  O   UNL     1     114.781 151.419 143.210  0.00  0.00    +0.000 OA
ATOM     12  H   UNL     1     114.129 151.079 142.573  0.00  0.00    +0.000 HD
ENDBRANCH   4  11
BRANCH   1  14
ATOM     13  O   UNL     1     119.644 150.662 144.638  0.00  0.00    +0.000 OA
ATOM     14  C   UNL     1     119.608 151.024 143.458  0.00  0.00    +0.000 C 
BRANCH  14  15
ATOM     15  O   UNL     1     120.738 151.218 142.725  0.00  0.00    +0.000 OA
ATOM     16  H   UNL     1     121.475 150.648 143.033  0.00  0.00    +0.000 HD
ENDBRANCH  14  15
ENDBRANCH   1  14
TORSDOF 5
ENDMDL
MODEL 5
REMARK VINA RESULT:    -6.562      1.816      2.726
REMARK INTER + INTRA:          -7.773
REMARK INTER:                  -7.726
REMARK INTRA:                  -0.047
REMARK UNBOUND:                -0.060
REMARK  Name = 370
REMARK  5 active torsions:
REMARK  status: ('A' for Active; 'I' for Inactive)
REMARK    1  A    between atoms: O_1  and  C_7
REMARK    2  A    between atoms: O_2  and  C_8
REMARK    3  A    between atoms: O_3  and  C_9
REMARK    4  A    between atoms: O_4  and  C_12
REMARK    5  A    between atoms: C_6  and  C_12
REMARK                            x       y       z     vdW  Elec       q    Type
REMARK                         _______ _______ _______ _____ _____    ______ ____
ROOT
ATOM      1  C   UNL     1     118.823 151.436 142.970  0.00  0.00    +0.000 A 
ATOM      2  C   UNL     1     116.584 153.101 142.881  0.00  0.00    +0.000 A 
ATOM      3  C   UNL     1     116.875 152.263 141.803  0.00  0.00    +0.000 A 
ATOM      4  C   UNL     1     117.414 153.106 144.003  0.00  0.00    +0.000 A 
ATOM      5  C   UNL     1     117.994 151.432 141.849  0.00  0.00    +0.000 A 
ATOM      6  C   UNL     1     118.532 152.274 144.047  0.00  0.00    +0.000 A 
ENDROOT
BRANCH   2   7
ATOM      7  O   UNL     1     115.491 153.914 142.837  0.00  0.00    +0.000 OA
ATOM      8  H   UNL     1     115.124 153.984 143.735  0.00  0.00    +0.000 HD
ENDBRANCH   2   7
BRANCH   3   9
ATOM      9  O   UNL     1     116.072 152.249 140.703  0.00  0.00    +0.000 OA
ATOM     10  H   UNL     1     116.233 153.055 140.182  0.00  0.00    +0.000 HD
ENDBRANCH   3   9
BRANCH   4  11
ATOM     11  O   UNL     1     117.142 153.921 145.061  0.00  0.00    +0.000 OA
ATOM     12  H   UNL     1     117.987 154.214 145.445  0.00  0.00    +0.000 HD
ENDBRANCH   4  11
BRANCH   1  14
ATOM     13  O   UNL     1     119.968 149.350 143.208  0.00  0.00    +0.000 OA
ATOM     14  C   UNL     1     119.990 150.570 143.016  0.00  0.00    +0.000 C 
BRANCH  14  15
ATOM     15  O   UNL     1     121.151 151.252 142.821  0.00  0.00    +0.000 OA
ATOM     16  H   UNL     1     121.792 150.737 142.284  0.00  0.00    +0.000 HD
ENDBRANCH  14  15
ENDBRANCH   1  14
TORSDOF 5
ENDMDL
MODEL 6
REMARK VINA RESULT:    -6.352      1.761      1.985
REMARK INTER + INTRA:          -7.526
REMARK INTER:                  -7.470
REMARK INTRA:                  -0.056
REMARK UNBOUND:                -0.060
REMARK  Name = 370
REMARK  5 active torsions:
REMARK  status: ('A' for Active; 'I' for Inactive)
REMARK    1  A    between atoms: O_1  and  C_7
REMARK    2  A    between atoms: O_2  and  C_8
REMARK    3  A    between atoms: O_3  and  C_9
REMARK    4  A    between atoms: O_4  and  C_12
REMARK    5  A    between atoms: C_6  and  C_12
REMARK                            x       y       z     vdW  Elec       q    Type
REMARK                         _______ _______ _______ _____ _____    ______ ____
ROOT
ATOM      1  C   UNL     1     119.032 151.512 143.001  0.00  0.00    +0.000 A 
ATOM      2  C   UNL     1     116.621 152.899 142.780  0.00  0.00    +0.000 A 
ATOM      3  C   UNL     1     117.415 153.055 143.918  0.00  0.00    +0.000 A 
ATOM      4  C   UNL     1     117.034 152.050 141.753  0.00  0.00    +0.000 A 
ATOM      5  C   UNL     1     118.619 152.361 144.027  0.00  0.00    +0.000 A 
ATOM      6  C   UNL     1     118.239 151.357 141.864  0.00  0.00    +0.000 A 
ENDROOT
BRANCH   2   7
ATOM      7  O   UNL     1     115.443 153.577 142.673  0.00  0.00    +0.000 OA
ATOM      8  H   UNL     1     115.323 154.113 143.476  0.00  0.00    +0.000 HD
ENDBRANCH   2   7
BRANCH   3   9
ATOM      9  O   UNL     1     117.023 153.882 144.926  0.00  0.00    +0.000 OA
ATOM     10  H   UNL     1     116.515 153.368 145.579  0.00  0.00    +0.000 HD
ENDBRANCH   3   9
BRANCH   4  11
ATOM     11  O   UNL     1     116.268 151.888 140.638  0.00  0.00    +0.000 OA
ATOM     12  H   UNL     1     116.856 151.687 139.890  0.00  0.00    +0.000 HD
ENDBRANCH   4  11
BRANCH   1  14
ATOM     13  O   UNL     1     121.287 151.180 143.728  0.00  0.00    +0.000 OA
ATOM     14  C   UNL     1     120.288 150.788 143.116  0.00  0.00    +0.000 C 
BRANCH  14  15
ATOM     15  O   UNL     1     120.262 149.593 142.464  0.00  0.00    +0.000 OA
ATOM     16  H   UNL     1     119.422 149.464 141.974  0.00  0.00    +0.000 HD
ENDBRANCH  14  15
ENDBRANCH   1  14
TORSDOF 5
ENDMDL
MODEL 7
REMARK VINA RESULT:    -6.316     41.357     43.114
REMARK INTER + INTRA:          -7.483
REMARK INTER:                  -7.435
REMARK INTRA:                  -0.049
REMARK UNBOUND:                -0.060
REMARK  Name = 370
REMARK  5 active torsions:
REMARK  status: ('A' for Active; 'I' for Inactive)
REMARK    1  A    between atoms: O_1  and  C_7
REMARK    2  A    between atoms: O_2  and  C_8
REMARK    3  A    between atoms: O_3  and  C_9
REMARK    4  A    between atoms: O_4  and  C_12
REMARK    5  A    between atoms: C_6  and  C_12
REMARK                            x       y       z     vdW  Elec       q    Type
REMARK                         _______ _______ _______ _____ _____    ______ ____
ROOT
ATOM      1  C   UNL     1     149.721 127.303 125.814  0.00  0.00    +0.000 A 
ATOM      2  C   UNL     1     148.543 126.360 128.162  0.00  0.00    +0.000 A 
ATOM      3  C   UNL     1     148.019 127.484 127.519  0.00  0.00    +0.000 A 
ATOM      4  C   UNL     1     149.655 125.708 127.629  0.00  0.00    +0.000 A 
ATOM      5  C   UNL     1     148.609 127.954 126.347  0.00  0.00    +0.000 A 
ATOM      6  C   UNL     1     150.244 126.179 126.456  0.00  0.00    +0.000 A 
ENDROOT
BRANCH   2   7
ATOM      7  O   UNL     1     147.967 125.901 129.309  0.00  0.00    +0.000 OA
ATOM      8  H   UNL     1     147.103 126.336 129.414  0.00  0.00    +0.000 HD
ENDBRANCH   2   7
BRANCH   3   9
ATOM      9  O   UNL     1     146.933 128.128 128.030  0.00  0.00    +0.000 OA
ATOM     10  H   UNL     1     146.863 127.929 128.980  0.00  0.00    +0.000 HD
ENDBRANCH   3   9
BRANCH   4  11
ATOM     11  O   UNL     1     150.177 124.612 128.247  0.00  0.00    +0.000 OA
ATOM     12  H   UNL     1     149.789 124.549 129.137  0.00  0.00    +0.000 HD
ENDBRANCH   4  11
BRANCH   1  14
ATOM     13  O   UNL     1     151.478 128.256 124.501  0.00  0.00    +0.000 OA
ATOM     14  C   UNL     1     150.336 127.794 124.592  0.00  0.00    +0.000 C 
BRANCH  14  15
ATOM     15  O   UNL     1     149.508 127.695 123.516  0.00  0.00    +0.000 OA
ATOM     16  H   UNL     1     149.509 128.515 122.977  0.00  0.00    +0.000 HD
ENDBRANCH  14  15
ENDBRANCH   1  14
TORSDOF 5
ENDMDL
MODEL 8
REMARK VINA RESULT:    -6.303     41.331     43.109
REMARK INTER + INTRA:          -7.469
REMARK INTER:                  -7.418
REMARK INTRA:                  -0.051
REMARK UNBOUND:                -0.060
REMARK  Name = 370
REMARK  5 active torsions:
REMARK  status: ('A' for Active; 'I' for Inactive)
REMARK    1  A    between atoms: O_1  and  C_7
REMARK    2  A    between atoms: O_2  and  C_8
REMARK    3  A    between atoms: O_3  and  C_9
REMARK    4  A    between atoms: O_4  and  C_12
REMARK    5  A    between atoms: C_6  and  C_12
REMARK                            x       y       z     vdW  Elec       q    Type
REMARK                         _______ _______ _______ _____ _____    ______ ____
ROOT
ATOM      1  C   UNL     1     149.690 127.290 125.928  0.00  0.00    +0.000 A 
ATOM      2  C   UNL     1     148.563 126.253 128.261  0.00  0.00    +0.000 A 
ATOM      3  C   UNL     1     149.712 125.672 127.722  0.00  0.00    +0.000 A 
ATOM      4  C   UNL     1     147.978 127.353 127.632  0.00  0.00    +0.000 A 
ATOM      5  C   UNL     1     150.274 126.191 126.557  0.00  0.00    +0.000 A 
ATOM      6  C   UNL     1     148.541 127.871 126.466  0.00  0.00    +0.000 A 
ENDROOT
BRANCH   2   7
ATOM      7  O   UNL     1     148.012 125.746 129.400  0.00  0.00    +0.000 OA
ATOM      8  H   UNL     1     147.970 126.457 130.063  0.00  0.00    +0.000 HD
ENDBRANCH   2   7
BRANCH   3   9
ATOM      9  O   UNL     1     150.292 124.599 128.328  0.00  0.00    +0.000 OA
ATOM     10  H   UNL     1     150.795 124.905 129.103  0.00  0.00    +0.000 HD
ENDBRANCH   3   9
BRANCH   4  11
ATOM     11  O   UNL     1     146.855 127.929 128.147  0.00  0.00    +0.000 OA
ATOM     12  H   UNL     1     146.133 127.277 128.108  0.00  0.00    +0.000 HD
ENDBRANCH   4  11
BRANCH   1  14
ATOM     13  O   UNL     1     151.447 128.203 124.586  0.00  0.00    +0.000 OA
ATOM     14  C   UNL     1     150.277 127.830 124.711  0.00  0.00    +0.000 C 
BRANCH  14  15
ATOM     15  O   UNL     1     149.384 127.888 123.685  0.00  0.00    +0.000 OA
ATOM     16  H   UNL     1     148.458 127.814 124.002  0.00  0.00    +0.000 HD
ENDBRANCH  14  15
ENDBRANCH   1  14
TORSDOF 5
ENDMDL
MODEL 9
REMARK VINA RESULT:    -6.171      1.537      2.957
REMARK INTER + INTRA:          -7.313
REMARK INTER:                  -7.266
REMARK INTRA:                  -0.047
REMARK UNBOUND:                -0.060
REMARK  Name = 370
REMARK  5 active torsions:
REMARK  status: ('A' for Active; 'I' for Inactive)
REMARK    1  A    between atoms: O_1  and  C_7
REMARK    2  A    between atoms: O_2  and  C_8
REMARK    3  A    between atoms: O_3  and  C_9
REMARK    4  A    between atoms: O_4  and  C_12
REMARK    5  A    between atoms: C_6  and  C_12
REMARK                            x       y       z     vdW  Elec       q    Type
REMARK                         _______ _______ _______ _____ _____    ______ ____
ROOT
ATOM      1  C   UNL     1     116.497 150.954 143.647  0.00  0.00    +0.000 A 
ATOM      2  C   UNL     1     117.171 151.748 141.058  0.00  0.00    +0.000 A 
ATOM      3  C   UNL     1     115.836 151.756 141.466  0.00  0.00    +0.000 A 
ATOM      4  C   UNL     1     118.168 151.343 141.946  0.00  0.00    +0.000 A 
ATOM      5  C   UNL     1     115.500 151.359 142.759  0.00  0.00    +0.000 A 
ATOM      6  C   UNL     1     117.831 150.946 143.239  0.00  0.00    +0.000 A 
ENDROOT
BRANCH   2   7
ATOM      7  O   UNL     1     117.499 152.136 139.793  0.00  0.00    +0.000 OA
ATOM      8  H   UNL     1     118.447 151.961 139.655  0.00  0.00    +0.000 HD
ENDBRANCH   2   7
BRANCH   3   9
ATOM      9  O   UNL     1     114.854 152.151 140.609  0.00  0.00    +0.000 OA
ATOM     10  H   UNL     1     114.721 153.111 140.698  0.00  0.00    +0.000 HD
ENDBRANCH   3   9
BRANCH   4  11
ATOM     11  O   UNL     1     119.475 151.329 141.559  0.00  0.00    +0.000 OA
ATOM     12  H   UNL     1     120.027 151.475 142.346  0.00  0.00    +0.000 HD
ENDBRANCH   4  11
BRANCH   1  14
ATOM     13  O   UNL     1     115.675 149.440 145.306  0.00  0.00    +0.000 OA
ATOM     14  C   UNL     1     116.145 150.539 144.996  0.00  0.00    +0.000 C 
BRANCH  14  15
ATOM     15  O   UNL     1     116.392 151.508 145.919  0.00  0.00    +0.000 OA
ATOM     16  H   UNL     1     116.558 151.130 146.810  0.00  0.00    +0.000 HD
ENDBRANCH  14  15
ENDBRANCH   1  14
TORSDOF 5
ENDMDL
MODEL 10
REMARK VINA RESULT:    -6.146      1.583      3.243
REMARK INTER + INTRA:          -7.284
REMARK INTER:                  -7.237
REMARK INTRA:                  -0.046
REMARK UNBOUND:                -0.060
REMARK  Name = 370
REMARK  5 active torsions:
REMARK  status: ('A' for Active; 'I' for Inactive)
REMARK    1  A    between atoms: O_1  and  C_7
REMARK    2  A    between atoms: O_2  and  C_8
REMARK    3  A    between atoms: O_3  and  C_9
REMARK    4  A    between atoms: O_4  and  C_12
REMARK    5  A    between atoms: C_6  and  C_12
REMARK                            x       y       z     vdW  Elec       q    Type
REMARK                         _______ _______ _______ _____ _____    ______ ____
ROOT
ATOM      1  C   UNL     1     116.601 150.937 143.724  0.00  0.00    +0.000 A 
ATOM      2  C   UNL     1     117.194 151.707 141.108  0.00  0.00    +0.000 A 
ATOM      3  C   UNL     1     118.222 151.345 141.979  0.00  0.00    +0.000 A 
ATOM      4  C   UNL     1     115.870 151.684 141.545  0.00  0.00    +0.000 A 
ATOM      5  C   UNL     1     117.925 150.961 143.286  0.00  0.00    +0.000 A 
ATOM      6  C   UNL     1     115.573 151.300 142.853  0.00  0.00    +0.000 A 
ENDROOT
BRANCH   2   7
ATOM      7  O   UNL     1     117.484 152.084 139.830  0.00  0.00    +0.000 OA
ATOM      8  H   UNL     1     117.991 152.914 139.863  0.00  0.00    +0.000 HD
ENDBRANCH   2   7
BRANCH   3   9
ATOM      9  O   UNL     1     119.519 151.362 141.564  0.00  0.00    +0.000 OA
ATOM     10  H   UNL     1     119.541 151.331 140.591  0.00  0.00    +0.000 HD
ENDBRANCH   3   9
BRANCH   4  11
ATOM     11  O   UNL     1     114.857 152.038 140.705  0.00  0.00    +0.000 OA
ATOM     12  H   UNL     1     115.163 151.916 139.790  0.00  0.00    +0.000 HD
ENDBRANCH   4  11
BRANCH   1  14
ATOM     13  O   UNL     1     116.003 149.392 145.449  0.00  0.00    +0.000 OA
ATOM     14  C   UNL     1     116.292 150.538 145.088  0.00  0.00    +0.000 C 
BRANCH  14  15
ATOM     15  O   UNL     1     116.352 151.579 145.961  0.00  0.00    +0.000 OA
ATOM     16  H   UNL     1     115.525 152.107 145.958  0.00  0.00    +0.000 HD
ENDBRANCH  14  15
ENDBRANCH   1  14
TORSDOF 5
ENDMDL
