MODEL 1
REMARK VINA RESULT:      -7.4      0.000      0.000
REMARK  Name = 2520
REMARK  21 active torsions:
REMARK  status: ('A' for Active; 'I' for Inactive)
REMARK    1  A    between atoms: O_1  and  C_19
REMARK    2  A    between atoms: O_1  and  C_28
REMARK    3  A    between atoms: O_2  and  C_23
REMARK    4  A    between atoms: O_2  and  C_31
REMARK    5  A    between atoms: O_3  and  C_27
REMARK    6  A    between atoms: O_3  and  C_32
REMARK    7  A    between atoms: O_4  and  C_30
REMARK    8  A    between atoms: O_4  and  C_33
REMARK    9  A    between atoms: N_5  and  C_12
REMARK   10  A    between atoms: N_5  and  C_18
REMARK   11  A    between atoms: N_5  and  C_20
REMARK   12  A    between atoms: C_7  and  C_8
REMARK   13  A    between atoms: C_7  and  C_9
REMARK   14  A    between atoms: C_7  and  C_11
REMARK   15  A    between atoms: C_7  and  C_15
REMARK   16  A    between atoms: C_8  and  C_13
REMARK   17  A    between atoms: C_8  and  C_14
REMARK   18  A    between atoms: C_9  and  C_10
REMARK   19  A    between atoms: C_10  and  C_12
REMARK   20  A    between atoms: C_18  and  C_22
REMARK   21  A    between atoms: C_22  and  C_24
REMARK                            x       y       z     vdW  Elec       q    Type
REMARK                         _______ _______ _______ _____ _____    ______ ____
ROOT
ATOM      1  C   UNL     1     161.343 156.809 134.313  0.00  0.00    +0.028 C 
ENDROOT
BRANCH   1   2
ATOM      2  C   UNL     1     162.649 156.809 133.439  0.00  0.00    +0.085 C 
BRANCH   2   7
ATOM      3  C   UNL     1     163.487 159.640 130.993  0.00  0.00    +0.162 A 
ATOM      4  C   UNL     1     163.292 160.769 131.791  0.00  0.00    +0.162 A 
ATOM      5  C   UNL     1     162.890 160.622 133.119  0.00  0.00    +0.050 A 
ATOM      6  C   UNL     1     162.684 159.349 133.649  0.00  0.00    +0.009 A 
ATOM      7  C   UNL     1     162.878 158.221 132.851  0.00  0.00    -0.024 A 
ATOM      8  C   UNL     1     163.280 158.367 131.522  0.00  0.00    +0.054 A 
BRANCH   3   9
ATOM      9  O   UNL     1     163.879 159.770 129.695  0.00  0.00    -0.491 OA
ATOM     10  C   UNL     1     165.270 159.624 129.421  0.00  0.00    +0.277 C 
ENDBRANCH   3   9
BRANCH   4  11
ATOM     11  O   UNL     1     163.490 162.018 131.285  0.00  0.00    -0.491 OA
ATOM     12  C   UNL     1     164.666 162.707 131.701  0.00  0.00    +0.277 C 
ENDBRANCH   4  11
ENDBRANCH   2   7
BRANCH   2  13
ATOM     13  C   UNL     1     162.501 155.771 132.246  0.00  0.00    +0.007 C 
ATOM     14  C   UNL     1     163.327 154.486 132.454  0.00  0.00    +0.009 C 
ATOM     15  C   UNL     1     161.050 155.369 131.933  0.00  0.00    +0.009 C 
ENDBRANCH   2  13
BRANCH   2  16
ATOM     16  C   UNL     1     163.762 156.355 134.322  0.00  0.00    +0.074 C 
ATOM     17  N   UNL     1     164.632 155.992 134.998  0.00  0.00    -0.196 NA
ENDBRANCH   2  16
ENDBRANCH   1   2
BRANCH   1  18
ATOM     18  C   UNL     1     161.389 155.901 135.560  0.00  0.00    +0.017 C 
BRANCH  18  19
ATOM     19  C   UNL     1     161.158 156.673 136.863  0.00  0.00    +0.084 C 
BRANCH  19  20
ATOM     20  N   UNL     1     160.167 157.729 136.703  0.00  0.00    -0.305 NA
ATOM     21  C   UNL     1     158.856 157.283 137.178  0.00  0.00    +0.104 C 
BRANCH  20  22
ATOM     22  C   UNL     1     160.581 158.938 137.418  0.00  0.00    +0.088 C 
BRANCH  22  23
ATOM     23  C   UNL     1     159.774 159.116 138.704  0.00  0.00    +0.050 C 
BRANCH  23  24
ATOM     24  C   UNL     1     160.662 159.481 139.869  0.00  0.00    -0.042 A 
ATOM     25  C   UNL     1     160.126 160.146 140.972  0.00  0.00    +0.007 A 
ATOM     26  C   UNL     1     160.947 160.484 142.048  0.00  0.00    +0.049 A 
ATOM     27  C   UNL     1     162.302 160.158 142.021  0.00  0.00    +0.161 A 
ATOM     28  C   UNL     1     162.838 159.493 140.917  0.00  0.00    +0.162 A 
ATOM     29  C   UNL     1     162.017 159.155 139.841  0.00  0.00    +0.053 A 
BRANCH  28  30
ATOM     30  O   UNL     1     164.161 159.169 140.880  0.00  0.00    -0.491 OA
ATOM     31  C   UNL     1     164.974 159.872 139.942  0.00  0.00    +0.277 C 
ENDBRANCH  28  30
BRANCH  27  32
ATOM     32  O   UNL     1     163.093 160.494 143.078  0.00  0.00    -0.491 OA
ATOM     33  C   UNL     1     162.474 161.196 144.153  0.00  0.00    +0.277 C 
ENDBRANCH  27  32
ENDBRANCH  23  24
ENDBRANCH  22  23
ENDBRANCH  20  22
ENDBRANCH  19  20
ENDBRANCH  18  19
ENDBRANCH   1  18
TORSDOF 14
ENDMDL
MODEL 2
REMARK VINA RESULT:      -7.3      3.732      5.884
REMARK  Name = 2520
REMARK  21 active torsions:
REMARK  status: ('A' for Active; 'I' for Inactive)
REMARK    1  A    between atoms: O_1  and  C_19
REMARK    2  A    between atoms: O_1  and  C_28
REMARK    3  A    between atoms: O_2  and  C_23
REMARK    4  A    between atoms: O_2  and  C_31
REMARK    5  A    between atoms: O_3  and  C_27
REMARK    6  A    between atoms: O_3  and  C_32
REMARK    7  A    between atoms: O_4  and  C_30
REMARK    8  A    between atoms: O_4  and  C_33
REMARK    9  A    between atoms: N_5  and  C_12
REMARK   10  A    between atoms: N_5  and  C_18
REMARK   11  A    between atoms: N_5  and  C_20
REMARK   12  A    between atoms: C_7  and  C_8
REMARK   13  A    between atoms: C_7  and  C_9
REMARK   14  A    between atoms: C_7  and  C_11
REMARK   15  A    between atoms: C_7  and  C_15
REMARK   16  A    between atoms: C_8  and  C_13
REMARK   17  A    between atoms: C_8  and  C_14
REMARK   18  A    between atoms: C_9  and  C_10
REMARK   19  A    between atoms: C_10  and  C_12
REMARK   20  A    between atoms: C_18  and  C_22
REMARK   21  A    between atoms: C_22  and  C_24
REMARK                            x       y       z     vdW  Elec       q    Type
REMARK                         _______ _______ _______ _____ _____    ______ ____
ROOT
ATOM      1  C   UNL     1     161.894 154.946 134.414  0.00  0.00    +0.028 C 
ENDROOT
BRANCH   1   2
ATOM      2  C   UNL     1     162.291 154.322 133.028  0.00  0.00    +0.085 C 
BRANCH   2   7
ATOM      3  C   UNL     1     163.354 150.647 132.764  0.00  0.00    +0.162 A 
ATOM      4  C   UNL     1     162.254 149.994 133.321  0.00  0.00    +0.162 A 
ATOM      5  C   UNL     1     161.166 150.735 133.784  0.00  0.00    +0.050 A 
ATOM      6  C   UNL     1     161.177 152.126 133.689  0.00  0.00    +0.009 A 
ATOM      7  C   UNL     1     162.278 152.778 133.133  0.00  0.00    -0.024 A 
ATOM      8  C   UNL     1     163.367 152.038 132.670  0.00  0.00    +0.054 A 
BRANCH   3   9
ATOM      9  O   UNL     1     164.423 149.936 132.309  0.00  0.00    -0.491 OA
ATOM     10  C   UNL     1     165.563 150.680 131.883  0.00  0.00    +0.277 C 
ENDBRANCH   3   9
BRANCH   4  11
ATOM     11  O   UNL     1     162.230 148.636 133.419  0.00  0.00    -0.491 OA
ATOM     12  C   UNL     1     162.355 148.079 134.725  0.00  0.00    +0.277 C 
ENDBRANCH   4  11
ENDBRANCH   2   7
BRANCH   2  13
ATOM     13  C   UNL     1     163.749 154.799 132.618  0.00  0.00    +0.007 C 
ATOM     14  C   UNL     1     163.790 155.525 131.259  0.00  0.00    +0.009 C 
ATOM     15  C   UNL     1     164.441 155.689 133.664  0.00  0.00    +0.009 C 
ENDBRANCH   2  13
BRANCH   2  16
ATOM     16  C   UNL     1     161.323 154.848 132.022  0.00  0.00    +0.074 C 
ATOM     17  N   UNL     1     160.583 155.261 131.230  0.00  0.00    -0.196 NA
ENDBRANCH   2  16
ENDBRANCH   1   2
BRANCH   1  18
ATOM     18  C   UNL     1     161.120 156.280 134.335  0.00  0.00    +0.017 C 
BRANCH  18  19
ATOM     19  C   UNL     1     161.536 157.270 135.428  0.00  0.00    +0.084 C 
BRANCH  19  20
ATOM     20  N   UNL     1     160.449 157.541 136.360  0.00  0.00    -0.305 NA
ATOM     21  C   UNL     1     160.407 156.525 137.413  0.00  0.00    +0.104 C 
BRANCH  20  22
ATOM     22  C   UNL     1     160.594 158.874 136.949  0.00  0.00    +0.088 C 
BRANCH  22  23
ATOM     23  C   UNL     1     159.705 159.028 138.182  0.00  0.00    +0.050 C 
BRANCH  23  24
ATOM     24  C   UNL     1     160.433 159.723 139.307  0.00  0.00    -0.042 A 
ATOM     25  C   UNL     1     159.847 159.807 140.570  0.00  0.00    +0.007 A 
ATOM     26  C   UNL     1     160.520 160.450 141.609  0.00  0.00    +0.049 A 
ATOM     27  C   UNL     1     161.776 161.010 141.385  0.00  0.00    +0.161 A 
ATOM     28  C   UNL     1     162.362 160.928 140.121  0.00  0.00    +0.162 A 
ATOM     29  C   UNL     1     161.690 160.283 139.082  0.00  0.00    +0.053 A 
BRANCH  28  30
ATOM     30  O   UNL     1     163.590 161.471 139.890  0.00  0.00    -0.491 OA
ATOM     31  C   UNL     1     163.726 162.298 138.735  0.00  0.00    +0.277 C 
ENDBRANCH  28  30
BRANCH  27  32
ATOM     32  O   UNL     1     162.423 161.636 142.407  0.00  0.00    -0.491 OA
ATOM     33  C   UNL     1     162.266 161.079 143.710  0.00  0.00    +0.277 C 
ENDBRANCH  27  32
ENDBRANCH  23  24
ENDBRANCH  22  23
ENDBRANCH  20  22
ENDBRANCH  19  20
ENDBRANCH  18  19
ENDBRANCH   1  18
TORSDOF 14
ENDMDL
MODEL 3
REMARK VINA RESULT:      -7.3     14.747     18.181
REMARK  Name = 2520
REMARK  21 active torsions:
REMARK  status: ('A' for Active; 'I' for Inactive)
REMARK    1  A    between atoms: O_1  and  C_19
REMARK    2  A    between atoms: O_1  and  C_28
REMARK    3  A    between atoms: O_2  and  C_23
REMARK    4  A    between atoms: O_2  and  C_31
REMARK    5  A    between atoms: O_3  and  C_27
REMARK    6  A    between atoms: O_3  and  C_32
REMARK    7  A    between atoms: O_4  and  C_30
REMARK    8  A    between atoms: O_4  and  C_33
REMARK    9  A    between atoms: N_5  and  C_12
REMARK   10  A    between atoms: N_5  and  C_18
REMARK   11  A    between atoms: N_5  and  C_20
REMARK   12  A    between atoms: C_7  and  C_8
REMARK   13  A    between atoms: C_7  and  C_9
REMARK   14  A    between atoms: C_7  and  C_11
REMARK   15  A    between atoms: C_7  and  C_15
REMARK   16  A    between atoms: C_8  and  C_13
REMARK   17  A    between atoms: C_8  and  C_14
REMARK   18  A    between atoms: C_9  and  C_10
REMARK   19  A    between atoms: C_10  and  C_12
REMARK   20  A    between atoms: C_18  and  C_22
REMARK   21  A    between atoms: C_22  and  C_24
REMARK                            x       y       z     vdW  Elec       q    Type
REMARK                         _______ _______ _______ _____ _____    ______ ____
ROOT
ATOM      1  C   UNL     1     147.539 150.024 143.556  0.00  0.00    +0.028 C 
ENDROOT
BRANCH   1   2
ATOM      2  C   UNL     1     148.511 148.953 142.941  0.00  0.00    +0.085 C 
BRANCH   2   7
ATOM      3  C   UNL     1     152.292 149.204 143.529  0.00  0.00    +0.162 A 
ATOM      4  C   UNL     1     152.574 150.470 143.015  0.00  0.00    +0.162 A 
ATOM      5  C   UNL     1     151.548 151.248 142.476  0.00  0.00    +0.050 A 
ATOM      6  C   UNL     1     150.242 150.761 142.453  0.00  0.00    +0.009 A 
ATOM      7  C   UNL     1     149.960 149.494 142.967  0.00  0.00    -0.024 A 
ATOM      8  C   UNL     1     150.986 148.716 143.505  0.00  0.00    +0.054 A 
BRANCH   3   9
ATOM      9  O   UNL     1     153.285 148.435 144.057  0.00  0.00    -0.491 OA
ATOM     10  C   UNL     1     153.368 148.372 145.479  0.00  0.00    +0.277 C 
ENDBRANCH   3   9
BRANCH   4  11
ATOM     11  O   UNL     1     153.846 150.958 143.031  0.00  0.00    -0.491 OA
ATOM     12  C   UNL     1     154.208 151.787 144.132  0.00  0.00    +0.277 C 
ENDBRANCH   4  11
ENDBRANCH   2   7
BRANCH   2  13
ATOM     13  C   UNL     1     148.100 148.650 141.437  0.00  0.00    +0.007 C 
ATOM     14  C   UNL     1     148.726 147.354 140.886  0.00  0.00    +0.009 C 
ATOM     15  C   UNL     1     146.582 148.596 141.195  0.00  0.00    +0.009 C 
ENDBRANCH   2  13
BRANCH   2  16
ATOM     16  C   UNL     1     148.340 147.703 143.737  0.00  0.00    +0.074 C 
ATOM     17  N   UNL     1     148.223 146.728 144.354  0.00  0.00    -0.196 NA
ENDBRANCH   2  16
ENDBRANCH   1   2
BRANCH   1  18
ATOM     18  C   UNL     1     147.750 150.314 145.057  0.00  0.00    +0.017 C 
BRANCH  18  19
ATOM     19  C   UNL     1     148.174 151.762 145.326  0.00  0.00    +0.084 C 
BRANCH  19  20
ATOM     20  N   UNL     1     149.032 151.870 146.499  0.00  0.00    -0.305 NA
ATOM     21  C   UNL     1     150.155 150.934 146.405  0.00  0.00    +0.104 C 
BRANCH  20  22
ATOM     22  C   UNL     1     149.526 153.240 146.652  0.00  0.00    +0.088 C 
BRANCH  22  23
ATOM     23  C   UNL     1     148.755 154.205 145.753  0.00  0.00    +0.050 C 
BRANCH  23  24
ATOM     24  C   UNL     1     147.915 155.164 146.560  0.00  0.00    -0.042 A 
ATOM     25  C   UNL     1     147.724 156.471 146.111  0.00  0.00    +0.007 A 
ATOM     26  C   UNL     1     146.948 157.357 146.857  0.00  0.00    +0.049 A 
ATOM     27  C   UNL     1     146.366 156.939 148.053  0.00  0.00    +0.161 A 
ATOM     28  C   UNL     1     146.558 155.632 148.503  0.00  0.00    +0.162 A 
ATOM     29  C   UNL     1     147.333 154.744 147.755  0.00  0.00    +0.053 A 
BRANCH  28  30
ATOM     30  O   UNL     1     145.994 155.211 149.669  0.00  0.00    -0.491 OA
ATOM     31  C   UNL     1     146.881 154.887 150.738  0.00  0.00    +0.277 C 
ENDBRANCH  28  30
BRANCH  27  32
ATOM     32  O   UNL     1     145.611 157.815 148.773  0.00  0.00    -0.491 OA
ATOM     33  C   UNL     1     146.309 158.741 149.603  0.00  0.00    +0.277 C 
ENDBRANCH  27  32
ENDBRANCH  23  24
ENDBRANCH  22  23
ENDBRANCH  20  22
ENDBRANCH  19  20
ENDBRANCH  18  19
ENDBRANCH   1  18
TORSDOF 14
ENDMDL
MODEL 4
REMARK VINA RESULT:      -7.3     15.734     18.257
REMARK  Name = 2520
REMARK  21 active torsions:
REMARK  status: ('A' for Active; 'I' for Inactive)
REMARK    1  A    between atoms: O_1  and  C_19
REMARK    2  A    between atoms: O_1  and  C_28
REMARK    3  A    between atoms: O_2  and  C_23
REMARK    4  A    between atoms: O_2  and  C_31
REMARK    5  A    between atoms: O_3  and  C_27
REMARK    6  A    between atoms: O_3  and  C_32
REMARK    7  A    between atoms: O_4  and  C_30
REMARK    8  A    between atoms: O_4  and  C_33
REMARK    9  A    between atoms: N_5  and  C_12
REMARK   10  A    between atoms: N_5  and  C_18
REMARK   11  A    between atoms: N_5  and  C_20
REMARK   12  A    between atoms: C_7  and  C_8
REMARK   13  A    between atoms: C_7  and  C_9
REMARK   14  A    between atoms: C_7  and  C_11
REMARK   15  A    between atoms: C_7  and  C_15
REMARK   16  A    between atoms: C_8  and  C_13
REMARK   17  A    between atoms: C_8  and  C_14
REMARK   18  A    between atoms: C_9  and  C_10
REMARK   19  A    between atoms: C_10  and  C_12
REMARK   20  A    between atoms: C_18  and  C_22
REMARK   21  A    between atoms: C_22  and  C_24
REMARK                            x       y       z     vdW  Elec       q    Type
REMARK                         _______ _______ _______ _____ _____    ______ ____
ROOT
ATOM      1  C   UNL     1     151.756 148.588 145.123  0.00  0.00    +0.028 C 
ENDROOT
BRANCH   1   2
ATOM      2  C   UNL     1     152.121 148.869 143.621  0.00  0.00    +0.085 C 
BRANCH   2   7
ATOM      3  C   UNL     1     148.622 148.517 142.092  0.00  0.00    +0.162 A 
ATOM      4  C   UNL     1     148.852 147.593 141.071  0.00  0.00    +0.162 A 
ATOM      5  C   UNL     1     150.134 147.080 140.872  0.00  0.00    +0.050 A 
ATOM      6  C   UNL     1     151.186 147.490 141.692  0.00  0.00    +0.009 A 
ATOM      7  C   UNL     1     150.955 148.414 142.711  0.00  0.00    -0.024 A 
ATOM      8  C   UNL     1     149.673 148.927 142.911  0.00  0.00    +0.054 A 
BRANCH   3   9
ATOM      9  O   UNL     1     147.375 149.025 142.296  0.00  0.00    -0.491 OA
ATOM     10  C   UNL     1     147.033 149.382 143.634  0.00  0.00    +0.277 C 
ENDBRANCH   3   9
BRANCH   4  11
ATOM     11  O   UNL     1     147.834 147.184 140.263  0.00  0.00    -0.491 OA
ATOM     12  C   UNL     1     148.192 146.640 138.996  0.00  0.00    +0.277 C 
ENDBRANCH   4  11
ENDBRANCH   2   7
BRANCH   2  13
ATOM     13  C   UNL     1     153.431 148.066 143.222  0.00  0.00    +0.007 C 
ATOM     14  C   UNL     1     154.697 148.945 143.194  0.00  0.00    +0.009 C 
ATOM     15  C   UNL     1     153.713 146.838 144.105  0.00  0.00    +0.009 C 
ENDBRANCH   2  13
BRANCH   2  16
ATOM     16  C   UNL     1     152.412 150.328 143.511  0.00  0.00    +0.074 C 
ATOM     17  N   UNL     1     152.652 151.460 143.417  0.00  0.00    -0.196 NA
ENDBRANCH   2  16
ENDBRANCH   1   2
BRANCH   1  18
ATOM     18  C   UNL     1     151.535 149.845 145.991  0.00  0.00    +0.017 C 
BRANCH  18  19
ATOM     19  C   UNL     1     150.072 150.027 146.408  0.00  0.00    +0.084 C 
BRANCH  19  20
ATOM     20  N   UNL     1     149.842 151.318 147.042  0.00  0.00    -0.305 NA
ATOM     21  C   UNL     1     151.107 152.030 147.238  0.00  0.00    +0.104 C 
BRANCH  20  22
ATOM     22  C   UNL     1     148.923 152.131 146.241  0.00  0.00    +0.088 C 
BRANCH  22  23
ATOM     23  C   UNL     1     149.285 153.613 146.327  0.00  0.00    +0.050 C 
BRANCH  23  24
ATOM     24  C   UNL     1     148.103 154.448 146.755  0.00  0.00    -0.042 A 
ATOM     25  C   UNL     1     146.965 153.831 147.275  0.00  0.00    +0.007 A 
ATOM     26  C   UNL     1     145.873 154.603 147.669  0.00  0.00    +0.049 A 
ATOM     27  C   UNL     1     145.918 155.991 147.543  0.00  0.00    +0.161 A 
ATOM     28  C   UNL     1     147.056 156.608 147.023  0.00  0.00    +0.162 A 
ATOM     29  C   UNL     1     148.149 155.836 146.629  0.00  0.00    +0.053 A 
BRANCH  28  30
ATOM     30  O   UNL     1     147.111 157.963 146.895  0.00  0.00    -0.491 OA
ATOM     31  C   UNL     1     147.983 158.662 147.782  0.00  0.00    +0.277 C 
ENDBRANCH  28  30
BRANCH  27  32
ATOM     32  O   UNL     1     144.844 156.734 147.932  0.00  0.00    -0.491 OA
ATOM     33  C   UNL     1     144.273 156.431 149.202  0.00  0.00    +0.277 C 
ENDBRANCH  27  32
ENDBRANCH  23  24
ENDBRANCH  22  23
ENDBRANCH  20  22
ENDBRANCH  19  20
ENDBRANCH  18  19
ENDBRANCH   1  18
TORSDOF 14
ENDMDL
MODEL 5
REMARK VINA RESULT:      -7.2      4.670      9.321
REMARK  Name = 2520
REMARK  21 active torsions:
REMARK  status: ('A' for Active; 'I' for Inactive)
REMARK    1  A    between atoms: O_1  and  C_19
REMARK    2  A    between atoms: O_1  and  C_28
REMARK    3  A    between atoms: O_2  and  C_23
REMARK    4  A    between atoms: O_2  and  C_31
REMARK    5  A    between atoms: O_3  and  C_27
REMARK    6  A    between atoms: O_3  and  C_32
REMARK    7  A    between atoms: O_4  and  C_30
REMARK    8  A    between atoms: O_4  and  C_33
REMARK    9  A    between atoms: N_5  and  C_12
REMARK   10  A    between atoms: N_5  and  C_18
REMARK   11  A    between atoms: N_5  and  C_20
REMARK   12  A    between atoms: C_7  and  C_8
REMARK   13  A    between atoms: C_7  and  C_9
REMARK   14  A    between atoms: C_7  and  C_11
REMARK   15  A    between atoms: C_7  and  C_15
REMARK   16  A    between atoms: C_8  and  C_13
REMARK   17  A    between atoms: C_8  and  C_14
REMARK   18  A    between atoms: C_9  and  C_10
REMARK   19  A    between atoms: C_10  and  C_12
REMARK   20  A    between atoms: C_18  and  C_22
REMARK   21  A    between atoms: C_22  and  C_24
REMARK                            x       y       z     vdW  Elec       q    Type
REMARK                         _______ _______ _______ _____ _____    ______ ____
ROOT
ATOM      1  C   UNL     1     161.256 156.804 134.707  0.00  0.00    +0.028 C 
ENDROOT
BRANCH   1   2
ATOM      2  C   UNL     1     162.191 157.818 135.461  0.00  0.00    +0.085 C 
BRANCH   2   7
ATOM      3  C   UNL     1     161.584 158.458 139.192  0.00  0.00    +0.162 A 
ATOM      4  C   UNL     1     160.314 159.037 139.176  0.00  0.00    +0.162 A 
ATOM      5  C   UNL     1     159.649 159.223 137.964  0.00  0.00    +0.050 A 
ATOM      6  C   UNL     1     160.251 158.831 136.769  0.00  0.00    +0.009 A 
ATOM      7  C   UNL     1     161.521 158.253 136.786  0.00  0.00    -0.024 A 
ATOM      8  C   UNL     1     162.187 158.066 137.998  0.00  0.00    +0.054 A 
BRANCH   3   9
ATOM      9  O   UNL     1     162.244 158.271 140.369  0.00  0.00    -0.491 OA
ATOM     10  C   UNL     1     163.293 159.186 140.676  0.00  0.00    +0.277 C 
ENDBRANCH   3   9
BRANCH   4  11
ATOM     11  O   UNL     1     159.714 159.424 140.336  0.00  0.00    -0.491 OA
ATOM     12  C   UNL     1     159.724 160.818 140.636  0.00  0.00    +0.277 C 
ENDBRANCH   4  11
ENDBRANCH   2   7
BRANCH   2  13
ATOM     13  C   UNL     1     162.434 159.102 134.559  0.00  0.00    +0.007 C 
ATOM     14  C   UNL     1     163.444 160.091 135.173  0.00  0.00    +0.009 C 
ATOM     15  C   UNL     1     162.875 158.789 133.119  0.00  0.00    +0.009 C 
ENDBRANCH   2  13
BRANCH   2  16
ATOM     16  C   UNL     1     163.499 157.131 135.665  0.00  0.00    +0.074 C 
ATOM     17  N   UNL     1     164.525 156.611 135.822  0.00  0.00    -0.196 NA
ENDBRANCH   2  16
ENDBRANCH   1   2
BRANCH   1  18
ATOM     18  C   UNL     1     161.628 155.316 134.879  0.00  0.00    +0.017 C 
BRANCH  18  19
ATOM     19  C   UNL     1     162.188 154.694 133.596  0.00  0.00    +0.084 C 
BRANCH  19  20
ATOM     20  N   UNL     1     161.133 154.335 132.658  0.00  0.00    -0.305 NA
ATOM     21  C   UNL     1     161.215 155.158 131.449  0.00  0.00    +0.104 C 
BRANCH  20  22
ATOM     22  C   UNL     1     161.212 152.915 132.310  0.00  0.00    +0.088 C 
BRANCH  22  23
ATOM     23  C   UNL     1     162.578 152.337 132.676  0.00  0.00    +0.050 C 
BRANCH  23  24
ATOM     24  C   UNL     1     162.456 150.950 133.258  0.00  0.00    -0.042 A 
ATOM     25  C   UNL     1     163.500 150.037 133.109  0.00  0.00    +0.007 A 
ATOM     26  C   UNL     1     163.386 148.755 133.647  0.00  0.00    +0.049 A 
ATOM     27  C   UNL     1     162.229 148.386 134.332  0.00  0.00    +0.161 A 
ATOM     28  C   UNL     1     161.185 149.298 134.480  0.00  0.00    +0.162 A 
ATOM     29  C   UNL     1     161.299 150.581 133.943  0.00  0.00    +0.053 A 
BRANCH  28  30
ATOM     30  O   UNL     1     160.049 148.949 135.147  0.00  0.00    -0.491 OA
ATOM     31  C   UNL     1     159.022 148.312 134.390  0.00  0.00    +0.277 C 
ENDBRANCH  28  30
BRANCH  27  32
ATOM     32  O   UNL     1     162.130 147.130 134.852  0.00  0.00    -0.491 OA
ATOM     33  C   UNL     1     162.719 146.911 136.132  0.00  0.00    +0.277 C 
ENDBRANCH  27  32
ENDBRANCH  23  24
ENDBRANCH  22  23
ENDBRANCH  20  22
ENDBRANCH  19  20
ENDBRANCH  18  19
ENDBRANCH   1  18
TORSDOF 14
ENDMDL
MODEL 6
REMARK VINA RESULT:      -7.1     15.953     18.356
REMARK  Name = 2520
REMARK  21 active torsions:
REMARK  status: ('A' for Active; 'I' for Inactive)
REMARK    1  A    between atoms: O_1  and  C_19
REMARK    2  A    between atoms: O_1  and  C_28
REMARK    3  A    between atoms: O_2  and  C_23
REMARK    4  A    between atoms: O_2  and  C_31
REMARK    5  A    between atoms: O_3  and  C_27
REMARK    6  A    between atoms: O_3  and  C_32
REMARK    7  A    between atoms: O_4  and  C_30
REMARK    8  A    between atoms: O_4  and  C_33
REMARK    9  A    between atoms: N_5  and  C_12
REMARK   10  A    between atoms: N_5  and  C_18
REMARK   11  A    between atoms: N_5  and  C_20
REMARK   12  A    between atoms: C_7  and  C_8
REMARK   13  A    between atoms: C_7  and  C_9
REMARK   14  A    between atoms: C_7  and  C_11
REMARK   15  A    between atoms: C_7  and  C_15
REMARK   16  A    between atoms: C_8  and  C_13
REMARK   17  A    between atoms: C_8  and  C_14
REMARK   18  A    between atoms: C_9  and  C_10
REMARK   19  A    between atoms: C_10  and  C_12
REMARK   20  A    between atoms: C_18  and  C_22
REMARK   21  A    between atoms: C_22  and  C_24
REMARK                            x       y       z     vdW  Elec       q    Type
REMARK                         _______ _______ _______ _____ _____    ______ ____
ROOT
ATOM      1  C   UNL     1     152.433 149.376 145.906  0.00  0.00    +0.028 C 
ENDROOT
BRANCH   1   2
ATOM      2  C   UNL     1     152.547 148.955 144.396  0.00  0.00    +0.085 C 
BRANCH   2   7
ATOM      3  C   UNL     1     149.714 147.521 142.248  0.00  0.00    +0.162 A 
ATOM      4  C   UNL     1     148.950 146.847 143.202  0.00  0.00    +0.162 A 
ATOM      5  C   UNL     1     149.344 146.852 144.540  0.00  0.00    +0.050 A 
ATOM      6  C   UNL     1     150.501 147.530 144.925  0.00  0.00    +0.009 A 
ATOM      7  C   UNL     1     151.264 148.203 143.970  0.00  0.00    -0.024 A 
ATOM      8  C   UNL     1     150.870 148.198 142.632  0.00  0.00    +0.054 A 
BRANCH   3   9
ATOM      9  O   UNL     1     149.340 147.523 140.938  0.00  0.00    -0.491 OA
ATOM     10  C   UNL     1     149.983 146.585 140.079  0.00  0.00    +0.277 C 
ENDBRANCH   3   9
BRANCH   4  11
ATOM     11  O   UNL     1     147.819 146.181 142.839  0.00  0.00    -0.491 OA
ATOM     12  C   UNL     1     146.604 146.926 142.825  0.00  0.00    +0.277 C 
ENDBRANCH   4  11
ENDBRANCH   2   7
BRANCH   2  13
ATOM     13  C   UNL     1     153.798 147.997 144.195  0.00  0.00    +0.007 C 
ATOM     14  C   UNL     1     153.598 146.600 144.813  0.00  0.00    +0.009 C 
ATOM     15  C   UNL     1     154.231 147.823 142.730  0.00  0.00    +0.009 C 
ENDBRANCH   2  13
BRANCH   2  16
ATOM     16  C   UNL     1     152.780 150.204 143.614  0.00  0.00    +0.074 C 
ATOM     17  N   UNL     1     152.974 151.168 142.999  0.00  0.00    -0.196 NA
ENDBRANCH   2  16
ENDBRANCH   1   2
BRANCH   1  18
ATOM     18  C   UNL     1     152.017 150.843 146.147  0.00  0.00    +0.017 C 
BRANCH  18  19
ATOM     19  C   UNL     1     150.504 151.008 146.322  0.00  0.00    +0.084 C 
BRANCH  19  20
ATOM     20  N   UNL     1     149.912 151.792 145.246  0.00  0.00    -0.305 NA
ATOM     21  C   UNL     1     148.905 151.008 144.529  0.00  0.00    +0.104 C 
BRANCH  20  22
ATOM     22  C   UNL     1     149.316 153.023 145.772  0.00  0.00    +0.088 C 
BRANCH  22  23
ATOM     23  C   UNL     1     147.942 152.749 146.380  0.00  0.00    +0.050 C 
BRANCH  23  24
ATOM     24  C   UNL     1     147.299 154.016 146.889  0.00  0.00    -0.042 A 
ATOM     25  C   UNL     1     146.252 153.945 147.809  0.00  0.00    +0.007 A 
ATOM     26  C   UNL     1     145.657 155.116 148.279  0.00  0.00    +0.049 A 
ATOM     27  C   UNL     1     146.108 156.356 147.829  0.00  0.00    +0.161 A 
ATOM     28  C   UNL     1     147.154 156.427 146.909  0.00  0.00    +0.162 A 
ATOM     29  C   UNL     1     147.750 155.256 146.439  0.00  0.00    +0.053 A 
BRANCH  28  30
ATOM     30  O   UNL     1     147.604 157.633 146.463  0.00  0.00    -0.491 OA
ATOM     31  C   UNL     1     148.455 157.624 145.318  0.00  0.00    +0.277 C 
ENDBRANCH  28  30
BRANCH  27  32
ATOM     32  O   UNL     1     145.519 157.493 148.295  0.00  0.00    -0.491 OA
ATOM     33  C   UNL     1     146.081 158.079 149.467  0.00  0.00    +0.277 C 
ENDBRANCH  27  32
ENDBRANCH  23  24
ENDBRANCH  22  23
ENDBRANCH  20  22
ENDBRANCH  19  20
ENDBRANCH  18  19
ENDBRANCH   1  18
TORSDOF 14
ENDMDL
MODEL 7
REMARK VINA RESULT:      -7.0     14.778     17.247
REMARK  Name = 2520
REMARK  21 active torsions:
REMARK  status: ('A' for Active; 'I' for Inactive)
REMARK    1  A    between atoms: O_1  and  C_19
REMARK    2  A    between atoms: O_1  and  C_28
REMARK    3  A    between atoms: O_2  and  C_23
REMARK    4  A    between atoms: O_2  and  C_31
REMARK    5  A    between atoms: O_3  and  C_27
REMARK    6  A    between atoms: O_3  and  C_32
REMARK    7  A    between atoms: O_4  and  C_30
REMARK    8  A    between atoms: O_4  and  C_33
REMARK    9  A    between atoms: N_5  and  C_12
REMARK   10  A    between atoms: N_5  and  C_18
REMARK   11  A    between atoms: N_5  and  C_20
REMARK   12  A    between atoms: C_7  and  C_8
REMARK   13  A    between atoms: C_7  and  C_9
REMARK   14  A    between atoms: C_7  and  C_11
REMARK   15  A    between atoms: C_7  and  C_15
REMARK   16  A    between atoms: C_8  and  C_13
REMARK   17  A    between atoms: C_8  and  C_14
REMARK   18  A    between atoms: C_9  and  C_10
REMARK   19  A    between atoms: C_10  and  C_12
REMARK   20  A    between atoms: C_18  and  C_22
REMARK   21  A    between atoms: C_22  and  C_24
REMARK                            x       y       z     vdW  Elec       q    Type
REMARK                         _______ _______ _______ _____ _____    ______ ____
ROOT
ATOM      1  C   UNL     1     148.223 148.627 142.680  0.00  0.00    +0.028 C 
ENDROOT
BRANCH   1   2
ATOM      2  C   UNL     1     149.528 147.891 142.204  0.00  0.00    +0.085 C 
BRANCH   2   7
ATOM      3  C   UNL     1     153.036 149.060 143.217  0.00  0.00    +0.162 A 
ATOM      4  C   UNL     1     152.971 150.425 142.933  0.00  0.00    +0.162 A 
ATOM      5  C   UNL     1     151.798 150.974 142.414  0.00  0.00    +0.050 A 
ATOM      6  C   UNL     1     150.690 150.160 142.180  0.00  0.00    +0.009 A 
ATOM      7  C   UNL     1     150.756 148.795 142.464  0.00  0.00    -0.024 A 
ATOM      8  C   UNL     1     151.929 148.245 142.983  0.00  0.00    +0.054 A 
BRANCH   3   9
ATOM      9  O   UNL     1     154.176 148.512 143.724  0.00  0.00    -0.491 OA
ATOM     10  C   UNL     1     154.079 147.878 144.997  0.00  0.00    +0.277 C 
ENDBRANCH   3   9
BRANCH   4  11
ATOM     11  O   UNL     1     154.046 151.231 143.157  0.00  0.00    -0.491 OA
ATOM     12  C   UNL     1     154.016 152.041 144.329  0.00  0.00    +0.277 C 
ENDBRANCH   4  11
ENDBRANCH   2   7
BRANCH   2  13
ATOM     13  C   UNL     1     149.436 147.579 140.650  0.00  0.00    +0.007 C 
ATOM     14  C   UNL     1     150.433 146.498 140.188  0.00  0.00    +0.009 C 
ATOM     15  C   UNL     1     148.031 147.180 140.167  0.00  0.00    +0.009 C 
ENDBRANCH   2  13
BRANCH   2  16
ATOM     16  C   UNL     1     149.588 146.596 142.942  0.00  0.00    +0.074 C 
ATOM     17  N   UNL     1     149.636 145.597 143.530  0.00  0.00    -0.196 NA
ENDBRANCH   2  16
ENDBRANCH   1   2
BRANCH   1  18
ATOM     18  C   UNL     1     148.126 148.871 144.201  0.00  0.00    +0.017 C 
BRANCH  18  19
ATOM     19  C   UNL     1     147.667 150.292 144.544  0.00  0.00    +0.084 C 
BRANCH  19  20
ATOM     20  N   UNL     1     148.722 151.067 145.183  0.00  0.00    -0.305 NA
ATOM     21  C   UNL     1     148.174 152.277 145.799  0.00  0.00    +0.104 C 
BRANCH  20  22
ATOM     22  C   UNL     1     149.422 150.260 146.185  0.00  0.00    +0.088 C 
BRANCH  22  23
ATOM     23  C   UNL     1     150.937 150.381 146.027  0.00  0.00    +0.050 C 
BRANCH  23  24
ATOM     24  C   UNL     1     151.556 151.137 147.177  0.00  0.00    -0.042 A 
ATOM     25  C   UNL     1     152.925 151.034 147.421  0.00  0.00    +0.007 A 
ATOM     26  C   UNL     1     153.497 151.732 148.485  0.00  0.00    +0.049 A 
ATOM     27  C   UNL     1     152.701 152.531 149.304  0.00  0.00    +0.161 A 
ATOM     28  C   UNL     1     151.331 152.632 149.060  0.00  0.00    +0.162 A 
ATOM     29  C   UNL     1     150.758 151.935 147.996  0.00  0.00    +0.053 A 
BRANCH  28  30
ATOM     30  O   UNL     1     150.542 153.410 149.854  0.00  0.00    -0.491 OA
ATOM     31  C   UNL     1     149.726 154.382 149.203  0.00  0.00    +0.277 C 
ENDBRANCH  28  30
BRANCH  27  32
ATOM     32  O   UNL     1     153.271 153.207 150.340  0.00  0.00    -0.491 OA
ATOM     33  C   UNL     1     153.424 152.500 151.569  0.00  0.00    +0.277 C 
ENDBRANCH  27  32
ENDBRANCH  23  24
ENDBRANCH  22  23
ENDBRANCH  20  22
ENDBRANCH  19  20
ENDBRANCH  18  19
ENDBRANCH   1  18
TORSDOF 14
ENDMDL
MODEL 8
REMARK VINA RESULT:      -7.0     14.620     17.234
REMARK  Name = 2520
REMARK  21 active torsions:
REMARK  status: ('A' for Active; 'I' for Inactive)
REMARK    1  A    between atoms: O_1  and  C_19
REMARK    2  A    between atoms: O_1  and  C_28
REMARK    3  A    between atoms: O_2  and  C_23
REMARK    4  A    between atoms: O_2  and  C_31
REMARK    5  A    between atoms: O_3  and  C_27
REMARK    6  A    between atoms: O_3  and  C_32
REMARK    7  A    between atoms: O_4  and  C_30
REMARK    8  A    between atoms: O_4  and  C_33
REMARK    9  A    between atoms: N_5  and  C_12
REMARK   10  A    between atoms: N_5  and  C_18
REMARK   11  A    between atoms: N_5  and  C_20
REMARK   12  A    between atoms: C_7  and  C_8
REMARK   13  A    between atoms: C_7  and  C_9
REMARK   14  A    between atoms: C_7  and  C_11
REMARK   15  A    between atoms: C_7  and  C_15
REMARK   16  A    between atoms: C_8  and  C_13
REMARK   17  A    between atoms: C_8  and  C_14
REMARK   18  A    between atoms: C_9  and  C_10
REMARK   19  A    between atoms: C_10  and  C_12
REMARK   20  A    between atoms: C_18  and  C_22
REMARK   21  A    between atoms: C_22  and  C_24
REMARK                            x       y       z     vdW  Elec       q    Type
REMARK                         _______ _______ _______ _____ _____    ______ ____
ROOT
ATOM      1  C   UNL     1     152.534 153.779 148.703  0.00  0.00    +0.028 C 
ENDROOT
BRANCH   1   2
ATOM      2  C   UNL     1     151.635 154.042 147.441  0.00  0.00    +0.085 C 
BRANCH   2   7
ATOM      3  C   UNL     1     151.786 151.527 144.550  0.00  0.00    +0.162 A 
ATOM      4  C   UNL     1     153.098 151.690 144.103  0.00  0.00    +0.162 A 
ATOM      5  C   UNL     1     153.938 152.610 144.729  0.00  0.00    +0.050 A 
ATOM      6  C   UNL     1     153.469 153.366 145.803  0.00  0.00    +0.009 A 
ATOM      7  C   UNL     1     152.157 153.203 146.250  0.00  0.00    -0.024 A 
ATOM      8  C   UNL     1     151.316 152.283 145.623  0.00  0.00    +0.054 A 
BRANCH   3   9
ATOM      9  O   UNL     1     150.955 150.632 143.946  0.00  0.00    -0.491 OA
ATOM     10  C   UNL     1     150.793 149.367 144.584  0.00  0.00    +0.277 C 
ENDBRANCH   3   9
BRANCH   4  11
ATOM     11  O   UNL     1     153.568 150.958 143.055  0.00  0.00    -0.491 OA
ATOM     12  C   UNL     1     154.456 149.885 143.360  0.00  0.00    +0.277 C 
ENDBRANCH   4  11
ENDBRANCH   2   7
BRANCH   2  13
ATOM     13  C   UNL     1     151.687 155.580 147.051  0.00  0.00    +0.007 C 
ATOM     14  C   UNL     1     150.439 156.052 146.278  0.00  0.00    +0.009 C 
ATOM     15  C   UNL     1     151.906 156.528 148.242  0.00  0.00    +0.009 C 
ENDBRANCH   2  13
BRANCH   2  16
ATOM     16  C   UNL     1     150.236 153.700 147.827  0.00  0.00    +0.074 C 
ATOM     17  N   UNL     1     149.142 153.440 148.113  0.00  0.00    -0.196 NA
ENDBRANCH   2  16
ENDBRANCH   1   2
BRANCH   1  18
ATOM     18  C   UNL     1     152.068 152.621 149.610  0.00  0.00    +0.017 C 
BRANCH  18  19
ATOM     19  C   UNL     1     151.638 153.096 151.002  0.00  0.00    +0.084 C 
BRANCH  19  20
ATOM     20  N   UNL     1     152.603 152.724 152.028  0.00  0.00    -0.305 NA
ATOM     21  C   UNL     1     153.379 151.556 151.608  0.00  0.00    +0.104 C 
BRANCH  20  22
ATOM     22  C   UNL     1     153.498 153.846 152.325  0.00  0.00    +0.088 C 
BRANCH  22  23
ATOM     23  C   UNL     1     152.703 155.098 152.691  0.00  0.00    +0.050 C 
BRANCH  23  24
ATOM     24  C   UNL     1     153.284 156.332 152.046  0.00  0.00    -0.042 A 
ATOM     25  C   UNL     1     154.291 156.209 151.088  0.00  0.00    +0.007 A 
ATOM     26  C   UNL     1     154.828 157.350 150.492  0.00  0.00    +0.049 A 
ATOM     27  C   UNL     1     154.360 158.612 150.854  0.00  0.00    +0.161 A 
ATOM     28  C   UNL     1     153.354 158.736 151.812  0.00  0.00    +0.162 A 
ATOM     29  C   UNL     1     152.815 157.594 152.408  0.00  0.00    +0.053 A 
BRANCH  28  30
ATOM     30  O   UNL     1     152.888 159.964 152.173  0.00  0.00    -0.491 OA
ATOM     31  C   UNL     1     151.557 160.294 151.778  0.00  0.00    +0.277 C 
ENDBRANCH  28  30
BRANCH  27  32
ATOM     32  O   UNL     1     154.894 159.719 150.264  0.00  0.00    -0.491 OA
ATOM     33  C   UNL     1     154.402 160.065 148.971  0.00  0.00    +0.277 C 
ENDBRANCH  27  32
ENDBRANCH  23  24
ENDBRANCH  22  23
ENDBRANCH  20  22
ENDBRANCH  19  20
ENDBRANCH  18  19
ENDBRANCH   1  18
TORSDOF 14
ENDMDL
MODEL 9
REMARK VINA RESULT:      -7.0     15.774     19.171
REMARK  Name = 2520
REMARK  21 active torsions:
REMARK  status: ('A' for Active; 'I' for Inactive)
REMARK    1  A    between atoms: O_1  and  C_19
REMARK    2  A    between atoms: O_1  and  C_28
REMARK    3  A    between atoms: O_2  and  C_23
REMARK    4  A    between atoms: O_2  and  C_31
REMARK    5  A    between atoms: O_3  and  C_27
REMARK    6  A    between atoms: O_3  and  C_32
REMARK    7  A    between atoms: O_4  and  C_30
REMARK    8  A    between atoms: O_4  and  C_33
REMARK    9  A    between atoms: N_5  and  C_12
REMARK   10  A    between atoms: N_5  and  C_18
REMARK   11  A    between atoms: N_5  and  C_20
REMARK   12  A    between atoms: C_7  and  C_8
REMARK   13  A    between atoms: C_7  and  C_9
REMARK   14  A    between atoms: C_7  and  C_11
REMARK   15  A    between atoms: C_7  and  C_15
REMARK   16  A    between atoms: C_8  and  C_13
REMARK   17  A    between atoms: C_8  and  C_14
REMARK   18  A    between atoms: C_9  and  C_10
REMARK   19  A    between atoms: C_10  and  C_12
REMARK   20  A    between atoms: C_18  and  C_22
REMARK   21  A    between atoms: C_22  and  C_24
REMARK                            x       y       z     vdW  Elec       q    Type
REMARK                         _______ _______ _______ _____ _____    ______ ____
ROOT
ATOM      1  C   UNL     1     152.294 154.720 146.954  0.00  0.00    +0.028 C 
ENDROOT
BRANCH   1   2
ATOM      2  C   UNL     1     152.167 153.269 147.546  0.00  0.00    +0.085 C 
BRANCH   2   7
ATOM      3  C   UNL     1     154.073 153.799 150.830  0.00  0.00    +0.162 A 
ATOM      4  C   UNL     1     153.152 153.334 151.769  0.00  0.00    +0.162 A 
ATOM      5  C   UNL     1     151.914 152.848 151.349  0.00  0.00    +0.050 A 
ATOM      6  C   UNL     1     151.597 152.826 149.990  0.00  0.00    +0.009 A 
ATOM      7  C   UNL     1     152.518 153.292 149.052  0.00  0.00    -0.024 A 
ATOM      8  C   UNL     1     153.757 153.779 149.472  0.00  0.00    +0.054 A 
BRANCH   3   9
ATOM      9  O   UNL     1     155.286 154.277 151.228  0.00  0.00    -0.491 OA
ATOM     10  C   UNL     1     155.955 155.167 150.338  0.00  0.00    +0.277 C 
ENDBRANCH   3   9
BRANCH   4  11
ATOM     11  O   UNL     1     153.449 153.350 153.098  0.00  0.00    -0.491 OA
ATOM     12  C   UNL     1     153.246 154.577 153.793  0.00  0.00    +0.277 C 
ENDBRANCH   4  11
ENDBRANCH   2   7
BRANCH   2  13
ATOM     13  C   UNL     1     153.168 152.290 146.797  0.00  0.00    +0.007 C 
ATOM     14  C   UNL     1     152.965 150.810 147.175  0.00  0.00    +0.009 C 
ATOM     15  C   UNL     1     153.139 152.407 145.263  0.00  0.00    +0.009 C 
ENDBRANCH   2  13
BRANCH   2  16
ATOM     16  C   UNL     1     150.772 152.813 147.277  0.00  0.00    +0.074 C 
ATOM     17  N   UNL     1     149.694 152.444 147.061  0.00  0.00    -0.196 NA
ENDBRANCH   2  16
ENDBRANCH   1   2
BRANCH   1  18
ATOM     18  C   UNL     1     151.150 155.684 147.332  0.00  0.00    +0.017 C 
BRANCH  18  19
ATOM     19  C   UNL     1     151.659 157.023 147.876  0.00  0.00    +0.084 C 
BRANCH  19  20
ATOM     20  N   UNL     1     152.207 156.892 149.220  0.00  0.00    -0.305 NA
ATOM     21  C   UNL     1     153.496 157.579 149.321  0.00  0.00    +0.104 C 
BRANCH  20  22
ATOM     22  C   UNL     1     151.271 157.422 150.213  0.00  0.00    +0.088 C 
BRANCH  22  23
ATOM     23  C   UNL     1     150.538 156.292 150.934  0.00  0.00    +0.050 C 
BRANCH  23  24
ATOM     24  C   UNL     1     149.099 156.191 150.489  0.00  0.00    -0.042 A 
ATOM     25  C   UNL     1     148.515 154.939 150.298  0.00  0.00    +0.007 A 
ATOM     26  C   UNL     1     147.186 154.846 149.885  0.00  0.00    +0.049 A 
ATOM     27  C   UNL     1     146.442 156.004 149.663  0.00  0.00    +0.161 A 
ATOM     28  C   UNL     1     147.026 157.256 149.853  0.00  0.00    +0.162 A 
ATOM     29  C   UNL     1     148.356 157.350 150.267  0.00  0.00    +0.053 A 
BRANCH  28  30
ATOM     30  O   UNL     1     146.309 158.395 149.640  0.00  0.00    -0.491 OA
ATOM     31  C   UNL     1     147.049 159.598 149.436  0.00  0.00    +0.277 C 
ENDBRANCH  28  30
BRANCH  27  32
ATOM     32  O   UNL     1     145.145 155.900 149.260  0.00  0.00    -0.491 OA
ATOM     33  C   UNL     1     144.907 155.824 147.856  0.00  0.00    +0.277 C 
ENDBRANCH  27  32
ENDBRANCH  23  24
ENDBRANCH  22  23
ENDBRANCH  20  22
ENDBRANCH  19  20
ENDBRANCH  18  19
ENDBRANCH   1  18
TORSDOF 14
ENDMDL
MODEL 10
REMARK VINA RESULT:      -7.0     15.172     18.033
REMARK  Name = 2520
REMARK  21 active torsions:
REMARK  status: ('A' for Active; 'I' for Inactive)
REMARK    1  A    between atoms: O_1  and  C_19
REMARK    2  A    between atoms: O_1  and  C_28
REMARK    3  A    between atoms: O_2  and  C_23
REMARK    4  A    between atoms: O_2  and  C_31
REMARK    5  A    between atoms: O_3  and  C_27
REMARK    6  A    between atoms: O_3  and  C_32
REMARK    7  A    between atoms: O_4  and  C_30
REMARK    8  A    between atoms: O_4  and  C_33
REMARK    9  A    between atoms: N_5  and  C_12
REMARK   10  A    between atoms: N_5  and  C_18
REMARK   11  A    between atoms: N_5  and  C_20
REMARK   12  A    between atoms: C_7  and  C_8
REMARK   13  A    between atoms: C_7  and  C_9
REMARK   14  A    between atoms: C_7  and  C_11
REMARK   15  A    between atoms: C_7  and  C_15
REMARK   16  A    between atoms: C_8  and  C_13
REMARK   17  A    between atoms: C_8  and  C_14
REMARK   18  A    between atoms: C_9  and  C_10
REMARK   19  A    between atoms: C_10  and  C_12
REMARK   20  A    between atoms: C_18  and  C_22
REMARK   21  A    between atoms: C_22  and  C_24
REMARK                            x       y       z     vdW  Elec       q    Type
REMARK                         _______ _______ _______ _____ _____    ______ ____
ROOT
ATOM      1  C   UNL     1     147.392 148.346 141.193  0.00  0.00    +0.028 C 
ENDROOT
BRANCH   1   2
ATOM      2  C   UNL     1     147.947 146.916 141.536  0.00  0.00    +0.085 C 
BRANCH   2   7
ATOM      3  C   UNL     1     151.296 148.277 142.813  0.00  0.00    +0.162 A 
ATOM      4  C   UNL     1     151.670 147.292 143.728  0.00  0.00    +0.162 A 
ATOM      5  C   UNL     1     150.845 146.186 143.937  0.00  0.00    +0.050 A 
ATOM      6  C   UNL     1     149.648 146.065 143.232  0.00  0.00    +0.009 A 
ATOM      7  C   UNL     1     149.275 147.050 142.318  0.00  0.00    -0.024 A 
ATOM      8  C   UNL     1     150.099 148.156 142.108  0.00  0.00    +0.054 A 
BRANCH   3   9
ATOM      9  O   UNL     1     152.092 149.362 142.600  0.00  0.00    -0.491 OA
ATOM     10  C   UNL     1     151.440 150.604 142.347  0.00  0.00    +0.277 C 
ENDBRANCH   3   9
BRANCH   4  11
ATOM     11  O   UNL     1     152.837 147.399 144.423  0.00  0.00    -0.491 OA
ATOM     12  C   UNL     1     154.020 146.931 143.780  0.00  0.00    +0.277 C 
ENDBRANCH   4  11
ENDBRANCH   2   7
BRANCH   2  13
ATOM     13  C   UNL     1     148.215 146.105 140.197  0.00  0.00    +0.007 C 
ATOM     14  C   UNL     1     147.105 146.289 139.143  0.00  0.00    +0.009 C 
ATOM     15  C   UNL     1     149.569 146.411 139.533  0.00  0.00    +0.009 C 
ENDBRANCH   2  13
BRANCH   2  16
ATOM     16  C   UNL     1     146.882 146.211 142.307  0.00  0.00    +0.074 C 
ATOM     17  N   UNL     1     146.057 145.674 142.920  0.00  0.00    -0.196 NA
ENDBRANCH   2  16
ENDBRANCH   1   2
BRANCH   1  18
ATOM     18  C   UNL     1     146.597 149.029 142.327  0.00  0.00    +0.017 C 
BRANCH  18  19
ATOM     19  C   UNL     1     147.395 150.134 143.026  0.00  0.00    +0.084 C 
BRANCH  19  20
ATOM     20  N   UNL     1     147.337 150.014 144.477  0.00  0.00    -0.305 NA
ATOM     21  C   UNL     1     147.376 148.606 144.880  0.00  0.00    +0.104 C 
BRANCH  20  22
ATOM     22  C   UNL     1     148.439 150.749 145.101  0.00  0.00    +0.088 C 
BRANCH  22  23
ATOM     23  C   UNL     1     149.466 149.791 145.703  0.00  0.00    +0.050 C 
BRANCH  23  24
ATOM     24  C   UNL     1     150.600 150.537 146.363  0.00  0.00    -0.042 A 
ATOM     25  C   UNL     1     150.348 151.352 147.467  0.00  0.00    +0.007 A 
ATOM     26  C   UNL     1     151.397 152.041 148.077  0.00  0.00    +0.049 A 
ATOM     27  C   UNL     1     152.694 151.917 147.582  0.00  0.00    +0.161 A 
ATOM     28  C   UNL     1     152.945 151.102 146.478  0.00  0.00    +0.162 A 
ATOM     29  C   UNL     1     151.897 150.412 145.869  0.00  0.00    +0.053 A 
BRANCH  28  30
ATOM     30  O   UNL     1     154.209 150.972 145.987  0.00  0.00    -0.491 OA
ATOM     31  C   UNL     1     154.497 151.634 144.756  0.00  0.00    +0.277 C 
ENDBRANCH  28  30
BRANCH  27  32
ATOM     32  O   UNL     1     153.709 152.596 148.186  0.00  0.00    -0.491 OA
ATOM     33  C   UNL     1     153.356 153.475 149.252  0.00  0.00    +0.277 C 
ENDBRANCH  27  32
ENDBRANCH  23  24
ENDBRANCH  22  23
ENDBRANCH  20  22
ENDBRANCH  19  20
ENDBRANCH  18  19
ENDBRANCH   1  18
TORSDOF 14
ENDMDL
