REMARK VINA RESULT:      -7.6      5.973     11.887
REMARK  12 active torsions:
REMARK  status: ('A' for Active; 'I' for Inactive)
REMARK    1  A    between atoms: O_1  and  C_10 
REMARK    2  A    between atoms: O_2  and  C_17 
REMARK    3  A    between atoms: O_3  and  C_20 
REMARK    4  A    between atoms: O_4  and  C_27 
REMARK    5  A    between atoms: O_6  and  C_29 
REMARK    6  A    between atoms: O_7  and  C_28 
REMARK    7  A    between atoms: O_8  and  C_33 
REMARK    8  A    between atoms: C_11  and  C_20 
REMARK    9  A    between atoms: C_20  and  C_28 
REMARK   10  A    between atoms: C_28  and  C_31 
REMARK   11  A    between atoms: C_31  and  C_32 
REMARK   12  A    between atoms: C_32  and  C_33 
ROOT
HETATM    1  O   UNK     0     183.728 180.591 172.431  0.00  0.00    -0.384 OA
HETATM    2  H   UNK     0     183.751 180.960 173.326  0.00  0.00     0.211 HD
ENDROOT
BRANCH   1   3
HETATM    3  C   UNK     0     183.191 181.545 171.486  0.00  0.00     0.090 C 
HETATM    4  C   UNK     0     181.700 181.817 171.813  0.00  0.00    -0.000 C 
HETATM    5  C   UNK     0     181.087 180.416 171.554  0.00  0.00     0.034 C 
HETATM    6  C   UNK     0     181.596 182.285 173.271  0.00  0.00     0.045 C 
HETATM    7  C   UNK     0     181.057 182.880 170.879  0.00  0.00     0.019 C 
HETATM    8  C   UNK     0     181.831 179.917 170.293  0.00  0.00     0.012 C 
HETATM    9  C   UNK     0     183.097 180.791 170.153  0.00  0.00     0.044 C 
HETATM   10  C   UNK     0     182.441 183.551 173.519  0.00  0.00     0.128 C 
HETATM   11  C   UNK     0     183.940 183.437 173.054  0.00  0.00     0.055 C 
HETATM   12  C   UNK     0     184.764 184.793 173.195  0.00  0.00    -0.021 C 
HETATM   13  C   UNK     0     184.023 182.801 171.650  0.00  0.00    -0.034 C 
HETATM   14  C   UNK     0     186.057 184.731 172.332  0.00  0.00     0.071 C 
HETATM   15  C   UNK     0     185.142 185.083 174.695  0.00  0.00     0.045 C 
HETATM   16  C   UNK     0     183.922 185.999 172.692  0.00  0.00     0.017 C 
HETATM   17  C   UNK     0     187.145 183.773 172.847  0.00  0.00     0.047 C 
HETATM   18  C   UNK     0     185.736 184.375 170.895  0.00  0.00     0.154 C 
HETATM   19  C   UNK     0     187.152 183.608 174.363  0.00  0.00     0.147 C 
HETATM   20  C   UNK     0     186.608 184.841 175.071  0.00  0.00     0.147 C 
HETATM   21  O   UNK     0     186.296 184.921 169.947  0.00  0.00    -0.293 OA
HETATM   22  C   UNK     0     184.791 183.267 170.655  0.00  0.00     0.057 C 
BRANCH   5  23
HETATM   23  C   UNK     0     179.573 180.350 171.412  0.00  0.00     0.084 C 
HETATM   24  C   UNK     0     178.994 179.367 172.442  0.00  0.00     0.049 C 
BRANCH  23  25
HETATM   25  O   UNK     0     179.034 181.646 171.706  0.00  0.00    -0.387 OA
HETATM   26  H   UNK     0     179.437 182.298 171.110  0.00  0.00     0.210 HD
ENDBRANCH  23  25
BRANCH  23  27
HETATM   27  C   UNK     0     179.134 179.959 169.974  0.00  0.00     0.152 C 
BRANCH  27  28
HETATM   28  O   UNK     0     178.481 181.070 169.353  0.00  0.00    -0.393 OA
HETATM   29  H   UNK     0     178.626 180.995 168.394  0.00  0.00     0.210 HD
ENDBRANCH  27  28
BRANCH  27  30
HETATM   30  C   UNK     0     178.190 178.743 169.910  0.00  0.00     0.037 C 
BRANCH  30  31
HETATM   31  C   UNK     0     177.105 178.912 168.831  0.00  0.00     0.040 C 
BRANCH  31  32
HETATM   32  C   UNK     0     175.690 179.186 169.382  0.00  0.00     0.051 C 
HETATM   33  C   UNK     0     174.644 178.601 168.427  0.00  0.00     0.045 C 
HETATM   34  C   UNK     0     175.488 178.614 170.788  0.00  0.00     0.045 C 
BRANCH  32  35
HETATM   35  O   UNK     0     175.493 180.600 169.437  0.00  0.00    -0.391 OA
HETATM   36  H   UNK     0     176.186 180.988 169.996  0.00  0.00     0.210 HD
ENDBRANCH  32  35
ENDBRANCH  31  32
ENDBRANCH  30  31
ENDBRANCH  27  30
ENDBRANCH  23  27
ENDBRANCH   5  23
BRANCH  10  37
HETATM   37  O   UNK     0     182.370 183.837 174.913  0.00  0.00    -0.395 OA
HETATM   38  H   UNK     0     181.516 184.272 175.082  0.00  0.00     0.210 HD
ENDBRANCH  10  37
BRANCH  19  39
HETATM   39  O   UNK     0     188.485 183.338 174.789  0.00  0.00    -0.393 OA
HETATM   40  H   UNK     0     189.092 183.610 174.080  0.00  0.00     0.210 HD
ENDBRANCH  19  39
BRANCH  20  41
HETATM   41  O   UNK     0     187.375 185.994 174.721  0.00  0.00    -0.393 OA
HETATM   42  H   UNK     0     188.306 185.723 174.668  0.00  0.00     0.210 HD
ENDBRANCH  20  41
ENDBRANCH   1   3
TORSDOF 12
