MODEL 1
REMARK VINA RESULT:      -8.9      0.000      0.000
REMARK  11 active torsions:
REMARK  status: ('A' for Active; 'I' for Inactive)
REMARK    1  A    between atoms: O_1  and  C_9 
REMARK    2  A    between atoms: O_2  and  C_19 
REMARK    3  A    between atoms: O_3  and  C_26 
REMARK    4  A    between atoms: O_4  and  C_27 
REMARK    5  A    between atoms: O_6  and  C_28 
REMARK    6  A    between atoms: O_7  and  C_32 
REMARK    7  A    between atoms: C_10  and  C_19 
REMARK    8  A    between atoms: C_19  and  C_27 
REMARK    9  A    between atoms: C_27  and  C_30 
REMARK   10  A    between atoms: C_30  and  C_31 
REMARK   11  A    between atoms: C_31  and  C_32 
ROOT
HETATM    1  O   UNK     0     149.103 150.095 142.106  0.00  0.00    -0.384 OA
HETATM    2  H   UNK     0     150.070 150.032 142.018  0.00  0.00     0.211 HD
ENDROOT
BRANCH   1   3
HETATM    3  C   UNK     0     148.696 149.196 143.163  0.00  0.00     0.089 C 
HETATM    4  C   UNK     0     148.631 147.749 142.611  0.00  0.00    -0.002 C 
HETATM    5  C   UNK     0     147.487 147.886 141.574  0.00  0.00     0.034 C 
HETATM    6  C   UNK     0     149.995 147.398 141.992  0.00  0.00     0.014 C 
HETATM    7  C   UNK     0     148.267 146.702 143.700  0.00  0.00     0.019 C 
HETATM    8  C   UNK     0     146.461 148.804 142.276  0.00  0.00     0.012 C 
HETATM    9  C   UNK     0     147.215 149.512 143.424  0.00  0.00     0.044 C 
HETATM   10  C   UNK     0     151.119 147.510 143.035  0.00  0.00     0.011 C 
HETATM   11  C   UNK     0     151.146 148.846 143.840  0.00  0.00     0.027 C 
HETATM   12  C   UNK     0     152.163 148.800 145.047  0.00  0.00    -0.023 C 
HETATM   13  C   UNK     0     149.747 149.336 144.243  0.00  0.00    -0.037 C 
HETATM   14  C   UNK     0     152.004 150.072 145.926  0.00  0.00     0.071 C 
HETATM   15  C   UNK     0     153.636 148.722 144.553  0.00  0.00     0.044 C 
HETATM   16  C   UNK     0     151.922 147.559 145.950  0.00  0.00     0.016 C 
HETATM   17  C   UNK     0     152.498 151.358 145.241  0.00  0.00     0.047 C 
HETATM   18  C   UNK     0     150.566 150.256 146.369  0.00  0.00     0.154 C 
HETATM   19  C   UNK     0     153.947 151.229 144.774  0.00  0.00     0.147 C 
HETATM   20  C   UNK     0     154.125 150.006 143.874  0.00  0.00     0.147 C 
HETATM   21  O   UNK     0     150.284 150.730 147.469  0.00  0.00    -0.293 OA
HETATM   22  C   UNK     0     149.481 149.933 145.416  0.00  0.00     0.057 C 
BRANCH   5  23
HETATM   23  C   UNK     0     146.868 146.589 141.067  0.00  0.00     0.084 C 
HETATM   24  C   UNK     0     146.929 146.548 139.531  0.00  0.00     0.049 C 
BRANCH  23  25
HETATM   25  O   UNK     0     147.651 145.492 141.556  0.00  0.00    -0.387 OA
HETATM   26  H   UNK     0     148.287 145.826 142.210  0.00  0.00     0.210 HD
ENDBRANCH  23  25
BRANCH  23  27
HETATM   27  C   UNK     0     145.408 146.402 141.563  0.00  0.00     0.152 C 
BRANCH  27  28
HETATM   28  O   UNK     0     145.382 145.443 142.625  0.00  0.00    -0.393 OA
HETATM   29  H   UNK     0     146.218 144.945 142.588  0.00  0.00     0.210 HD
ENDBRANCH  27  28
BRANCH  27  30
HETATM   30  C   UNK     0     144.423 145.943 140.471  0.00  0.00     0.037 C 
BRANCH  30  31
HETATM   31  C   UNK     0     143.935 144.500 140.703  0.00  0.00     0.040 C 
BRANCH  31  32
HETATM   32  C   UNK     0     144.716 143.427 139.917  0.00  0.00     0.051 C 
HETATM   33  C   UNK     0     143.942 142.105 139.947  0.00  0.00     0.045 C 
HETATM   34  C   UNK     0     144.986 143.840 138.469  0.00  0.00     0.045 C 
BRANCH  32  35
HETATM   35  O   UNK     0     145.970 143.216 140.569  0.00  0.00    -0.391 OA
HETATM   36  H   UNK     0     146.006 143.800 141.345  0.00  0.00     0.210 HD
ENDBRANCH  32  35
ENDBRANCH  31  32
ENDBRANCH  30  31
ENDBRANCH  27  30
ENDBRANCH  23  27
ENDBRANCH   5  23
BRANCH  19  37
HETATM   37  O   UNK     0     154.798 151.103 145.915  0.00  0.00    -0.393 OA
HETATM   38  H   UNK     0     154.279 151.357 146.696  0.00  0.00     0.210 HD
ENDBRANCH  19  37
BRANCH  20  39
HETATM   39  O   UNK     0     155.504 149.874 143.538  0.00  0.00    -0.393 OA
HETATM   40  H   UNK     0     155.820 149.038 143.923  0.00  0.00     0.210 HD
ENDBRANCH  20  39
ENDBRANCH   1   3
TORSDOF 11
ENDMDL
MODEL 2
REMARK VINA RESULT:      -8.8      1.973      8.684
REMARK  11 active torsions:
REMARK  status: ('A' for Active; 'I' for Inactive)
REMARK    1  A    between atoms: O_1  and  C_9 
REMARK    2  A    between atoms: O_2  and  C_19 
REMARK    3  A    between atoms: O_3  and  C_26 
REMARK    4  A    between atoms: O_4  and  C_27 
REMARK    5  A    between atoms: O_6  and  C_28 
REMARK    6  A    between atoms: O_7  and  C_32 
REMARK    7  A    between atoms: C_10  and  C_19 
REMARK    8  A    between atoms: C_19  and  C_27 
REMARK    9  A    between atoms: C_27  and  C_30 
REMARK   10  A    between atoms: C_30  and  C_31 
REMARK   11  A    between atoms: C_31  and  C_32 
ROOT
HETATM    1  O   UNK     0     149.163 146.564 144.410  0.00  0.00    -0.384 OA
HETATM    2  H   UNK     0     149.898 145.942 144.549  0.00  0.00     0.211 HD
ENDROOT
BRANCH   1   3
HETATM    3  C   UNK     0     149.596 147.552 143.447  0.00  0.00     0.089 C 
HETATM    4  C   UNK     0     150.991 147.157 142.896  0.00  0.00    -0.002 C 
HETATM    5  C   UNK     0     151.851 147.268 144.181  0.00  0.00     0.034 C 
HETATM    6  C   UNK     0     150.906 145.729 142.325  0.00  0.00     0.014 C 
HETATM    7  C   UNK     0     151.506 148.128 141.800  0.00  0.00     0.019 C 
HETATM    8  C   UNK     0     151.302 148.532 144.882  0.00  0.00     0.012 C 
HETATM    9  C   UNK     0     149.915 148.813 144.264  0.00  0.00     0.044 C 
HETATM   10  C   UNK     0     149.858 145.646 141.203  0.00  0.00     0.011 C 
HETATM   11  C   UNK     0     148.459 146.239 141.557  0.00  0.00     0.027 C 
HETATM   12  C   UNK     0     147.513 146.340 140.297  0.00  0.00    -0.023 C 
HETATM   13  C   UNK     0     148.543 147.548 142.359  0.00  0.00    -0.037 C 
HETATM   14  C   UNK     0     146.217 147.116 140.664  0.00  0.00     0.071 C 
HETATM   15  C   UNK     0     147.112 144.934 139.767  0.00  0.00     0.044 C 
HETATM   16  C   UNK     0     148.203 147.086 139.123  0.00  0.00     0.016 C 
HETATM   17  C   UNK     0     145.283 146.340 141.609  0.00  0.00     0.047 C 
HETATM   18  C   UNK     0     146.541 148.468 141.272  0.00  0.00     0.154 C 
HETATM   19  C   UNK     0     144.922 144.967 141.044  0.00  0.00     0.147 C 
HETATM   20  C   UNK     0     146.180 144.165 140.709  0.00  0.00     0.147 C 
HETATM   21  O   UNK     0     145.829 149.452 141.076  0.00  0.00    -0.293 OA
HETATM   22  C   UNK     0     147.698 148.575 142.189  0.00  0.00     0.057 C 
BRANCH   5  23
HETATM   23  C   UNK     0     153.362 147.309 143.987  0.00  0.00     0.084 C 
HETATM   24  C   UNK     0     154.055 147.535 145.342  0.00  0.00     0.049 C 
BRANCH  23  25
HETATM   25  O   UNK     0     153.790 146.033 143.494  0.00  0.00    -0.387 OA
HETATM   26  H   UNK     0     154.601 146.153 142.972  0.00  0.00     0.210 HD
ENDBRANCH  23  25
BRANCH  23  27
HETATM   27  C   UNK     0     153.793 148.394 142.963  0.00  0.00     0.152 C 
BRANCH  27  28
HETATM   28  O   UNK     0     154.656 147.810 141.981  0.00  0.00    -0.393 OA
HETATM   29  H   UNK     0     155.297 147.251 142.454  0.00  0.00     0.210 HD
ENDBRANCH  27  28
BRANCH  27  30
HETATM   30  C   UNK     0     154.518 149.601 143.588  0.00  0.00     0.037 C 
BRANCH  30  31
HETATM   31  C   UNK     0     153.735 150.913 143.386  0.00  0.00     0.040 C 
BRANCH  31  32
HETATM   32  C   UNK     0     153.671 151.818 144.633  0.00  0.00     0.051 C 
HETATM   33  C   UNK     0     152.215 152.212 144.906  0.00  0.00     0.045 C 
HETATM   34  C   UNK     0     154.271 151.152 145.873  0.00  0.00     0.045 C 
BRANCH  32  35
HETATM   35  O   UNK     0     154.405 153.013 144.360  0.00  0.00    -0.391 OA
HETATM   36  H   UNK     0     155.308 152.758 144.111  0.00  0.00     0.210 HD
ENDBRANCH  32  35
ENDBRANCH  31  32
ENDBRANCH  30  31
ENDBRANCH  27  30
ENDBRANCH  23  27
ENDBRANCH   5  23
BRANCH  19  37
HETATM   37  O   UNK     0     144.143 145.138 139.859  0.00  0.00    -0.393 OA
HETATM   38  H   UNK     0     144.758 145.298 139.124  0.00  0.00     0.210 HD
ENDBRANCH  19  37
BRANCH  20  39
HETATM   39  O   UNK     0     145.797 142.933 140.103  0.00  0.00    -0.393 OA
HETATM   40  H   UNK     0     145.770 142.258 140.803  0.00  0.00     0.210 HD
ENDBRANCH  20  39
ENDBRANCH   1   3
TORSDOF 11
ENDMDL
MODEL 3
REMARK VINA RESULT:      -8.8      1.753      2.664
REMARK  11 active torsions:
REMARK  status: ('A' for Active; 'I' for Inactive)
REMARK    1  A    between atoms: O_1  and  C_9 
REMARK    2  A    between atoms: O_2  and  C_19 
REMARK    3  A    between atoms: O_3  and  C_26 
REMARK    4  A    between atoms: O_4  and  C_27 
REMARK    5  A    between atoms: O_6  and  C_28 
REMARK    6  A    between atoms: O_7  and  C_32 
REMARK    7  A    between atoms: C_10  and  C_19 
REMARK    8  A    between atoms: C_19  and  C_27 
REMARK    9  A    between atoms: C_27  and  C_30 
REMARK   10  A    between atoms: C_30  and  C_31 
REMARK   11  A    between atoms: C_31  and  C_32 
ROOT
HETATM    1  O   UNK     0     148.978 150.300 142.273  0.00  0.00    -0.384 OA
HETATM    2  H   UNK     0     148.182 150.783 141.990  0.00  0.00     0.211 HD
ENDROOT
BRANCH   1   3
HETATM    3  C   UNK     0     148.593 149.398 143.336  0.00  0.00     0.089 C 
HETATM    4  C   UNK     0     148.477 147.958 142.773  0.00  0.00    -0.002 C 
HETATM    5  C   UNK     0     147.298 148.130 141.781  0.00  0.00     0.034 C 
HETATM    6  C   UNK     0     149.810 147.587 142.098  0.00  0.00     0.014 C 
HETATM    7  C   UNK     0     148.133 146.908 143.863  0.00  0.00     0.019 C 
HETATM    8  C   UNK     0     146.319 149.061 142.531  0.00  0.00     0.012 C 
HETATM    9  C   UNK     0     147.130 149.741 143.657  0.00  0.00     0.044 C 
HETATM   10  C   UNK     0     150.974 147.665 143.099  0.00  0.00     0.011 C 
HETATM   11  C   UNK     0     151.059 148.991 143.916  0.00  0.00     0.027 C 
HETATM   12  C   UNK     0     152.120 148.911 145.083  0.00  0.00    -0.023 C 
HETATM   13  C   UNK     0     149.687 149.505 144.377  0.00  0.00    -0.037 C 
HETATM   14  C   UNK     0     152.021 150.177 145.980  0.00  0.00     0.071 C 
HETATM   15  C   UNK     0     153.571 148.809 144.533  0.00  0.00     0.044 C 
HETATM   16  C   UNK     0     151.888 147.666 145.981  0.00  0.00     0.016 C 
HETATM   17  C   UNK     0     152.515 151.460 145.290  0.00  0.00     0.047 C 
HETATM   18  C   UNK     0     150.604 150.385 146.480  0.00  0.00     0.154 C 
HETATM   19  C   UNK     0     153.942 151.307 144.766  0.00  0.00     0.147 C 
HETATM   20  C   UNK     0     154.060 150.090 143.848  0.00  0.00     0.147 C 
HETATM   21  O   UNK     0     150.374 150.852 147.594  0.00  0.00    -0.293 OA
HETATM   22  C   UNK     0     149.478 150.094 145.565  0.00  0.00     0.057 C 
BRANCH   5  23
HETATM   23  C   UNK     0     146.633 146.852 141.285  0.00  0.00     0.084 C 
HETATM   24  C   UNK     0     146.199 145.991 142.483  0.00  0.00     0.049 C 
BRANCH  23  25
HETATM   25  O   UNK     0     145.448 147.208 140.561  0.00  0.00    -0.387 OA
HETATM   26  H   UNK     0     145.461 146.764 139.698  0.00  0.00     0.210 HD
ENDBRANCH  23  25
BRANCH  23  27
HETATM   27  C   UNK     0     147.556 146.041 140.333  0.00  0.00     0.152 C 
BRANCH  27  28
HETATM   28  O   UNK     0     146.850 145.735 139.127  0.00  0.00    -0.393 OA
HETATM   29  H   UNK     0     147.476 145.290 138.529  0.00  0.00     0.210 HD
ENDBRANCH  27  28
BRANCH  27  30
HETATM   30  C   UNK     0     148.083 144.724 140.934  0.00  0.00     0.037 C 
BRANCH  30  31
HETATM   31  C   UNK     0     149.610 144.591 140.782  0.00  0.00     0.040 C 
BRANCH  31  32
HETATM   32  C   UNK     0     150.223 143.378 141.513  0.00  0.00     0.051 C 
HETATM   33  C   UNK     0     151.159 143.868 142.624  0.00  0.00     0.045 C 
HETATM   34  C   UNK     0     149.159 142.448 142.100  0.00  0.00     0.045 C 
BRANCH  32  35
HETATM   35  O   UNK     0     151.006 142.637 140.575  0.00  0.00    -0.391 OA
HETATM   36  H   UNK     0     150.425 142.375 139.842  0.00  0.00     0.210 HD
ENDBRANCH  32  35
ENDBRANCH  31  32
ENDBRANCH  30  31
ENDBRANCH  27  30
ENDBRANCH  23  27
ENDBRANCH   5  23
BRANCH  19  37
HETATM   37  O   UNK     0     154.832 151.151 145.873  0.00  0.00    -0.393 OA
HETATM   38  H   UNK     0     154.596 151.820 146.537  0.00  0.00     0.210 HD
ENDBRANCH  19  37
BRANCH  20  39
HETATM   39  O   UNK     0     155.423 149.934 143.458  0.00  0.00    -0.393 OA
HETATM   40  H   UNK     0     155.923 150.675 143.841  0.00  0.00     0.210 HD
ENDBRANCH  20  39
ENDBRANCH   1   3
TORSDOF 11
ENDMDL
MODEL 4
REMARK VINA RESULT:      -8.5      3.479     10.073
REMARK  11 active torsions:
REMARK  status: ('A' for Active; 'I' for Inactive)
REMARK    1  A    between atoms: O_1  and  C_9 
REMARK    2  A    between atoms: O_2  and  C_19 
REMARK    3  A    between atoms: O_3  and  C_26 
REMARK    4  A    between atoms: O_4  and  C_27 
REMARK    5  A    between atoms: O_6  and  C_28 
REMARK    6  A    between atoms: O_7  and  C_32 
REMARK    7  A    between atoms: C_10  and  C_19 
REMARK    8  A    between atoms: C_19  and  C_27 
REMARK    9  A    between atoms: C_27  and  C_30 
REMARK   10  A    between atoms: C_30  and  C_31 
REMARK   11  A    between atoms: C_31  and  C_32 
ROOT
HETATM    1  O   UNK     0     151.176 151.683 143.993  0.00  0.00    -0.384 OA
HETATM    2  H   UNK     0     150.604 150.972 143.655  0.00  0.00     0.211 HD
ENDROOT
BRANCH   1   3
HETATM    3  C   UNK     0     152.237 151.069 144.759  0.00  0.00     0.089 C 
HETATM    4  C   UNK     0     151.847 151.053 146.259  0.00  0.00    -0.002 C 
HETATM    5  C   UNK     0     151.797 152.573 146.561  0.00  0.00     0.034 C 
HETATM    6  C   UNK     0     150.488 150.344 146.405  0.00  0.00     0.014 C 
HETATM    7  C   UNK     0     152.903 150.347 147.152  0.00  0.00     0.019 C 
HETATM    8  C   UNK     0     153.005 153.142 145.781  0.00  0.00     0.012 C 
HETATM    9  C   UNK     0     153.398 152.076 144.735  0.00  0.00     0.044 C 
HETATM   10  C   UNK     0     150.557 148.906 145.868  0.00  0.00     0.011 C 
HETATM   11  C   UNK     0     151.165 148.760 144.438  0.00  0.00     0.027 C 
HETATM   12  C   UNK     0     151.427 147.252 144.047  0.00  0.00    -0.023 C 
HETATM   13  C   UNK     0     152.382 149.668 144.204  0.00  0.00    -0.037 C 
HETATM   14  C   UNK     0     152.210 147.178 142.707  0.00  0.00     0.071 C 
HETATM   15  C   UNK     0     150.096 146.463 143.885  0.00  0.00     0.044 C 
HETATM   16  C   UNK     0     152.260 146.518 145.133  0.00  0.00     0.016 C 
HETATM   17  C   UNK     0     151.379 147.606 141.485  0.00  0.00     0.047 C 
HETATM   18  C   UNK     0     153.481 148.004 142.768  0.00  0.00     0.154 C 
HETATM   19  C   UNK     0     150.084 146.803 141.372  0.00  0.00     0.147 C 
HETATM   20  C   UNK     0     149.273 146.890 142.665  0.00  0.00     0.147 C 
HETATM   21  O   UNK     0     154.506 147.658 142.183  0.00  0.00    -0.293 OA
HETATM   22  C   UNK     0     153.453 149.299 143.484  0.00  0.00     0.057 C 
BRANCH   5  23
HETATM   23  C   UNK     0     151.800 152.976 148.030  0.00  0.00     0.084 C 
HETATM   24  C   UNK     0     151.078 154.323 148.203  0.00  0.00     0.049 C 
BRANCH  23  25
HETATM   25  O   UNK     0     151.061 151.997 148.771  0.00  0.00    -0.387 OA
HETATM   26  H   UNK     0     151.261 151.115 148.414  0.00  0.00     0.210 HD
ENDBRANCH  23  25
BRANCH  23  27
HETATM   27  C   UNK     0     153.236 153.045 148.617  0.00  0.00     0.152 C 
BRANCH  27  28
HETATM   28  O   UNK     0     153.438 151.951 149.519  0.00  0.00    -0.393 OA
HETATM   29  H   UNK     0     153.408 152.311 150.423  0.00  0.00     0.210 HD
ENDBRANCH  27  28
BRANCH  27  30
HETATM   30  C   UNK     0     153.553 154.354 149.366  0.00  0.00     0.037 C 
BRANCH  30  31
HETATM   31  C   UNK     0     154.942 154.318 150.030  0.00  0.00     0.040 C 
BRANCH  31  32
HETATM   32  C   UNK     0     154.917 154.081 151.554  0.00  0.00     0.051 C 
HETATM   33  C   UNK     0     155.874 155.061 152.241  0.00  0.00     0.045 C 
HETATM   34  C   UNK     0     153.513 154.222 152.147  0.00  0.00     0.045 C 
BRANCH  32  35
HETATM   35  O   UNK     0     155.386 152.756 151.810  0.00  0.00    -0.391 OA
HETATM   36  H   UNK     0     154.611 152.180 151.918  0.00  0.00     0.210 HD
ENDBRANCH  32  35
ENDBRANCH  31  32
ENDBRANCH  30  31
ENDBRANCH  27  30
ENDBRANCH  23  27
ENDBRANCH   5  23
BRANCH  19  37
HETATM   37  O   UNK     0     150.402 145.436 141.107  0.00  0.00    -0.393 OA
HETATM   38  H   UNK     0     149.933 144.893 141.763  0.00  0.00     0.210 HD
ENDBRANCH  19  37
BRANCH  20  39
HETATM   39  O   UNK     0     148.123 146.056 142.549  0.00  0.00    -0.393 OA
HETATM   40  H   UNK     0     147.641 146.332 141.750  0.00  0.00     0.210 HD
ENDBRANCH  20  39
ENDBRANCH   1   3
TORSDOF 11
ENDMDL
MODEL 5
REMARK VINA RESULT:      -8.5      1.770      2.943
REMARK  11 active torsions:
REMARK  status: ('A' for Active; 'I' for Inactive)
REMARK    1  A    between atoms: O_1  and  C_9 
REMARK    2  A    between atoms: O_2  and  C_19 
REMARK    3  A    between atoms: O_3  and  C_26 
REMARK    4  A    between atoms: O_4  and  C_27 
REMARK    5  A    between atoms: O_6  and  C_28 
REMARK    6  A    between atoms: O_7  and  C_32 
REMARK    7  A    between atoms: C_10  and  C_19 
REMARK    8  A    between atoms: C_19  and  C_27 
REMARK    9  A    between atoms: C_27  and  C_30 
REMARK   10  A    between atoms: C_30  and  C_31 
REMARK   11  A    between atoms: C_31  and  C_32 
ROOT
HETATM    1  O   UNK     0     149.006 148.140 144.789  0.00  0.00    -0.384 OA
HETATM    2  H   UNK     0     148.229 148.527 144.349  0.00  0.00     0.211 HD
ENDROOT
BRANCH   1   3
HETATM    3  C   UNK     0     149.929 147.713 143.762  0.00  0.00     0.089 C 
HETATM    4  C   UNK     0     149.442 148.232 142.384  0.00  0.00    -0.002 C 
HETATM    5  C   UNK     0     148.106 147.459 142.240  0.00  0.00     0.034 C 
HETATM    6  C   UNK     0     149.272 149.760 142.468  0.00  0.00     0.014 C 
HETATM    7  C   UNK     0     150.414 147.878 141.226  0.00  0.00     0.019 C 
HETATM    8  C   UNK     0     148.434 146.053 142.792  0.00  0.00     0.012 C 
HETATM    9  C   UNK     0     149.725 146.196 143.628  0.00  0.00     0.044 C 
HETATM   10  C   UNK     0     150.597 150.442 142.846  0.00  0.00     0.011 C 
HETATM   11  C   UNK     0     151.319 149.845 144.093  0.00  0.00     0.027 C 
HETATM   12  C   UNK     0     152.775 150.426 144.280  0.00  0.00    -0.023 C 
HETATM   13  C   UNK     0     151.267 148.310 144.143  0.00  0.00    -0.037 C 
HETATM   14  C   UNK     0     153.515 149.656 145.410  0.00  0.00     0.071 C 
HETATM   15  C   UNK     0     152.746 151.936 144.650  0.00  0.00     0.044 C 
HETATM   16  C   UNK     0     153.614 150.295 142.979  0.00  0.00     0.016 C 
HETATM   17  C   UNK     0     152.957 149.940 146.815  0.00  0.00     0.047 C 
HETATM   18  C   UNK     0     153.502 148.161 145.153  0.00  0.00     0.154 C 
HETATM   19  C   UNK     0     152.948 151.436 147.128  0.00  0.00     0.147 C 
HETATM   20  C   UNK     0     152.192 152.215 146.052  0.00  0.00     0.147 C 
HETATM   21  O   UNK     0     154.448 147.442 145.472  0.00  0.00    -0.293 OA
HETATM   22  C   UNK     0     152.282 147.549 144.581  0.00  0.00     0.057 C 
BRANCH   5  23
HETATM   23  C   UNK     0     147.490 147.418 140.847  0.00  0.00     0.084 C 
HETATM   24  C   UNK     0     146.537 148.611 140.662  0.00  0.00     0.049 C 
BRANCH  23  25
HETATM   25  O   UNK     0     148.542 147.557 139.882  0.00  0.00    -0.387 OA
HETATM   26  H   UNK     0     148.188 147.999 139.092  0.00  0.00     0.210 HD
ENDBRANCH  23  25
BRANCH  23  27
HETATM   27  C   UNK     0     146.754 146.079 140.570  0.00  0.00     0.152 C 
BRANCH  27  28
HETATM   28  O   UNK     0     146.909 145.722 139.193  0.00  0.00    -0.393 OA
HETATM   29  H   UNK     0     147.051 144.760 139.156  0.00  0.00     0.210 HD
ENDBRANCH  27  28
BRANCH  27  30
HETATM   30  C   UNK     0     145.248 146.106 140.897  0.00  0.00     0.037 C 
BRANCH  30  31
HETATM   31  C   UNK     0     144.902 145.210 142.101  0.00  0.00     0.040 C 
BRANCH  31  32
HETATM   32  C   UNK     0     144.109 143.936 141.744  0.00  0.00     0.051 C 
HETATM   33  C   UNK     0     142.763 143.948 142.478  0.00  0.00     0.045 C 
HETATM   34  C   UNK     0     143.880 143.790 140.239  0.00  0.00     0.045 C 
BRANCH  32  35
HETATM   35  O   UNK     0     144.849 142.803 142.203  0.00  0.00    -0.391 OA
HETATM   36  H   UNK     0     145.254 142.377 141.429  0.00  0.00     0.210 HD
ENDBRANCH  32  35
ENDBRANCH  31  32
ENDBRANCH  30  31
ENDBRANCH  27  30
ENDBRANCH  23  27
ENDBRANCH   5  23
BRANCH  19  37
HETATM   37  O   UNK     0     154.295 151.908 147.194  0.00  0.00    -0.393 OA
HETATM   38  H   UNK     0     154.341 152.734 146.683  0.00  0.00     0.210 HD
ENDBRANCH  19  37
BRANCH  20  39
HETATM   39  O   UNK     0     152.288 153.609 146.335  0.00  0.00    -0.393 OA
HETATM   40  H   UNK     0     152.051 153.734 147.270  0.00  0.00     0.210 HD
ENDBRANCH  20  39
ENDBRANCH   1   3
TORSDOF 11
ENDMDL
MODEL 6
REMARK VINA RESULT:      -8.4      8.643     12.357
REMARK  11 active torsions:
REMARK  status: ('A' for Active; 'I' for Inactive)
REMARK    1  A    between atoms: O_1  and  C_9 
REMARK    2  A    between atoms: O_2  and  C_19 
REMARK    3  A    between atoms: O_3  and  C_26 
REMARK    4  A    between atoms: O_4  and  C_27 
REMARK    5  A    between atoms: O_6  and  C_28 
REMARK    6  A    between atoms: O_7  and  C_32 
REMARK    7  A    between atoms: C_10  and  C_19 
REMARK    8  A    between atoms: C_19  and  C_27 
REMARK    9  A    between atoms: C_27  and  C_30 
REMARK   10  A    between atoms: C_30  and  C_31 
REMARK   11  A    between atoms: C_31  and  C_32 
ROOT
HETATM    1  O   UNK     0     148.533 153.970 149.714  0.00  0.00    -0.384 OA
HETATM    2  H   UNK     0     149.028 153.159 149.923  0.00  0.00     0.211 HD
ENDROOT
BRANCH   1   3
HETATM    3  C   UNK     0     149.239 154.658 148.656  0.00  0.00     0.089 C 
HETATM    4  C   UNK     0     149.001 156.184 148.785  0.00  0.00    -0.002 C 
HETATM    5  C   UNK     0     147.474 156.261 148.530  0.00  0.00     0.034 C 
HETATM    6  C   UNK     0     149.419 156.628 150.199  0.00  0.00     0.014 C 
HETATM    7  C   UNK     0     149.780 157.011 147.727  0.00  0.00     0.019 C 
HETATM    8  C   UNK     0     147.240 155.240 147.393  0.00  0.00     0.012 C 
HETATM    9  C   UNK     0     148.479 154.318 147.365  0.00  0.00     0.044 C 
HETATM   10  C   UNK     0     150.899 156.306 150.463  0.00  0.00     0.011 C 
HETATM   11  C   UNK     0     151.327 154.841 150.137  0.00  0.00     0.027 C 
HETATM   12  C   UNK     0     152.892 154.645 150.200  0.00  0.00    -0.023 C 
HETATM   13  C   UNK     0     150.699 154.302 148.842  0.00  0.00    -0.037 C 
HETATM   14  C   UNK     0     153.273 153.231 149.676  0.00  0.00     0.071 C 
HETATM   15  C   UNK     0     153.431 154.795 151.651  0.00  0.00     0.044 C 
HETATM   16  C   UNK     0     153.635 155.696 149.330  0.00  0.00     0.016 C 
HETATM   17  C   UNK     0     152.847 152.092 150.618  0.00  0.00     0.047 C 
HETATM   18  C   UNK     0     152.700 152.986 148.294  0.00  0.00     0.154 C 
HETATM   19  C   UNK     0     153.400 152.287 152.029  0.00  0.00     0.147 C 
HETATM   20  C   UNK     0     153.007 153.656 152.585  0.00  0.00     0.147 C 
HETATM   21  O   UNK     0     153.301 152.317 147.454  0.00  0.00    -0.293 OA
HETATM   22  C   UNK     0     151.346 153.499 147.985  0.00  0.00     0.057 C 
BRANCH   5  23
HETATM   23  C   UNK     0     146.904 157.638 148.212  0.00  0.00     0.084 C 
HETATM   24  C   UNK     0     147.894 158.421 147.333  0.00  0.00     0.049 C 
BRANCH  23  25
HETATM   25  O   UNK     0     145.700 157.467 147.453  0.00  0.00    -0.387 OA
HETATM   26  H   UNK     0     144.937 157.626 148.033  0.00  0.00     0.210 HD
ENDBRANCH  23  25
BRANCH  23  27
HETATM   27  C   UNK     0     146.558 158.440 149.496  0.00  0.00     0.152 C 
BRANCH  27  28
HETATM   28  O   UNK     0     145.209 158.913 149.416  0.00  0.00    -0.393 OA
HETATM   29  H   UNK     0     144.865 158.665 148.540  0.00  0.00     0.210 HD
ENDBRANCH  27  28
BRANCH  27  30
HETATM   30  C   UNK     0     147.479 159.647 149.756  0.00  0.00     0.037 C 
BRANCH  30  31
HETATM   31  C   UNK     0     148.075 159.623 151.176  0.00  0.00     0.040 C 
BRANCH  31  32
HETATM   32  C   UNK     0     149.158 160.692 151.434  0.00  0.00     0.051 C 
HETATM   33  C   UNK     0     150.439 160.014 151.933  0.00  0.00     0.045 C 
HETATM   34  C   UNK     0     149.463 161.530 150.190  0.00  0.00     0.045 C 
BRANCH  32  35
HETATM   35  O   UNK     0     148.693 161.564 152.465  0.00  0.00    -0.391 OA
HETATM   36  H   UNK     0     149.045 161.241 153.312  0.00  0.00     0.210 HD
ENDBRANCH  32  35
ENDBRANCH  31  32
ENDBRANCH  30  31
ENDBRANCH  27  30
ENDBRANCH  23  27
ENDBRANCH   5  23
BRANCH  19  37
HETATM   37  O   UNK     0     154.824 152.185 151.992  0.00  0.00    -0.393 OA
HETATM   38  H   UNK     0     155.047 151.251 151.839  0.00  0.00     0.210 HD
ENDBRANCH  19  37
BRANCH  20  39
HETATM   39  O   UNK     0     153.618 153.831 153.861  0.00  0.00    -0.393 OA
HETATM   40  H   UNK     0     153.030 154.397 154.392  0.00  0.00     0.210 HD
ENDBRANCH  20  39
ENDBRANCH   1   3
TORSDOF 11
ENDMDL
MODEL 7
REMARK VINA RESULT:      -8.4      8.122     11.121
REMARK  11 active torsions:
REMARK  status: ('A' for Active; 'I' for Inactive)
REMARK    1  A    between atoms: O_1  and  C_9 
REMARK    2  A    between atoms: O_2  and  C_19 
REMARK    3  A    between atoms: O_3  and  C_26 
REMARK    4  A    between atoms: O_4  and  C_27 
REMARK    5  A    between atoms: O_6  and  C_28 
REMARK    6  A    between atoms: O_7  and  C_32 
REMARK    7  A    between atoms: C_10  and  C_19 
REMARK    8  A    between atoms: C_19  and  C_27 
REMARK    9  A    between atoms: C_27  and  C_30 
REMARK   10  A    between atoms: C_30  and  C_31 
REMARK   11  A    between atoms: C_31  and  C_32 
ROOT
HETATM    1  O   UNK     0     151.877 153.058 148.620  0.00  0.00    -0.384 OA
HETATM    2  H   UNK     0     151.244 152.472 148.171  0.00  0.00     0.211 HD
ENDROOT
BRANCH   1   3
HETATM    3  C   UNK     0     151.609 154.412 148.187  0.00  0.00     0.089 C 
HETATM    4  C   UNK     0     150.135 154.771 148.504  0.00  0.00    -0.002 C 
HETATM    5  C   UNK     0     149.389 153.771 147.584  0.00  0.00     0.034 C 
HETATM    6  C   UNK     0     149.886 154.541 150.005  0.00  0.00     0.014 C 
HETATM    7  C   UNK     0     149.776 156.236 148.133  0.00  0.00     0.019 C 
HETATM    8  C   UNK     0     150.229 153.769 146.286  0.00  0.00     0.012 C 
HETATM    9  C   UNK     0     151.608 154.360 146.651  0.00  0.00     0.044 C 
HETATM   10  C   UNK     0     150.830 155.404 150.859  0.00  0.00     0.011 C 
HETATM   11  C   UNK     0     152.339 155.314 150.475  0.00  0.00     0.027 C 
HETATM   12  C   UNK     0     153.215 156.395 151.223  0.00  0.00    -0.023 C 
HETATM   13  C   UNK     0     152.576 155.285 148.958  0.00  0.00    -0.037 C 
HETATM   14  C   UNK     0     154.663 156.391 150.658  0.00  0.00     0.071 C 
HETATM   15  C   UNK     0     153.281 156.120 152.752  0.00  0.00     0.044 C 
HETATM   16  C   UNK     0     152.633 157.824 151.044  0.00  0.00     0.016 C 
HETATM   17  C   UNK     0     155.464 155.130 151.029  0.00  0.00     0.047 C 
HETATM   18  C   UNK     0     154.664 156.565 149.151  0.00  0.00     0.154 C 
HETATM   19  C   UNK     0     155.497 154.905 152.539  0.00  0.00     0.147 C 
HETATM   20  C   UNK     0     154.082 154.866 153.118  0.00  0.00     0.147 C 
HETATM   21  O   UNK     0     155.555 157.186 148.573  0.00  0.00    -0.293 OA
HETATM   22  C   UNK     0     153.608 155.898 148.358  0.00  0.00     0.057 C 
BRANCH   5  23
HETATM   23  C   UNK     0     147.912 154.048 147.331  0.00  0.00     0.084 C 
HETATM   24  C   UNK     0     147.760 155.033 146.159  0.00  0.00     0.049 C 
BRANCH  23  25
HETATM   25  O   UNK     0     147.280 152.821 146.944  0.00  0.00    -0.387 OA
HETATM   26  H   UNK     0     147.063 152.313 147.743  0.00  0.00     0.210 HD
ENDBRANCH  23  25
BRANCH  23  27
HETATM   27  C   UNK     0     147.191 154.586 148.597  0.00  0.00     0.152 C 
BRANCH  27  28
HETATM   28  O   UNK     0     146.583 153.499 149.301  0.00  0.00    -0.393 OA
HETATM   29  H   UNK     0     147.059 152.687 149.049  0.00  0.00     0.210 HD
ENDBRANCH  27  28
BRANCH  27  30
HETATM   30  C   UNK     0     146.107 155.642 148.306  0.00  0.00     0.037 C 
BRANCH  30  31
HETATM   31  C   UNK     0     145.830 156.537 149.529  0.00  0.00     0.040 C 
BRANCH  31  32
HETATM   32  C   UNK     0     146.294 158.000 149.369  0.00  0.00     0.051 C 
HETATM   33  C   UNK     0     147.238 158.367 150.520  0.00  0.00     0.045 C 
HETATM   34  C   UNK     0     146.986 158.252 148.028  0.00  0.00     0.045 C 
BRANCH  32  35
HETATM   35  O   UNK     0     145.147 158.847 149.455  0.00  0.00    -0.391 OA
HETATM   36  H   UNK     0     144.504 158.421 150.046  0.00  0.00     0.210 HD
ENDBRANCH  32  35
ENDBRANCH  31  32
ENDBRANCH  30  31
ENDBRANCH  27  30
ENDBRANCH  23  27
ENDBRANCH   5  23
BRANCH  19  37
HETATM   37  O   UNK     0     156.228 155.967 153.155  0.00  0.00    -0.393 OA
HETATM   38  H   UNK     0     156.102 156.763 152.612  0.00  0.00     0.210 HD
ENDBRANCH  19  37
BRANCH  20  39
HETATM   39  O   UNK     0     154.163 154.746 154.536  0.00  0.00    -0.393 OA
HETATM   40  H   UNK     0     154.808 154.045 154.734  0.00  0.00     0.210 HD
ENDBRANCH  20  39
ENDBRANCH   1   3
TORSDOF 11
ENDMDL
MODEL 8
REMARK VINA RESULT:      -8.4      2.392      4.448
REMARK  11 active torsions:
REMARK  status: ('A' for Active; 'I' for Inactive)
REMARK    1  A    between atoms: O_1  and  C_9 
REMARK    2  A    between atoms: O_2  and  C_19 
REMARK    3  A    between atoms: O_3  and  C_26 
REMARK    4  A    between atoms: O_4  and  C_27 
REMARK    5  A    between atoms: O_6  and  C_28 
REMARK    6  A    between atoms: O_7  and  C_32 
REMARK    7  A    between atoms: C_10  and  C_19 
REMARK    8  A    between atoms: C_19  and  C_27 
REMARK    9  A    between atoms: C_27  and  C_30 
REMARK   10  A    between atoms: C_30  and  C_31 
REMARK   11  A    between atoms: C_31  and  C_32 
ROOT
HETATM    1  O   UNK     0     151.383 146.605 145.402  0.00  0.00    -0.384 OA
HETATM    2  H   UNK     0     152.122 146.548 146.032  0.00  0.00     0.211 HD
ENDROOT
BRANCH   1   3
HETATM    3  C   UNK     0     151.934 146.922 144.103  0.00  0.00     0.089 C 
HETATM    4  C   UNK     0     150.996 146.370 142.998  0.00  0.00    -0.002 C 
HETATM    5  C   UNK     0     151.111 144.846 143.256  0.00  0.00     0.034 C 
HETATM    6  C   UNK     0     149.583 146.936 143.227  0.00  0.00     0.014 C 
HETATM    7  C   UNK     0     151.475 146.726 141.565  0.00  0.00     0.019 C 
HETATM    8  C   UNK     0     152.608 144.640 143.582  0.00  0.00     0.012 C 
HETATM    9  C   UNK     0     153.174 146.028 143.952  0.00  0.00     0.044 C 
HETATM   10  C   UNK     0     149.591 148.473 143.187  0.00  0.00     0.011 C 
HETATM   11  C   UNK     0     150.668 149.154 144.087  0.00  0.00     0.027 C 
HETATM   12  C   UNK     0     150.782 150.706 143.818  0.00  0.00    -0.023 C 
HETATM   13  C   UNK     0     152.024 148.432 144.057  0.00  0.00    -0.037 C 
HETATM   14  C   UNK     0     151.997 151.293 144.590  0.00  0.00     0.071 C 
HETATM   15  C   UNK     0     149.499 151.462 144.268  0.00  0.00     0.044 C 
HETATM   16  C   UNK     0     150.980 151.011 142.308  0.00  0.00     0.016 C 
HETATM   17  C   UNK     0     151.798 151.324 146.116  0.00  0.00     0.047 C 
HETATM   18  C   UNK     0     153.271 150.539 144.262  0.00  0.00     0.154 C 
HETATM   19  C   UNK     0     150.525 152.075 146.505  0.00  0.00     0.147 C 
HETATM   20  C   UNK     0     149.306 151.493 145.788  0.00  0.00     0.147 C 
HETATM   21  O   UNK     0     154.362 151.106 144.207  0.00  0.00    -0.293 OA
HETATM   22  C   UNK     0     153.204 149.071 144.088  0.00  0.00     0.057 C 
BRANCH   5  23
HETATM   23  C   UNK     0     150.617 143.928 142.144  0.00  0.00     0.084 C 
HETATM   24  C   UNK     0     150.959 144.538 140.774  0.00  0.00     0.049 C 
BRANCH  23  25
HETATM   25  O   UNK     0     151.315 142.680 142.244  0.00  0.00    -0.387 OA
HETATM   26  H   UNK     0     152.190 142.839 142.633  0.00  0.00     0.210 HD
ENDBRANCH  23  25
BRANCH  23  27
HETATM   27  C   UNK     0     149.094 143.642 142.252  0.00  0.00     0.152 C 
BRANCH  27  28
HETATM   28  O   UNK     0     148.885 142.246 142.493  0.00  0.00    -0.393 OA
HETATM   29  H   UNK     0     149.738 141.868 142.769  0.00  0.00     0.210 HD
ENDBRANCH  27  28
BRANCH  27  30
HETATM   30  C   UNK     0     148.285 144.045 141.005  0.00  0.00     0.037 C 
BRANCH  30  31
HETATM   31  C   UNK     0     147.262 145.155 141.314  0.00  0.00     0.040 C 
BRANCH  31  32
HETATM   32  C   UNK     0     147.001 146.128 140.146  0.00  0.00     0.051 C 
HETATM   33  C   UNK     0     146.099 147.271 140.623  0.00  0.00     0.045 C 
HETATM   34  C   UNK     0     148.293 146.696 139.555  0.00  0.00     0.045 C 
BRANCH  32  35
HETATM   35  O   UNK     0     146.305 145.420 139.118  0.00  0.00    -0.391 OA
HETATM   36  H   UNK     0     145.537 145.954 138.855  0.00  0.00     0.210 HD
ENDBRANCH  32  35
ENDBRANCH  31  32
ENDBRANCH  30  31
ENDBRANCH  27  30
ENDBRANCH  23  27
ENDBRANCH   5  23
BRANCH  19  37
HETATM   37  O   UNK     0     150.667 153.452 146.151  0.00  0.00    -0.393 OA
HETATM   38  H   UNK     0     150.876 153.491 145.203  0.00  0.00     0.210 HD
ENDBRANCH  19  37
BRANCH  20  39
HETATM   39  O   UNK     0     148.161 152.278 146.109  0.00  0.00    -0.393 OA
HETATM   40  H   UNK     0     148.298 152.646 146.999  0.00  0.00     0.210 HD
ENDBRANCH  20  39
ENDBRANCH   1   3
TORSDOF 11
ENDMDL
MODEL 9
REMARK VINA RESULT:      -8.4      4.800     10.855
REMARK  11 active torsions:
REMARK  status: ('A' for Active; 'I' for Inactive)
REMARK    1  A    between atoms: O_1  and  C_9 
REMARK    2  A    between atoms: O_2  and  C_19 
REMARK    3  A    between atoms: O_3  and  C_26 
REMARK    4  A    between atoms: O_4  and  C_27 
REMARK    5  A    between atoms: O_6  and  C_28 
REMARK    6  A    between atoms: O_7  and  C_32 
REMARK    7  A    between atoms: C_10  and  C_19 
REMARK    8  A    between atoms: C_19  and  C_27 
REMARK    9  A    between atoms: C_27  and  C_30 
REMARK   10  A    between atoms: C_30  and  C_31 
REMARK   11  A    between atoms: C_31  and  C_32 
ROOT
HETATM    1  O   UNK     0     150.315 150.905 147.549  0.00  0.00    -0.384 OA
HETATM    2  H   UNK     0     151.012 150.364 147.959  0.00  0.00     0.211 HD
ENDROOT
BRANCH   1   3
HETATM    3  C   UNK     0     150.956 151.983 146.831  0.00  0.00     0.089 C 
HETATM    4  C   UNK     0     152.158 152.510 147.658  0.00  0.00    -0.002 C 
HETATM    5  C   UNK     0     151.426 153.074 148.902  0.00  0.00     0.034 C 
HETATM    6  C   UNK     0     153.095 151.328 147.968  0.00  0.00     0.014 C 
HETATM    7  C   UNK     0     152.950 153.628 146.928  0.00  0.00     0.019 C 
HETATM    8  C   UNK     0     150.163 153.744 148.314  0.00  0.00     0.012 C 
HETATM    9  C   UNK     0     149.974 153.163 146.896  0.00  0.00     0.044 C 
HETATM   10  C   UNK     0     153.599 150.670 146.673  0.00  0.00     0.011 C 
HETATM   11  C   UNK     0     152.490 150.306 145.638  0.00  0.00     0.027 C 
HETATM   12  C   UNK     0     153.089 149.861 144.247  0.00  0.00    -0.023 C 
HETATM   13  C   UNK     0     151.403 151.385 145.514  0.00  0.00    -0.037 C 
HETATM   14  C   UNK     0     151.949 149.704 143.202  0.00  0.00     0.071 C 
HETATM   15  C   UNK     0     153.847 148.507 144.356  0.00  0.00     0.044 C 
HETATM   16  C   UNK     0     154.102 150.904 143.701  0.00  0.00     0.016 C 
HETATM   17  C   UNK     0     151.032 148.498 143.469  0.00  0.00     0.047 C 
HETATM   18  C   UNK     0     151.112 150.965 143.110  0.00  0.00     0.154 C 
HETATM   19  C   UNK     0     151.824 147.196 143.570  0.00  0.00     0.147 C 
HETATM   20  C   UNK     0     152.930 147.308 144.620  0.00  0.00     0.147 C 
HETATM   21  O   UNK     0     150.620 151.339 142.046  0.00  0.00    -0.293 OA
HETATM   22  C   UNK     0     150.816 151.713 144.353  0.00  0.00     0.057 C 
BRANCH   5  23
HETATM   23  C   UNK     0     152.229 154.011 149.797  0.00  0.00     0.084 C 
HETATM   24  C   UNK     0     152.103 155.455 149.286  0.00  0.00     0.049 C 
BRANCH  23  25
HETATM   25  O   UNK     0     151.665 153.972 151.115  0.00  0.00    -0.387 OA
HETATM   26  H   UNK     0     150.725 154.215 151.062  0.00  0.00     0.210 HD
ENDBRANCH  23  25
BRANCH  23  27
HETATM   27  C   UNK     0     153.721 153.592 149.897  0.00  0.00     0.152 C 
BRANCH  27  28
HETATM   28  O   UNK     0     153.912 152.771 151.054  0.00  0.00    -0.393 OA
HETATM   29  H   UNK     0     153.160 152.154 151.100  0.00  0.00     0.210 HD
ENDBRANCH  27  28
BRANCH  27  30
HETATM   30  C   UNK     0     154.706 154.774 149.974  0.00  0.00     0.037 C 
BRANCH  30  31
HETATM   31  C   UNK     0     155.258 154.974 151.398  0.00  0.00     0.040 C 
BRANCH  31  32
HETATM   32  C   UNK     0     154.945 156.353 152.017  0.00  0.00     0.051 C 
HETATM   33  C   UNK     0     154.843 157.402 150.905  0.00  0.00     0.045 C 
HETATM   34  C   UNK     0     153.660 156.346 152.847  0.00  0.00     0.045 C 
BRANCH  32  35
HETATM   35  O   UNK     0     156.033 156.721 152.868  0.00  0.00    -0.391 OA
HETATM   36  H   UNK     0     156.837 156.294 152.526  0.00  0.00     0.210 HD
ENDBRANCH  32  35
ENDBRANCH  31  32
ENDBRANCH  30  31
ENDBRANCH  27  30
ENDBRANCH  23  27
ENDBRANCH   5  23
BRANCH  19  37
HETATM   37  O   UNK     0     152.409 146.904 142.300  0.00  0.00    -0.393 OA
HETATM   38  H   UNK     0     152.255 147.671 141.722  0.00  0.00     0.210 HD
ENDBRANCH  19  37
BRANCH  20  39
HETATM   39  O   UNK     0     153.699 146.107 144.615  0.00  0.00    -0.393 OA
HETATM   40  H   UNK     0     153.390 145.566 143.869  0.00  0.00     0.210 HD
ENDBRANCH  20  39
ENDBRANCH   1   3
TORSDOF 11
ENDMDL
MODEL 10
REMARK VINA RESULT:      -8.3      5.154      8.780
REMARK  11 active torsions:
REMARK  status: ('A' for Active; 'I' for Inactive)
REMARK    1  A    between atoms: O_1  and  C_9 
REMARK    2  A    between atoms: O_2  and  C_19 
REMARK    3  A    between atoms: O_3  and  C_26 
REMARK    4  A    between atoms: O_4  and  C_27 
REMARK    5  A    between atoms: O_6  and  C_28 
REMARK    6  A    between atoms: O_7  and  C_32 
REMARK    7  A    between atoms: C_10  and  C_19 
REMARK    8  A    between atoms: C_19  and  C_27 
REMARK    9  A    between atoms: C_27  and  C_30 
REMARK   10  A    between atoms: C_30  and  C_31 
REMARK   11  A    between atoms: C_31  and  C_32 
ROOT
HETATM    1  O   UNK     0     154.010 152.317 147.757  0.00  0.00    -0.384 OA
HETATM    2  H   UNK     0     154.262 151.773 146.991  0.00  0.00     0.211 HD
ENDROOT
BRANCH   1   3
HETATM    3  C   UNK     0     153.066 153.312 147.301  0.00  0.00     0.089 C 
HETATM    4  C   UNK     0     151.651 152.682 147.225  0.00  0.00    -0.002 C 
HETATM    5  C   UNK     0     151.867 151.620 146.116  0.00  0.00     0.034 C 
HETATM    6  C   UNK     0     151.305 152.085 148.601  0.00  0.00     0.014 C 
HETATM    7  C   UNK     0     150.556 153.701 146.808  0.00  0.00     0.019 C 
HETATM    8  C   UNK     0     152.768 152.340 145.087  0.00  0.00     0.012 C 
HETATM    9  C   UNK     0     153.397 153.546 145.819  0.00  0.00     0.044 C 
HETATM   10  C   UNK     0     151.338 153.165 149.694  0.00  0.00     0.011 C 
HETATM   11  C   UNK     0     152.629 154.041 149.722  0.00  0.00     0.027 C 
HETATM   12  C   UNK     0     152.498 155.274 150.700  0.00  0.00    -0.023 C 
HETATM   13  C   UNK     0     153.126 154.429 148.321  0.00  0.00    -0.037 C 
HETATM   14  C   UNK     0     153.725 156.215 150.539  0.00  0.00     0.071 C 
HETATM   15  C   UNK     0     152.416 154.821 152.186  0.00  0.00     0.044 C 
HETATM   16  C   UNK     0     151.216 156.101 150.408  0.00  0.00     0.016 C 
HETATM   17  C   UNK     0     155.035 155.615 151.078  0.00  0.00     0.047 C 
HETATM   18  C   UNK     0     153.915 156.625 149.091  0.00  0.00     0.154 C 
HETATM   19  C   UNK     0     154.901 155.185 152.538  0.00  0.00     0.147 C 
HETATM   20  C   UNK     0     153.724 154.226 152.720  0.00  0.00     0.147 C 
HETATM   21  O   UNK     0     154.335 157.740 148.784  0.00  0.00    -0.293 OA
HETATM   22  C   UNK     0     153.665 155.623 148.030  0.00  0.00     0.057 C 
BRANCH   5  23
HETATM   23  C   UNK     0     150.612 151.026 145.489  0.00  0.00     0.084 C 
HETATM   24  C   UNK     0     150.117 149.840 146.334  0.00  0.00     0.049 C 
BRANCH  23  25
HETATM   25  O   UNK     0     149.582 152.023 145.505  0.00  0.00    -0.387 OA
HETATM   26  H   UNK     0     149.995 152.902 145.528  0.00  0.00     0.210 HD
ENDBRANCH  23  25
BRANCH  23  27
HETATM   27  C   UNK     0     150.841 150.591 144.016  0.00  0.00     0.152 C 
BRANCH  27  28
HETATM   28  O   UNK     0     149.601 150.635 143.303  0.00  0.00    -0.393 OA
HETATM   29  H   UNK     0     148.915 150.270 143.890  0.00  0.00     0.210 HD
ENDBRANCH  27  28
BRANCH  27  30
HETATM   30  C   UNK     0     151.439 149.179 143.859  0.00  0.00     0.037 C 
BRANCH  30  31
HETATM   31  C   UNK     0     152.763 149.197 143.072  0.00  0.00     0.040 C 
BRANCH  31  32
HETATM   32  C   UNK     0     153.945 148.516 143.792  0.00  0.00     0.051 C 
HETATM   33  C   UNK     0     153.719 148.565 145.307  0.00  0.00     0.045 C 
HETATM   34  C   UNK     0     154.150 147.068 143.342  0.00  0.00     0.045 C 
BRANCH  32  35
HETATM   35  O   UNK     0     155.134 149.253 143.502  0.00  0.00    -0.391 OA
HETATM   36  H   UNK     0     154.912 149.931 142.841  0.00  0.00     0.210 HD
ENDBRANCH  32  35
ENDBRANCH  31  32
ENDBRANCH  30  31
ENDBRANCH  27  30
ENDBRANCH  23  27
ENDBRANCH   5  23
BRANCH  19  37
HETATM   37  O   UNK     0     154.696 156.342 153.350  0.00  0.00    -0.393 OA
HETATM   38  H   UNK     0     153.827 156.251 153.776  0.00  0.00     0.210 HD
ENDBRANCH  19  37
BRANCH  20  39
HETATM   39  O   UNK     0     153.581 153.924 154.106  0.00  0.00    -0.393 OA
HETATM   40  H   UNK     0     154.172 154.520 154.597  0.00  0.00     0.210 HD
ENDBRANCH  20  39
ENDBRANCH   1   3
TORSDOF 11
ENDMDL
