MODEL 1
REMARK VINA RESULT:      -6.2      0.000      0.000
REMARK  11 active torsions:
REMARK  status: ('A' for Active; 'I' for Inactive)
REMARK    1  A    between atoms: O_1  and  C_9 
REMARK    2  A    between atoms: O_2  and  C_19 
REMARK    3  A    between atoms: O_3  and  C_26 
REMARK    4  A    between atoms: O_4  and  C_27 
REMARK    5  A    between atoms: O_6  and  C_28 
REMARK    6  A    between atoms: O_7  and  C_32 
REMARK    7  A    between atoms: C_10  and  C_19 
REMARK    8  A    between atoms: C_19  and  C_27 
REMARK    9  A    between atoms: C_27  and  C_30 
REMARK   10  A    between atoms: C_30  and  C_31 
REMARK   11  A    between atoms: C_31  and  C_32 
ROOT
HETATM    1  O   UNK     0      -0.861   0.086   0.464  0.00  0.00    -0.384 OA
HETATM    2  H   UNK     0      -0.330   0.337  -0.312  0.00  0.00     0.211 HD
ENDROOT
BRANCH   1   3
HETATM    3  C   UNK     0      -0.016  -0.685   1.348  0.00  0.00     0.089 C 
HETATM    4  C   UNK     0       0.295  -2.057   0.697  0.00  0.00    -0.002 C 
HETATM    5  C   UNK     0      -1.123  -2.684   0.653  0.00  0.00     0.034 C 
HETATM    6  C   UNK     0       0.912  -1.813  -0.691  0.00  0.00     0.014 C 
HETATM    7  C   UNK     0       1.257  -2.928   1.551  0.00  0.00     0.019 C 
HETATM    8  C   UNK     0      -1.753  -2.263   2.000  0.00  0.00     0.012 C 
HETATM    9  C   UNK     0      -0.912  -1.081   2.532  0.00  0.00     0.044 C 
HETATM   10  C   UNK     0       2.201  -0.982  -0.583  0.00  0.00     0.011 C 
HETATM   11  C   UNK     0       2.079   0.324   0.262  0.00  0.00     0.027 C 
HETATM   12  C   UNK     0       3.481   0.998   0.532  0.00  0.00    -0.023 C 
HETATM   13  C   UNK     0       1.238   0.142   1.535  0.00  0.00    -0.037 C 
HETATM   14  C   UNK     0       3.323   2.173   1.538  0.00  0.00     0.071 C 
HETATM   15  C   UNK     0       4.112   1.552  -0.778  0.00  0.00     0.044 C 
HETATM   16  C   UNK     0       4.496  -0.014   1.131  0.00  0.00     0.016 C 
HETATM   17  C   UNK     0       2.578   3.386   0.953  0.00  0.00     0.047 C 
HETATM   18  C   UNK     0       2.630   1.718   2.808  0.00  0.00     0.154 C 
HETATM   19  C   UNK     0       3.235   3.889  -0.331  0.00  0.00     0.147 C 
HETATM   20  C   UNK     0       3.369   2.761  -1.355  0.00  0.00     0.147 C 
HETATM   21  O   UNK     0       2.919   2.190   3.906  0.00  0.00    -0.293 OA
HETATM   22  C   UNK     0       1.523   0.741   2.702  0.00  0.00     0.057 C 
BRANCH   5  23
HETATM   23  C   UNK     0      -1.196  -4.186   0.411  0.00  0.00     0.084 C 
HETATM   24  C   UNK     0      -0.410  -4.929   1.504  0.00  0.00     0.049 C 
BRANCH  23  25
HETATM   25  O   UNK     0      -2.566  -4.596   0.515  0.00  0.00    -0.387 OA
HETATM   26  H   UNK     0      -3.116  -3.814   0.686  0.00  0.00     0.210 HD
ENDBRANCH  23  25
BRANCH  23  27
HETATM   27  C   UNK     0      -0.679  -4.580  -1.000  0.00  0.00     0.152 C 
BRANCH  27  28
HETATM   28  O   UNK     0      -1.696  -4.320  -1.973  0.00  0.00    -0.393 OA
HETATM   29  H   UNK     0      -1.324  -3.700  -2.624  0.00  0.00     0.210 HD
ENDBRANCH  27  28
BRANCH  27  30
HETATM   30  C   UNK     0      -0.251  -6.054  -1.128  0.00  0.00     0.037 C 
BRANCH  30  31
HETATM   31  C   UNK     0      -1.462  -7.000  -1.231  0.00  0.00     0.040 C 
BRANCH  31  32
HETATM   32  C   UNK     0      -1.650  -7.650  -2.618  0.00  0.00     0.051 C 
HETATM   33  C   UNK     0      -0.338  -7.565  -3.406  0.00  0.00     0.045 C 
HETATM   34  C   UNK     0      -2.111  -9.106  -2.527  0.00  0.00     0.045 C 
BRANCH  32  35
HETATM   35  O   UNK     0      -2.639  -6.905  -3.332  0.00  0.00    -0.391 OA
HETATM   36  H   UNK     0      -2.289  -6.717  -4.219  0.00  0.00     0.210 HD
ENDBRANCH  32  35
ENDBRANCH  31  32
ENDBRANCH  30  31
ENDBRANCH  27  30
ENDBRANCH  23  27
ENDBRANCH   5  23
BRANCH  19  37
HETATM   37  O   UNK     0       4.533   4.401  -0.023  0.00  0.00    -0.393 OA
HETATM   38  H   UNK     0       5.027   3.696   0.427  0.00  0.00     0.210 HD
ENDBRANCH  19  37
BRANCH  20  39
HETATM   39  O   UNK     0       4.067   3.252  -2.497  0.00  0.00    -0.393 OA
HETATM   40  H   UNK     0       4.269   4.189  -2.335  0.00  0.00     0.210 HD
ENDBRANCH  20  39
ENDBRANCH   1   3
TORSDOF 11
ENDMDL
MODEL 2
REMARK VINA RESULT:      -5.7      1.965      3.819
REMARK  11 active torsions:
REMARK  status: ('A' for Active; 'I' for Inactive)
REMARK    1  A    between atoms: O_1  and  C_9 
REMARK    2  A    between atoms: O_2  and  C_19 
REMARK    3  A    between atoms: O_3  and  C_26 
REMARK    4  A    between atoms: O_4  and  C_27 
REMARK    5  A    between atoms: O_6  and  C_28 
REMARK    6  A    between atoms: O_7  and  C_32 
REMARK    7  A    between atoms: C_10  and  C_19 
REMARK    8  A    between atoms: C_19  and  C_27 
REMARK    9  A    between atoms: C_27  and  C_30 
REMARK   10  A    between atoms: C_30  and  C_31 
REMARK   11  A    between atoms: C_31  and  C_32 
ROOT
HETATM    1  O   UNK     0       2.523  -2.304   0.987  0.00  0.00    -0.384 OA
HETATM    2  H   UNK     0       2.274  -3.126   1.444  0.00  0.00     0.211 HD
ENDROOT
BRANCH   1   3
HETATM    3  C   UNK     0       1.325  -1.512   0.818  0.00  0.00     0.089 C 
HETATM    4  C   UNK     0       0.096  -2.329   1.295  0.00  0.00    -0.002 C 
HETATM    5  C   UNK     0       0.104  -3.490   0.269  0.00  0.00     0.034 C 
HETATM    6  C   UNK     0       0.341  -2.778   2.747  0.00  0.00     0.014 C 
HETATM    7  C   UNK     0      -1.232  -1.528   1.213  0.00  0.00     0.019 C 
HETATM    8  C   UNK     0       0.470  -2.799  -1.065  0.00  0.00     0.012 C 
HETATM    9  C   UNK     0       1.094  -1.435  -0.699  0.00  0.00     0.044 C 
HETATM   10  C   UNK     0       0.555  -1.568   3.670  0.00  0.00     0.011 C 
HETATM   11  C   UNK     0       1.611  -0.532   3.172  0.00  0.00     0.027 C 
HETATM   12  C   UNK     0       1.608   0.791   4.034  0.00  0.00    -0.023 C 
HETATM   13  C   UNK     0       1.534  -0.271   1.660  0.00  0.00    -0.037 C 
HETATM   14  C   UNK     0       2.530   1.856   3.377  0.00  0.00     0.071 C 
HETATM   15  C   UNK     0       2.110   0.531   5.483  0.00  0.00     0.044 C 
HETATM   16  C   UNK     0       0.182   1.394   4.150  0.00  0.00     0.016 C 
HETATM   17  C   UNK     0       4.027   1.512   3.464  0.00  0.00     0.047 C 
HETATM   18  C   UNK     0       2.149   2.092   1.928  0.00  0.00     0.154 C 
HETATM   19  C   UNK     0       4.468   1.265   4.906  0.00  0.00     0.147 C 
HETATM   20  C   UNK     0       3.602   0.191   5.566  0.00  0.00     0.147 C 
HETATM   21  O   UNK     0       2.245   3.202   1.407  0.00  0.00    -0.293 OA
HETATM   22  C   UNK     0       1.731   0.935   1.106  0.00  0.00     0.057 C 
BRANCH   5  23
HETATM   23  C   UNK     0      -1.168  -4.323   0.173  0.00  0.00     0.084 C 
HETATM   24  C   UNK     0      -2.222  -3.779   1.151  0.00  0.00     0.049 C 
BRANCH  23  25
HETATM   25  O   UNK     0      -1.701  -4.185  -1.151  0.00  0.00    -0.387 OA
HETATM   26  H   UNK     0      -1.444  -4.961  -1.676  0.00  0.00     0.210 HD
ENDBRANCH  23  25
BRANCH  23  27
HETATM   27  C   UNK     0      -0.904  -5.831   0.434  0.00  0.00     0.152 C 
BRANCH  27  28
HETATM   28  O   UNK     0       0.507  -6.065   0.505  0.00  0.00    -0.393 OA
HETATM   29  H   UNK     0       0.637  -7.024   0.612  0.00  0.00     0.210 HD
ENDBRANCH  27  28
BRANCH  27  30
HETATM   30  C   UNK     0      -1.498  -6.771  -0.633  0.00  0.00     0.037 C 
BRANCH  30  31
HETATM   31  C   UNK     0      -0.467  -7.140  -1.716  0.00  0.00     0.040 C 
BRANCH  31  32
HETATM   32  C   UNK     0      -1.081  -7.604  -3.053  0.00  0.00     0.051 C 
HETATM   33  C   UNK     0      -1.603  -9.037  -2.907  0.00  0.00     0.045 C 
HETATM   34  C   UNK     0      -2.208  -6.685  -3.531  0.00  0.00     0.045 C 
BRANCH  32  35
HETATM   35  O   UNK     0      -0.051  -7.611  -4.043  0.00  0.00    -0.391 OA
HETATM   36  H   UNK     0      -0.466  -7.449  -4.907  0.00  0.00     0.210 HD
ENDBRANCH  32  35
ENDBRANCH  31  32
ENDBRANCH  30  31
ENDBRANCH  27  30
ENDBRANCH  23  27
ENDBRANCH   5  23
BRANCH  19  37
HETATM   37  O   UNK     0       4.354   2.482   5.646  0.00  0.00    -0.393 OA
HETATM   38  H   UNK     0       4.907   2.395   6.440  0.00  0.00     0.210 HD
ENDBRANCH  19  37
BRANCH  20  39
HETATM   39  O   UNK     0       3.987   0.059   6.932  0.00  0.00    -0.393 OA
HETATM   40  H   UNK     0       4.448  -0.792   7.025  0.00  0.00     0.210 HD
ENDBRANCH  20  39
ENDBRANCH   1   3
TORSDOF 11
ENDMDL
MODEL 3
REMARK VINA RESULT:      -5.6      1.903      7.772
REMARK  11 active torsions:
REMARK  status: ('A' for Active; 'I' for Inactive)
REMARK    1  A    between atoms: O_1  and  C_9 
REMARK    2  A    between atoms: O_2  and  C_19 
REMARK    3  A    between atoms: O_3  and  C_26 
REMARK    4  A    between atoms: O_4  and  C_27 
REMARK    5  A    between atoms: O_6  and  C_28 
REMARK    6  A    between atoms: O_7  and  C_32 
REMARK    7  A    between atoms: C_10  and  C_19 
REMARK    8  A    between atoms: C_19  and  C_27 
REMARK    9  A    between atoms: C_27  and  C_30 
REMARK   10  A    between atoms: C_30  and  C_31 
REMARK   11  A    between atoms: C_31  and  C_32 
ROOT
HETATM    1  O   UNK     0       3.352  -2.233   0.631  0.00  0.00    -0.384 OA
HETATM    2  H   UNK     0       2.829  -1.932  -0.132  0.00  0.00     0.211 HD
ENDROOT
BRANCH   1   3
HETATM    3  C   UNK     0       2.654  -1.831   1.831  0.00  0.00     0.089 C 
HETATM    4  C   UNK     0       2.101  -0.394   1.648  0.00  0.00    -0.002 C 
HETATM    5  C   UNK     0       3.421   0.409   1.516  0.00  0.00     0.034 C 
HETATM    6  C   UNK     0       1.225  -0.363   0.383  0.00  0.00     0.014 C 
HETATM    7  C   UNK     0       1.275   0.097   2.868  0.00  0.00     0.019 C 
HETATM    8  C   UNK     0       4.356  -0.246   2.559  0.00  0.00     0.012 C 
HETATM    9  C   UNK     0       3.746  -1.626   2.893  0.00  0.00     0.044 C 
HETATM   10  C   UNK     0       0.061  -1.362   0.495  0.00  0.00     0.011 C 
HETATM   11  C   UNK     0       0.466  -2.808   0.916  0.00  0.00     0.027 C 
HETATM   12  C   UNK     0      -0.787  -3.712   1.244  0.00  0.00    -0.023 C 
HETATM   13  C   UNK     0       1.540  -2.840   2.013  0.00  0.00    -0.037 C 
HETATM   14  C   UNK     0      -0.323  -5.069   1.844  0.00  0.00     0.071 C 
HETATM   15  C   UNK     0      -1.635  -4.000  -0.028  0.00  0.00     0.044 C 
HETATM   16  C   UNK     0      -1.730  -3.029   2.271  0.00  0.00     0.016 C 
HETATM   17  C   UNK     0       0.378  -5.984   0.825  0.00  0.00     0.047 C 
HETATM   18  C   UNK     0       0.585  -4.857   3.041  0.00  0.00     0.154 C 
HETATM   19  C   UNK     0      -0.495  -6.234  -0.404  0.00  0.00     0.147 C 
HETATM   20  C   UNK     0      -0.935  -4.914  -1.039  0.00  0.00     0.147 C 
HETATM   21  O   UNK     0       0.576  -5.623   4.002  0.00  0.00    -0.293 OA
HETATM   22  C   UNK     0       1.560  -3.744   3.004  0.00  0.00     0.057 C 
BRANCH   5  23
HETATM   23  C   UNK     0       3.318   1.920   1.684  0.00  0.00     0.084 C 
HETATM   24  C   UNK     0       1.844   2.353   1.621  0.00  0.00     0.049 C 
BRANCH  23  25
HETATM   25  O   UNK     0       3.810   2.267   2.985  0.00  0.00    -0.387 OA
HETATM   26  H   UNK     0       4.781   2.266   2.965  0.00  0.00     0.210 HD
ENDBRANCH  23  25
BRANCH  23  27
HETATM   27  C   UNK     0       4.160   2.687   0.628  0.00  0.00     0.152 C 
BRANCH  27  28
HETATM   28  O   UNK     0       3.470   3.878   0.236  0.00  0.00    -0.393 OA
HETATM   29  H   UNK     0       3.759   4.098  -0.667  0.00  0.00     0.210 HD
ENDBRANCH  27  28
BRANCH  27  30
HETATM   30  C   UNK     0       4.478   1.872  -0.640  0.00  0.00     0.037 C 
BRANCH  30  31
HETATM   31  C   UNK     0       3.395   2.041  -1.722  0.00  0.00     0.040 C 
BRANCH  31  32
HETATM   32  C   UNK     0       3.294   0.865  -2.716  0.00  0.00     0.051 C 
HETATM   33  C   UNK     0       3.916   1.273  -4.057  0.00  0.00     0.045 C 
HETATM   34  C   UNK     0       3.968  -0.405  -2.194  0.00  0.00     0.045 C 
BRANCH  32  35
HETATM   35  O   UNK     0       1.911   0.585  -2.942  0.00  0.00    -0.391 OA
HETATM   36  H   UNK     0       1.390   1.253  -2.466  0.00  0.00     0.210 HD
ENDBRANCH  32  35
ENDBRANCH  31  32
ENDBRANCH  30  31
ENDBRANCH  27  30
ENDBRANCH  23  27
ENDBRANCH   5  23
BRANCH  19  37
HETATM   37  O   UNK     0      -1.651  -6.978  -0.015  0.00  0.00    -0.393 OA
HETATM   38  H   UNK     0      -1.372  -7.623   0.656  0.00  0.00     0.210 HD
ENDBRANCH  19  37
BRANCH  20  39
HETATM   39  O   UNK     0      -1.818  -5.193  -2.123  0.00  0.00    -0.393 OA
HETATM   40  H   UNK     0      -1.413  -4.831  -2.931  0.00  0.00     0.210 HD
ENDBRANCH  20  39
ENDBRANCH   1   3
TORSDOF 11
ENDMDL
MODEL 4
REMARK VINA RESULT:      -5.6      3.844      6.056
REMARK  11 active torsions:
REMARK  status: ('A' for Active; 'I' for Inactive)
REMARK    1  A    between atoms: O_1  and  C_9 
REMARK    2  A    between atoms: O_2  and  C_19 
REMARK    3  A    between atoms: O_3  and  C_26 
REMARK    4  A    between atoms: O_4  and  C_27 
REMARK    5  A    between atoms: O_6  and  C_28 
REMARK    6  A    between atoms: O_7  and  C_32 
REMARK    7  A    between atoms: C_10  and  C_19 
REMARK    8  A    between atoms: C_19  and  C_27 
REMARK    9  A    between atoms: C_27  and  C_30 
REMARK   10  A    between atoms: C_30  and  C_31 
REMARK   11  A    between atoms: C_31  and  C_32 
ROOT
HETATM    1  O   UNK     0       2.404  -2.780   2.843  0.00  0.00    -0.384 OA
HETATM    2  H   UNK     0       2.904  -2.378   3.575  0.00  0.00     0.211 HD
ENDROOT
BRANCH   1   3
HETATM    3  C   UNK     0       1.035  -2.326   2.942  0.00  0.00     0.089 C 
HETATM    4  C   UNK     0       0.082  -3.458   2.477  0.00  0.00    -0.002 C 
HETATM    5  C   UNK     0       0.485  -3.580   0.985  0.00  0.00     0.034 C 
HETATM    6  C   UNK     0       0.378  -4.720   3.308  0.00  0.00     0.014 C 
HETATM    7  C   UNK     0      -1.418  -3.081   2.615  0.00  0.00     0.019 C 
HETATM    8  C   UNK     0       0.694  -2.115   0.540  0.00  0.00     0.012 C 
HETATM    9  C   UNK     0       0.865  -1.281   1.829  0.00  0.00     0.044 C 
HETATM   10  C   UNK     0       0.178  -4.451   4.809  0.00  0.00     0.011 C 
HETATM   11  C   UNK     0       0.901  -3.183   5.358  0.00  0.00     0.027 C 
HETATM   12  C   UNK     0       0.463  -2.833   6.834  0.00  0.00    -0.023 C 
HETATM   13  C   UNK     0       0.824  -1.982   4.402  0.00  0.00    -0.037 C 
HETATM   14  C   UNK     0       1.058  -1.459   7.255  0.00  0.00     0.071 C 
HETATM   15  C   UNK     0       0.947  -3.911   7.846  0.00  0.00     0.044 C 
HETATM   16  C   UNK     0      -1.082  -2.749   6.967  0.00  0.00     0.016 C 
HETATM   17  C   UNK     0       2.583  -1.485   7.453  0.00  0.00     0.047 C 
HETATM   18  C   UNK     0       0.695  -0.376   6.257  0.00  0.00     0.154 C 
HETATM   19  C   UNK     0       3.006  -2.560   8.452  0.00  0.00     0.147 C 
HETATM   20  C   UNK     0       2.467  -3.931   8.042  0.00  0.00     0.147 C 
HETATM   21  O   UNK     0       0.483   0.783   6.610  0.00  0.00    -0.293 OA
HETATM   22  C   UNK     0       0.681  -0.714   4.816  0.00  0.00     0.057 C 
BRANCH   5  23
HETATM   23  C   UNK     0      -0.476  -4.341   0.080  0.00  0.00     0.084 C 
HETATM   24  C   UNK     0      -1.880  -3.721   0.172  0.00  0.00     0.049 C 
BRANCH  23  25
HETATM   25  O   UNK     0      -0.032  -4.197  -1.275  0.00  0.00    -0.387 OA
HETATM   26  H   UNK     0      -0.218  -3.291  -1.573  0.00  0.00     0.210 HD
ENDBRANCH  23  25
BRANCH  23  27
HETATM   27  C   UNK     0      -0.522  -5.857   0.416  0.00  0.00     0.152 C 
BRANCH  27  28
HETATM   28  O   UNK     0       0.808  -6.385   0.433  0.00  0.00    -0.393 OA
HETATM   29  H   UNK     0       1.418  -5.639   0.297  0.00  0.00     0.210 HD
ENDBRANCH  27  28
BRANCH  27  30
HETATM   30  C   UNK     0      -1.364  -6.696  -0.565  0.00  0.00     0.037 C 
BRANCH  30  31
HETATM   31  C   UNK     0      -0.484  -7.534  -1.511  0.00  0.00     0.040 C 
BRANCH  31  32
HETATM   32  C   UNK     0      -1.074  -7.738  -2.922  0.00  0.00     0.051 C 
HETATM   33  C   UNK     0      -1.658  -9.150  -3.034  0.00  0.00     0.045 C 
HETATM   34  C   UNK     0      -2.146  -6.702  -3.264  0.00  0.00     0.045 C 
BRANCH  32  35
HETATM   35  O   UNK     0      -0.014  -7.624  -3.873  0.00  0.00    -0.391 OA
HETATM   36  H   UNK     0      -0.391  -7.759  -4.759  0.00  0.00     0.210 HD
ENDBRANCH  32  35
ENDBRANCH  31  32
ENDBRANCH  30  31
ENDBRANCH  27  30
ENDBRANCH  23  27
ENDBRANCH   5  23
BRANCH  19  37
HETATM   37  O   UNK     0       2.500  -2.223   9.745  0.00  0.00    -0.393 OA
HETATM   38  H   UNK     0       3.037  -1.488  10.088  0.00  0.00     0.210 HD
ENDBRANCH  19  37
BRANCH  20  39
HETATM   39  O   UNK     0       2.807  -4.883   9.047  0.00  0.00    -0.393 OA
HETATM   40  H   UNK     0       3.734  -4.725   9.298  0.00  0.00     0.210 HD
ENDBRANCH  20  39
ENDBRANCH   1   3
TORSDOF 11
ENDMDL
MODEL 5
REMARK VINA RESULT:      -5.6      2.221      7.973
REMARK  11 active torsions:
REMARK  status: ('A' for Active; 'I' for Inactive)
REMARK    1  A    between atoms: O_1  and  C_9 
REMARK    2  A    between atoms: O_2  and  C_19 
REMARK    3  A    between atoms: O_3  and  C_26 
REMARK    4  A    between atoms: O_4  and  C_27 
REMARK    5  A    between atoms: O_6  and  C_28 
REMARK    6  A    between atoms: O_7  and  C_32 
REMARK    7  A    between atoms: C_10  and  C_19 
REMARK    8  A    between atoms: C_19  and  C_27 
REMARK    9  A    between atoms: C_27  and  C_30 
REMARK   10  A    between atoms: C_30  and  C_31 
REMARK   11  A    between atoms: C_31  and  C_32 
ROOT
HETATM    1  O   UNK     0       3.320  -2.248   0.725  0.00  0.00    -0.384 OA
HETATM    2  H   UNK     0       2.729  -2.357  -0.041  0.00  0.00     0.211 HD
ENDROOT
BRANCH   1   3
HETATM    3  C   UNK     0       2.520  -1.793   1.839  0.00  0.00     0.089 C 
HETATM    4  C   UNK     0       1.926  -0.398   1.512  0.00  0.00    -0.002 C 
HETATM    5  C   UNK     0       3.219   0.452   1.416  0.00  0.00     0.034 C 
HETATM    6  C   UNK     0       1.145  -0.497   0.188  0.00  0.00     0.014 C 
HETATM    7  C   UNK     0       0.992   0.140   2.630  0.00  0.00     0.019 C 
HETATM    8  C   UNK     0       4.099  -0.087   2.567  0.00  0.00     0.012 C 
HETATM    9  C   UNK     0       3.521  -1.465   2.958  0.00  0.00     0.044 C 
HETATM   10  C   UNK     0       0.016  -1.535   0.290  0.00  0.00     0.011 C 
HETATM   11  C   UNK     0       0.445  -2.929   0.844  0.00  0.00     0.027 C 
HETATM   12  C   UNK     0      -0.792  -3.862   1.148  0.00  0.00    -0.023 C 
HETATM   13  C   UNK     0       1.436  -2.835   2.015  0.00  0.00    -0.037 C 
HETATM   14  C   UNK     0      -0.321  -5.151   1.878  0.00  0.00     0.071 C 
HETATM   15  C   UNK     0      -1.531  -4.277  -0.157  0.00  0.00     0.044 C 
HETATM   16  C   UNK     0      -1.835  -3.151   2.052  0.00  0.00     0.016 C 
HETATM   17  C   UNK     0       0.489  -6.104   0.982  0.00  0.00     0.047 C 
HETATM   18  C   UNK     0       0.487  -4.815   3.117  0.00  0.00     0.154 C 
HETATM   19  C   UNK     0      -0.279  -6.478  -0.285  0.00  0.00     0.147 C 
HETATM   20  C   UNK     0      -0.722  -5.228  -1.045  0.00  0.00     0.147 C 
HETATM   21  O   UNK     0       0.436  -5.512   4.130  0.00  0.00    -0.293 OA
HETATM   22  C   UNK     0       1.418  -3.665   3.069  0.00  0.00     0.057 C 
BRANCH   5  23
HETATM   23  C   UNK     0       3.045   1.965   1.464  0.00  0.00     0.084 C 
HETATM   24  C   UNK     0       2.462   2.379   2.825  0.00  0.00     0.049 C 
BRANCH  23  25
HETATM   25  O   UNK     0       4.337   2.574   1.348  0.00  0.00    -0.387 OA
HETATM   26  H   UNK     0       4.769   2.565   2.218  0.00  0.00     0.210 HD
ENDBRANCH  23  25
BRANCH  23  27
HETATM   27  C   UNK     0       2.156   2.490   0.304  0.00  0.00     0.152 C 
BRANCH  27  28
HETATM   28  O   UNK     0       2.913   3.393  -0.509  0.00  0.00    -0.393 OA
HETATM   29  H   UNK     0       3.854   3.249  -0.304  0.00  0.00     0.210 HD
ENDBRANCH  27  28
BRANCH  27  30
HETATM   30  C   UNK     0       0.875   3.212   0.765  0.00  0.00     0.037 C 
BRANCH  30  31
HETATM   31  C   UNK     0      -0.323   2.906  -0.153  0.00  0.00     0.040 C 
BRANCH  31  32
HETATM   32  C   UNK     0      -1.650   2.649   0.590  0.00  0.00     0.051 C 
HETATM   33  C   UNK     0      -1.462   2.929   2.086  0.00  0.00     0.045 C 
HETATM   34  C   UNK     0      -2.802   3.494   0.043  0.00  0.00     0.045 C 
BRANCH  32  35
HETATM   35  O   UNK     0      -1.989   1.269   0.442  0.00  0.00    -0.391 OA
HETATM   36  H   UNK     0      -1.838   0.831   1.296  0.00  0.00     0.210 HD
ENDBRANCH  32  35
ENDBRANCH  31  32
ENDBRANCH  30  31
ENDBRANCH  27  30
ENDBRANCH  23  27
ENDBRANCH   5  23
BRANCH  19  37
HETATM   37  O   UNK     0      -1.430  -7.244   0.074  0.00  0.00    -0.393 OA
HETATM   38  H   UNK     0      -1.284  -8.155  -0.232  0.00  0.00     0.210 HD
ENDBRANCH  19  37
BRANCH  20  39
HETATM   39  O   UNK     0      -1.510  -5.622  -2.166  0.00  0.00    -0.393 OA
HETATM   40  H   UNK     0      -2.296  -6.082  -1.824  0.00  0.00     0.210 HD
ENDBRANCH  20  39
ENDBRANCH   1   3
TORSDOF 11
ENDMDL
MODEL 6
REMARK VINA RESULT:      -5.5      4.232      6.406
REMARK  11 active torsions:
REMARK  status: ('A' for Active; 'I' for Inactive)
REMARK    1  A    between atoms: O_1  and  C_9 
REMARK    2  A    between atoms: O_2  and  C_19 
REMARK    3  A    between atoms: O_3  and  C_26 
REMARK    4  A    between atoms: O_4  and  C_27 
REMARK    5  A    between atoms: O_6  and  C_28 
REMARK    6  A    between atoms: O_7  and  C_32 
REMARK    7  A    between atoms: C_10  and  C_19 
REMARK    8  A    between atoms: C_19  and  C_27 
REMARK    9  A    between atoms: C_27  and  C_30 
REMARK   10  A    between atoms: C_30  and  C_31 
REMARK   11  A    between atoms: C_31  and  C_32 
ROOT
HETATM    1  O   UNK     0      -0.015  -5.231   4.752  0.00  0.00    -0.384 OA
HETATM    2  H   UNK     0      -0.304  -6.032   4.281  0.00  0.00     0.211 HD
ENDROOT
BRANCH   1   3
HETATM    3  C   UNK     0       1.095  -4.664   4.020  0.00  0.00     0.089 C 
HETATM    4  C   UNK     0       0.564  -3.611   3.013  0.00  0.00    -0.002 C 
HETATM    5  C   UNK     0      -0.279  -4.509   2.072  0.00  0.00     0.034 C 
HETATM    6  C   UNK     0      -0.265  -2.569   3.786  0.00  0.00     0.014 C 
HETATM    7  C   UNK     0       1.698  -2.898   2.228  0.00  0.00     0.019 C 
HETATM    8  C   UNK     0       0.576  -5.788   1.922  0.00  0.00     0.012 C 
HETATM    9  C   UNK     0       1.588  -5.783   3.089  0.00  0.00     0.044 C 
HETATM   10  C   UNK     0       0.586  -1.879   4.865  0.00  0.00     0.011 C 
HETATM   11  C   UNK     0       1.374  -2.843   5.805  0.00  0.00     0.027 C 
HETATM   12  C   UNK     0       2.404  -2.077   6.725  0.00  0.00    -0.023 C 
HETATM   13  C   UNK     0       1.994  -4.037   5.063  0.00  0.00    -0.037 C 
HETATM   14  C   UNK     0       3.295  -3.095   7.490  0.00  0.00     0.071 C 
HETATM   15  C   UNK     0       1.682  -1.173   7.765  0.00  0.00     0.044 C 
HETATM   16  C   UNK     0       3.335  -1.154   5.893  0.00  0.00     0.016 C 
HETATM   17  C   UNK     0       2.537  -3.880   8.575  0.00  0.00     0.047 C 
HETATM   18  C   UNK     0       3.961  -4.067   6.536  0.00  0.00     0.154 C 
HETATM   19  C   UNK     0       1.845  -2.948   9.569  0.00  0.00     0.147 C 
HETATM   20  C   UNK     0       0.931  -1.959   8.845  0.00  0.00     0.147 C 
HETATM   21  O   UNK     0       5.091  -4.506   6.745  0.00  0.00    -0.293 OA
HETATM   22  C   UNK     0       3.192  -4.557   5.369  0.00  0.00     0.057 C 
BRANCH   5  23
HETATM   23  C   UNK     0      -0.678  -3.905   0.731  0.00  0.00     0.084 C 
HETATM   24  C   UNK     0      -2.204  -3.716   0.678  0.00  0.00     0.049 C 
BRANCH  23  25
HETATM   25  O   UNK     0      -0.082  -2.606   0.624  0.00  0.00    -0.387 OA
HETATM   26  H   UNK     0       0.290  -2.503  -0.268  0.00  0.00     0.210 HD
ENDBRANCH  23  25
BRANCH  23  27
HETATM   27  C   UNK     0      -0.190  -4.763  -0.468  0.00  0.00     0.152 C 
BRANCH  27  28
HETATM   28  O   UNK     0       0.052  -3.916  -1.596  0.00  0.00    -0.393 OA
HETATM   29  H   UNK     0      -0.787  -3.832  -2.082  0.00  0.00     0.210 HD
ENDBRANCH  27  28
BRANCH  27  30
HETATM   30  C   UNK     0      -1.173  -5.870  -0.895  0.00  0.00     0.037 C 
BRANCH  30  31
HETATM   31  C   UNK     0      -0.452  -7.056  -1.563  0.00  0.00     0.040 C 
BRANCH  31  32
HETATM   32  C   UNK     0      -1.069  -7.508  -2.903  0.00  0.00     0.051 C 
HETATM   33  C   UNK     0      -1.599  -8.940  -2.767  0.00  0.00     0.045 C 
HETATM   34  C   UNK     0      -2.190  -6.580  -3.375  0.00  0.00     0.045 C 
BRANCH  32  35
HETATM   35  O   UNK     0      -0.039  -7.514  -3.893  0.00  0.00    -0.391 OA
HETATM   36  H   UNK     0      -0.125  -6.702  -4.419  0.00  0.00     0.210 HD
ENDBRANCH  32  35
ENDBRANCH  31  32
ENDBRANCH  30  31
ENDBRANCH  27  30
ENDBRANCH  23  27
ENDBRANCH   5  23
BRANCH  19  37
HETATM   37  O   UNK     0       2.836  -2.225  10.301  0.00  0.00    -0.393 OA
HETATM   38  H   UNK     0       3.702  -2.446   9.919  0.00  0.00     0.210 HD
ENDBRANCH  19  37
BRANCH  20  39
HETATM   39  O   UNK     0       0.379  -1.054   9.799  0.00  0.00    -0.393 OA
HETATM   40  H   UNK     0      -0.583  -1.030   9.657  0.00  0.00     0.210 HD
ENDBRANCH  20  39
ENDBRANCH   1   3
TORSDOF 11
ENDMDL
MODEL 7
REMARK VINA RESULT:      -5.2      2.214      2.731
REMARK  11 active torsions:
REMARK  status: ('A' for Active; 'I' for Inactive)
REMARK    1  A    between atoms: O_1  and  C_9 
REMARK    2  A    between atoms: O_2  and  C_19 
REMARK    3  A    between atoms: O_3  and  C_26 
REMARK    4  A    between atoms: O_4  and  C_27 
REMARK    5  A    between atoms: O_6  and  C_28 
REMARK    6  A    between atoms: O_7  and  C_32 
REMARK    7  A    between atoms: C_10  and  C_19 
REMARK    8  A    between atoms: C_19  and  C_27 
REMARK    9  A    between atoms: C_27  and  C_30 
REMARK   10  A    between atoms: C_30  and  C_31 
REMARK   11  A    between atoms: C_31  and  C_32 
ROOT
HETATM    1  O   UNK     0      -1.433  -1.362   0.726  0.00  0.00    -0.384 OA
HETATM    2  H   UNK     0      -2.345  -1.373   1.062  0.00  0.00     0.211 HD
ENDROOT
BRANCH   1   3
HETATM    3  C   UNK     0      -0.564  -0.977   1.815  0.00  0.00     0.089 C 
HETATM    4  C   UNK     0       0.520  -2.066   2.019  0.00  0.00    -0.002 C 
HETATM    5  C   UNK     0      -0.357  -3.270   2.451  0.00  0.00     0.034 C 
HETATM    6  C   UNK     0       1.258  -2.280   0.685  0.00  0.00     0.014 C 
HETATM    7  C   UNK     0       1.543  -1.701   3.129  0.00  0.00     0.019 C 
HETATM    8  C   UNK     0      -1.417  -2.636   3.380  0.00  0.00     0.012 C 
HETATM    9  C   UNK     0      -1.412  -1.120   3.088  0.00  0.00     0.044 C 
HETATM   10  C   UNK     0       1.912  -0.975   0.202  0.00  0.00     0.011 C 
HETATM   11  C   UNK     0       0.972   0.270   0.180  0.00  0.00     0.027 C 
HETATM   12  C   UNK     0       1.758   1.612  -0.092  0.00  0.00    -0.023 C 
HETATM   13  C   UNK     0       0.044   0.347   1.402  0.00  0.00    -0.037 C 
HETATM   14  C   UNK     0       0.811   2.831   0.095  0.00  0.00     0.071 C 
HETATM   15  C   UNK     0       2.338   1.654  -1.534  0.00  0.00     0.044 C 
HETATM   16  C   UNK     0       2.956   1.780   0.883  0.00  0.00     0.016 C 
HETATM   17  C   UNK     0      -0.261   2.950  -1.003  0.00  0.00     0.047 C 
HETATM   18  C   UNK     0       0.141   2.801   1.455  0.00  0.00     0.154 C 
HETATM   19  C   UNK     0       0.360   2.985  -2.398  0.00  0.00     0.147 C 
HETATM   20  C   UNK     0       1.267   1.775  -2.624  0.00  0.00     0.147 C 
HETATM   21  O   UNK     0      -0.112   3.834   2.073  0.00  0.00    -0.293 OA
HETATM   22  C   UNK     0      -0.290   1.497   2.007  0.00  0.00     0.057 C 
BRANCH   5  23
HETATM   23  C   UNK     0       0.369  -4.444   3.097  0.00  0.00     0.084 C 
HETATM   24  C   UNK     0       1.777  -4.009   3.535  0.00  0.00     0.049 C 
BRANCH  23  25
HETATM   25  O   UNK     0      -0.348  -4.825   4.279  0.00  0.00    -0.387 OA
HETATM   26  H   UNK     0      -1.147  -4.276   4.353  0.00  0.00     0.210 HD
ENDBRANCH  23  25
BRANCH  23  27
HETATM   27  C   UNK     0       0.443  -5.677   2.157  0.00  0.00     0.152 C 
BRANCH  27  28
HETATM   28  O   UNK     0       1.811  -5.970   1.857  0.00  0.00    -0.393 OA
HETATM   29  H   UNK     0       2.138  -6.572   2.548  0.00  0.00     0.210 HD
ENDBRANCH  27  28
BRANCH  27  30
HETATM   30  C   UNK     0      -0.319  -5.507   0.829  0.00  0.00     0.037 C 
BRANCH  30  31
HETATM   31  C   UNK     0       0.067  -6.585  -0.201  0.00  0.00     0.040 C 
BRANCH  31  32
HETATM   32  C   UNK     0      -0.730  -6.525  -1.521  0.00  0.00     0.051 C 
HETATM   33  C   UNK     0      -1.782  -7.640  -1.536  0.00  0.00     0.045 C 
HETATM   34  C   UNK     0      -1.405  -5.169  -1.737  0.00  0.00     0.045 C 
BRANCH  32  35
HETATM   35  O   UNK     0       0.173  -6.759  -2.603  0.00  0.00    -0.391 OA
HETATM   36  H   UNK     0       0.194  -7.716  -2.773  0.00  0.00     0.210 HD
ENDBRANCH  32  35
ENDBRANCH  31  32
ENDBRANCH  30  31
ENDBRANCH  27  30
ENDBRANCH  23  27
ENDBRANCH   5  23
BRANCH  19  37
HETATM   37  O   UNK     0       1.127   4.182  -2.539  0.00  0.00    -0.393 OA
HETATM   38  H   UNK     0       0.716   4.862  -1.979  0.00  0.00     0.210 HD
ENDBRANCH  19  37
BRANCH  20  39
HETATM   39  O   UNK     0       1.894   1.897  -3.899  0.00  0.00    -0.393 OA
HETATM   40  H   UNK     0       1.780   1.049  -4.363  0.00  0.00     0.210 HD
ENDBRANCH  20  39
ENDBRANCH   1   3
TORSDOF 11
ENDMDL
MODEL 8
REMARK VINA RESULT:      -5.2      1.943      8.898
REMARK  11 active torsions:
REMARK  status: ('A' for Active; 'I' for Inactive)
REMARK    1  A    between atoms: O_1  and  C_9 
REMARK    2  A    between atoms: O_2  and  C_19 
REMARK    3  A    between atoms: O_3  and  C_26 
REMARK    4  A    between atoms: O_4  and  C_27 
REMARK    5  A    between atoms: O_6  and  C_28 
REMARK    6  A    between atoms: O_7  and  C_32 
REMARK    7  A    between atoms: C_10  and  C_19 
REMARK    8  A    between atoms: C_19  and  C_27 
REMARK    9  A    between atoms: C_27  and  C_30 
REMARK   10  A    between atoms: C_30  and  C_31 
REMARK   11  A    between atoms: C_31  and  C_32 
ROOT
HETATM    1  O   UNK     0       3.450  -2.299   0.743  0.00  0.00    -0.384 OA
HETATM    2  H   UNK     0       3.919  -3.120   0.974  0.00  0.00     0.211 HD
ENDROOT
BRANCH   1   3
HETATM    3  C   UNK     0       2.748  -1.845   1.923  0.00  0.00     0.089 C 
HETATM    4  C   UNK     0       2.291  -0.377   1.716  0.00  0.00    -0.002 C 
HETATM    5  C   UNK     0       3.661   0.341   1.614  0.00  0.00     0.034 C 
HETATM    6  C   UNK     0       1.451  -0.303   0.428  0.00  0.00     0.014 C 
HETATM    7  C   UNK     0       1.466   0.173   2.911  0.00  0.00     0.019 C 
HETATM    8  C   UNK     0       4.526  -0.364   2.684  0.00  0.00     0.012 C 
HETATM    9  C   UNK     0       3.823  -1.700   3.011  0.00  0.00     0.044 C 
HETATM   10  C   UNK     0       0.224  -1.226   0.516  0.00  0.00     0.011 C 
HETATM   11  C   UNK     0       0.527  -2.691   0.956  0.00  0.00     0.027 C 
HETATM   12  C   UNK     0      -0.787  -3.513   1.256  0.00  0.00    -0.023 C 
HETATM   13  C   UNK     0       1.569  -2.781   2.081  0.00  0.00    -0.037 C 
HETATM   14  C   UNK     0      -0.425  -4.891   1.877  0.00  0.00     0.071 C 
HETATM   15  C   UNK     0      -1.618  -3.757  -0.036  0.00  0.00     0.044 C 
HETATM   16  C   UNK     0      -1.712  -2.764   2.255  0.00  0.00     0.016 C 
HETATM   17  C   UNK     0       0.244  -5.856   0.882  0.00  0.00     0.047 C 
HETATM   18  C   UNK     0       0.464  -4.726   3.096  0.00  0.00     0.154 C 
HETATM   19  C   UNK     0      -0.611  -6.060  -0.368  0.00  0.00     0.147 C 
HETATM   20  C   UNK     0      -0.951  -4.721  -1.022  0.00  0.00     0.147 C 
HETATM   21  O   UNK     0       0.382  -5.484   4.062  0.00  0.00    -0.293 OA
HETATM   22  C   UNK     0       1.507  -3.677   3.078  0.00  0.00     0.057 C 
BRANCH   5  23
HETATM   23  C   UNK     0       3.648   1.857   1.769  0.00  0.00     0.084 C 
HETATM   24  C   UNK     0       3.572   2.227   3.260  0.00  0.00     0.049 C 
BRANCH  23  25
HETATM   25  O   UNK     0       4.885   2.374   1.263  0.00  0.00    -0.387 OA
HETATM   26  H   UNK     0       5.381   1.652   0.844  0.00  0.00     0.210 HD
ENDBRANCH  23  25
BRANCH  23  27
HETATM   27  C   UNK     0       2.487   2.518   0.979  0.00  0.00     0.152 C 
BRANCH  27  28
HETATM   28  O   UNK     0       2.916   2.803  -0.356  0.00  0.00    -0.393 OA
HETATM   29  H   UNK     0       2.624   3.707  -0.569  0.00  0.00     0.210 HD
ENDBRANCH  27  28
BRANCH  27  30
HETATM   30  C   UNK     0       1.957   3.822   1.606  0.00  0.00     0.037 C 
BRANCH  30  31
HETATM   31  C   UNK     0       2.259   5.050   0.727  0.00  0.00     0.040 C 
BRANCH  31  32
HETATM   32  C   UNK     0       3.528   5.829   1.131  0.00  0.00     0.051 C 
HETATM   33  C   UNK     0       3.449   7.258   0.583  0.00  0.00     0.045 C 
HETATM   34  C   UNK     0       3.740   5.862   2.646  0.00  0.00     0.045 C 
BRANCH  32  35
HETATM   35  O   UNK     0       4.657   5.192   0.530  0.00  0.00    -0.391 OA
HETATM   36  H   UNK     0       4.536   4.231   0.611  0.00  0.00     0.210 HD
ENDBRANCH  32  35
ENDBRANCH  31  32
ENDBRANCH  30  31
ENDBRANCH  27  30
ENDBRANCH  23  27
ENDBRANCH   5  23
BRANCH  19  37
HETATM   37  O   UNK     0      -1.820  -6.728  -0.004  0.00  0.00    -0.393 OA
HETATM   38  H   UNK     0      -2.478  -6.540  -0.695  0.00  0.00     0.210 HD
ENDBRANCH  19  37
BRANCH  20  39
HETATM   39  O   UNK     0      -1.821  -4.953  -2.127  0.00  0.00    -0.393 OA
HETATM   40  H   UNK     0      -2.731  -4.799  -1.820  0.00  0.00     0.210 HD
ENDBRANCH  20  39
ENDBRANCH   1   3
TORSDOF 11
ENDMDL
MODEL 9
REMARK VINA RESULT:      -5.2      2.143      8.263
REMARK  11 active torsions:
REMARK  status: ('A' for Active; 'I' for Inactive)
REMARK    1  A    between atoms: O_1  and  C_9 
REMARK    2  A    between atoms: O_2  and  C_19 
REMARK    3  A    between atoms: O_3  and  C_26 
REMARK    4  A    between atoms: O_4  and  C_27 
REMARK    5  A    between atoms: O_6  and  C_28 
REMARK    6  A    between atoms: O_7  and  C_32 
REMARK    7  A    between atoms: C_10  and  C_19 
REMARK    8  A    between atoms: C_19  and  C_27 
REMARK    9  A    between atoms: C_27  and  C_30 
REMARK   10  A    between atoms: C_30  and  C_31 
REMARK   11  A    between atoms: C_31  and  C_32 
ROOT
HETATM    1  O   UNK     0       3.495  -2.343   0.741  0.00  0.00    -0.384 OA
HETATM    2  H   UNK     0       2.856  -2.357   0.008  0.00  0.00     0.211 HD
ENDROOT
BRANCH   1   3
HETATM    3  C   UNK     0       2.801  -1.882   1.923  0.00  0.00     0.089 C 
HETATM    4  C   UNK     0       2.360  -0.409   1.719  0.00  0.00    -0.002 C 
HETATM    5  C   UNK     0       3.738   0.293   1.614  0.00  0.00     0.034 C 
HETATM    6  C   UNK     0       1.518  -0.323   0.433  0.00  0.00     0.014 C 
HETATM    7  C   UNK     0       1.544   0.150   2.916  0.00  0.00     0.019 C 
HETATM    8  C   UNK     0       4.597  -0.422   2.682  0.00  0.00     0.012 C 
HETATM    9  C   UNK     0       3.880  -1.750   3.009  0.00  0.00     0.044 C 
HETATM   10  C   UNK     0       0.281  -1.231   0.523  0.00  0.00     0.011 C 
HETATM   11  C   UNK     0       0.568  -2.701   0.960  0.00  0.00     0.027 C 
HETATM   12  C   UNK     0      -0.756  -3.507   1.264  0.00  0.00    -0.023 C 
HETATM   13  C   UNK     0       1.611  -2.804   2.083  0.00  0.00    -0.037 C 
HETATM   14  C   UNK     0      -0.408  -4.890   1.882  0.00  0.00     0.071 C 
HETATM   15  C   UNK     0      -1.593  -3.741  -0.027  0.00  0.00     0.044 C 
HETATM   16  C   UNK     0      -1.670  -2.749   2.265  0.00  0.00     0.016 C 
HETATM   17  C   UNK     0       0.247  -5.862   0.884  0.00  0.00     0.047 C 
HETATM   18  C   UNK     0       0.485  -4.738   3.098  0.00  0.00     0.154 C 
HETATM   19  C   UNK     0      -0.613  -6.055  -0.364  0.00  0.00     0.147 C 
HETATM   20  C   UNK     0      -0.939  -4.711  -1.016  0.00  0.00     0.147 C 
HETATM   21  O   UNK     0       0.397  -5.495   4.064  0.00  0.00    -0.293 OA
HETATM   22  C   UNK     0       1.541  -3.701   3.079  0.00  0.00     0.057 C 
BRANCH   5  23
HETATM   23  C   UNK     0       3.744   1.809   1.771  0.00  0.00     0.084 C 
HETATM   24  C   UNK     0       3.686   2.179   3.263  0.00  0.00     0.049 C 
BRANCH  23  25
HETATM   25  O   UNK     0       4.981   2.314   1.253  0.00  0.00    -0.387 OA
HETATM   26  H   UNK     0       4.870   2.511   0.308  0.00  0.00     0.210 HD
ENDBRANCH  23  25
BRANCH  23  27
HETATM   27  C   UNK     0       2.581   2.484   0.994  0.00  0.00     0.152 C 
BRANCH  27  28
HETATM   28  O   UNK     0       3.045   2.899  -0.296  0.00  0.00    -0.393 OA
HETATM   29  H   UNK     0       3.696   2.241  -0.596  0.00  0.00     0.210 HD
ENDBRANCH  27  28
BRANCH  27  30
HETATM   30  C   UNK     0       1.970   3.707   1.705  0.00  0.00     0.037 C 
BRANCH  30  31
HETATM   31  C   UNK     0       0.460   3.534   1.954  0.00  0.00     0.040 C 
BRANCH  31  32
HETATM   32  C   UNK     0      -0.440   4.074   0.823  0.00  0.00     0.051 C 
HETATM   33  C   UNK     0       0.270   5.229   0.109  0.00  0.00     0.045 C 
HETATM   34  C   UNK     0      -0.823   2.992  -0.189  0.00  0.00     0.045 C 
BRANCH  32  35
HETATM   35  O   UNK     0      -1.637   4.591   1.409  0.00  0.00    -0.391 OA
HETATM   36  H   UNK     0      -1.999   3.909   1.999  0.00  0.00     0.210 HD
ENDBRANCH  32  35
ENDBRANCH  31  32
ENDBRANCH  30  31
ENDBRANCH  27  30
ENDBRANCH  23  27
ENDBRANCH   5  23
BRANCH  19  37
HETATM   37  O   UNK     0      -1.830  -6.709   0.002  0.00  0.00    -0.393 OA
HETATM   38  H   UNK     0      -1.890  -6.695   0.972  0.00  0.00     0.210 HD
ENDBRANCH  19  37
BRANCH  20  39
HETATM   39  O   UNK     0      -1.815  -4.931  -2.119  0.00  0.00    -0.393 OA
HETATM   40  H   UNK     0      -2.098  -4.060  -2.447  0.00  0.00     0.210 HD
ENDBRANCH  20  39
ENDBRANCH   1   3
TORSDOF 11
ENDMDL
MODEL 10
REMARK VINA RESULT:      -5.1      3.144      5.577
REMARK  11 active torsions:
REMARK  status: ('A' for Active; 'I' for Inactive)
REMARK    1  A    between atoms: O_1  and  C_9 
REMARK    2  A    between atoms: O_2  and  C_19 
REMARK    3  A    between atoms: O_3  and  C_26 
REMARK    4  A    between atoms: O_4  and  C_27 
REMARK    5  A    between atoms: O_6  and  C_28 
REMARK    6  A    between atoms: O_7  and  C_32 
REMARK    7  A    between atoms: C_10  and  C_19 
REMARK    8  A    between atoms: C_19  and  C_27 
REMARK    9  A    between atoms: C_27  and  C_30 
REMARK   10  A    between atoms: C_30  and  C_31 
REMARK   11  A    between atoms: C_31  and  C_32 
ROOT
HETATM    1  O   UNK     0       1.728  -2.072   3.050  0.00  0.00    -0.384 OA
HETATM    2  H   UNK     0       2.216  -2.440   2.293  0.00  0.00     0.211 HD
ENDROOT
BRANCH   1   3
HETATM    3  C   UNK     0       0.487  -1.522   2.551  0.00  0.00     0.089 C 
HETATM    4  C   UNK     0      -0.466  -2.679   2.153  0.00  0.00    -0.002 C 
HETATM    5  C   UNK     0       0.328  -3.320   0.986  0.00  0.00     0.034 C 
HETATM    6  C   UNK     0      -0.645  -3.606   3.369  0.00  0.00     0.014 C 
HETATM    7  C   UNK     0      -1.854  -2.180   1.669  0.00  0.00     0.019 C 
HETATM    8  C   UNK     0       0.904  -2.105   0.223  0.00  0.00     0.012 C 
HETATM    9  C   UNK     0       0.831  -0.901   1.188  0.00  0.00     0.044 C 
HETATM   10  C   UNK     0      -1.225  -2.838   4.567  0.00  0.00     0.011 C 
HETATM   11  C   UNK     0      -0.489  -1.510   4.924  0.00  0.00     0.027 C 
HETATM   12  C   UNK     0      -1.273  -0.658   5.998  0.00  0.00    -0.023 C 
HETATM   13  C   UNK     0      -0.079  -0.696   3.687  0.00  0.00    -0.037 C 
HETATM   14  C   UNK     0      -0.603   0.735   6.166  0.00  0.00     0.071 C 
HETATM   15  C   UNK     0      -1.296  -1.364   7.384  0.00  0.00     0.044 C 
HETATM   16  C   UNK     0      -2.752  -0.433   5.580  0.00  0.00     0.016 C 
HETATM   17  C   UNK     0       0.771   0.676   6.856  0.00  0.00     0.047 C 
HETATM   18  C   UNK     0      -0.468   1.443   4.831  0.00  0.00     0.154 C 
HETATM   19  C   UNK     0       0.694  -0.027   8.210  0.00  0.00     0.147 C 
HETATM   20  C   UNK     0       0.074  -1.418   8.069  0.00  0.00     0.147 C 
HETATM   21  O   UNK     0      -0.575   2.664   4.734  0.00  0.00    -0.293 OA
HETATM   22  C   UNK     0      -0.118   0.644   3.635  0.00  0.00     0.057 C 
BRANCH   5  23
HETATM   23  C   UNK     0      -0.441  -4.275   0.082  0.00  0.00     0.084 C 
HETATM   24  C   UNK     0      -1.929  -3.886   0.060  0.00  0.00     0.049 C 
BRANCH  23  25
HETATM   25  O   UNK     0       0.057  -4.134  -1.255  0.00  0.00    -0.387 OA
HETATM   26  H   UNK     0       0.537  -4.943  -1.498  0.00  0.00     0.210 HD
ENDBRANCH  23  25
BRANCH  23  27
HETATM   27  C   UNK     0      -0.268  -5.757   0.511  0.00  0.00     0.152 C 
BRANCH  27  28
HETATM   28  O   UNK     0       0.914  -5.891   1.307  0.00  0.00    -0.393 OA
HETATM   29  H   UNK     0       1.129  -6.839   1.352  0.00  0.00     0.210 HD
ENDBRANCH  27  28
BRANCH  27  30
HETATM   30  C   UNK     0      -0.174  -6.749  -0.665  0.00  0.00     0.037 C 
BRANCH  30  31
HETATM   31  C   UNK     0      -1.551  -7.323  -1.048  0.00  0.00     0.040 C 
BRANCH  31  32
HETATM   32  C   UNK     0      -1.658  -7.808  -2.508  0.00  0.00     0.051 C 
HETATM   33  C   UNK     0      -0.332  -7.551  -3.233  0.00  0.00     0.045 C 
HETATM   34  C   UNK     0      -2.029  -9.289  -2.609  0.00  0.00     0.045 C 
BRANCH  32  35
HETATM   35  O   UNK     0      -2.671  -7.042  -3.163  0.00  0.00    -0.391 OA
HETATM   36  H   UNK     0      -3.090  -6.470  -2.498  0.00  0.00     0.210 HD
ENDBRANCH  32  35
ENDBRANCH  31  32
ENDBRANCH  30  31
ENDBRANCH  27  30
ENDBRANCH  23  27
ENDBRANCH   5  23
BRANCH  19  37
HETATM   37  O   UNK     0      -0.102   0.756   9.100  0.00  0.00    -0.393 OA
HETATM   38  H   UNK     0      -0.271   1.610   8.669  0.00  0.00     0.210 HD
ENDBRANCH  19  37
BRANCH  20  39
HETATM   39  O   UNK     0      -0.062  -1.999   9.364  0.00  0.00    -0.393 OA
HETATM   40  H   UNK     0      -0.206  -1.274   9.996  0.00  0.00     0.210 HD
ENDBRANCH  20  39
ENDBRANCH   1   3
TORSDOF 11
ENDMDL
