MODEL 1
REMARK VINA RESULT:      -7.1      0.000      0.000
REMARK  Name = 2520
REMARK  21 active torsions:
REMARK  status: ('A' for Active; 'I' for Inactive)
REMARK    1  A    between atoms: O_1  and  C_19
REMARK    2  A    between atoms: O_1  and  C_28
REMARK    3  A    between atoms: O_2  and  C_23
REMARK    4  A    between atoms: O_2  and  C_31
REMARK    5  A    between atoms: O_3  and  C_27
REMARK    6  A    between atoms: O_3  and  C_32
REMARK    7  A    between atoms: O_4  and  C_30
REMARK    8  A    between atoms: O_4  and  C_33
REMARK    9  A    between atoms: N_5  and  C_12
REMARK   10  A    between atoms: N_5  and  C_18
REMARK   11  A    between atoms: N_5  and  C_20
REMARK   12  A    between atoms: C_7  and  C_8
REMARK   13  A    between atoms: C_7  and  C_9
REMARK   14  A    between atoms: C_7  and  C_11
REMARK   15  A    between atoms: C_7  and  C_15
REMARK   16  A    between atoms: C_8  and  C_13
REMARK   17  A    between atoms: C_8  and  C_14
REMARK   18  A    between atoms: C_9  and  C_10
REMARK   19  A    between atoms: C_10  and  C_12
REMARK   20  A    between atoms: C_18  and  C_22
REMARK   21  A    between atoms: C_22  and  C_24
REMARK                            x       y       z     vdW  Elec       q    Type
REMARK                         _______ _______ _______ _____ _____    ______ ____
ROOT
ATOM      9  C   UNL     1     167.948 177.044 136.990  0.00  0.00    +0.000 C 
ENDROOT
BRANCH   9   7
ATOM      7  C   UNL     1     167.439 176.855 138.465  0.00  0.00    +0.000 C 
BRANCH   7  11
ATOM     11  C   UNL     1     166.211 177.764 138.709  0.00  0.00    +0.000 A 
ATOM     16  C   UNL     1     165.216 177.366 139.604  0.00  0.00    +0.000 A 
ATOM     17  C   UNL     1     166.098 178.980 138.035  0.00  0.00    +0.000 A 
ATOM     19  C   UNL     1     164.109 178.186 139.824  0.00  0.00    +0.000 A 
ATOM     21  C   UNL     1     164.991 179.799 138.256  0.00  0.00    +0.000 A 
ATOM     23  C   UNL     1     163.996 179.402 139.150  0.00  0.00    +0.000 A 
BRANCH  19   1
ATOM      1  O   UNL     1     163.145 177.787 140.700  0.00  0.00    +0.000 OA
ATOM     28  C   UNL     1     162.196 176.833 140.228  0.00  0.00    +0.000 C 
ENDBRANCH  19   1
BRANCH  23   2
ATOM      2  O   UNL     1     162.920 180.211 139.357  0.00  0.00    +0.000 OA
ATOM     31  C   UNL     1     163.081 181.278 140.289  0.00  0.00    +0.000 C 
ENDBRANCH  23   2
ENDBRANCH   7  11
BRANCH   7   8
ATOM      8  C   UNL     1     168.587 177.251 139.488  0.00  0.00    +0.000 C 
ATOM     13  C   UNL     1     169.878 177.759 138.825  0.00  0.00    +0.000 C 
ATOM     14  C   UNL     1     168.955 176.112 140.459  0.00  0.00    +0.000 C 
ENDBRANCH   7   8
BRANCH   7  15
ATOM      6  N   UNL     1     166.885 174.280 138.777  0.00  0.00    +0.000 NA
ATOM     15  C   UNL     1     167.136 175.404 138.637  0.00  0.00    +0.000 C 
ENDBRANCH   7  15
ENDBRANCH   9   7
BRANCH   9  10
ATOM     10  C   UNL     1     167.094 176.349 135.908  0.00  0.00    +0.000 C 
BRANCH  10  12
ATOM     12  C   UNL     1     167.077 177.117 134.583  0.00  0.00    +0.000 C 
BRANCH  12   5
ATOM      5  N   UNL     1     166.840 176.238 133.446  0.00  0.00    +0.000 NA
ATOM     20  C   UNL     1     165.962 176.884 132.469  0.00  0.00    +0.000 C 
BRANCH   5  18
ATOM     18  C   UNL     1     168.106 175.857 132.815  0.00  0.00    +0.000 C 
BRANCH  18  22
ATOM     22  C   UNL     1     168.231 174.338 132.711  0.00  0.00    +0.000 C 
BRANCH  22  24
ATOM     24  C   UNL     1     169.459 173.832 133.428  0.00  0.00    +0.000 A 
ATOM     25  C   UNL     1     169.440 173.669 134.812  0.00  0.00    +0.000 A 
ATOM     26  C   UNL     1     170.612 173.527 132.704  0.00  0.00    +0.000 A 
ATOM     27  C   UNL     1     170.576 173.200 135.475  0.00  0.00    +0.000 A 
ATOM     29  C   UNL     1     171.747 173.060 133.366  0.00  0.00    +0.000 A 
ATOM     30  C   UNL     1     171.729 172.896 134.751  0.00  0.00    +0.000 A 
BRANCH  27   3
ATOM      3  O   UNL     1     170.546 173.045 136.828  0.00  0.00    +0.000 OA
ATOM     32  C   UNL     1     170.598 174.232 137.618  0.00  0.00    +0.000 C 
ENDBRANCH  27   3
BRANCH  30   4
ATOM      4  O   UNL     1     172.844 172.438 135.386  0.00  0.00    +0.000 OA
ATOM     33  C   UNL     1     173.912 173.365 135.568  0.00  0.00    +0.000 C 
ENDBRANCH  30   4
ENDBRANCH  22  24
ENDBRANCH  18  22
ENDBRANCH   5  18
ENDBRANCH  12   5
ENDBRANCH  10  12
ENDBRANCH   9  10
TORSDOF 14
ENDMDL
MODEL 2
REMARK VINA RESULT:      -7.1     24.459     27.296
REMARK  Name = 2520
REMARK  21 active torsions:
REMARK  status: ('A' for Active; 'I' for Inactive)
REMARK    1  A    between atoms: O_1  and  C_19
REMARK    2  A    between atoms: O_1  and  C_28
REMARK    3  A    between atoms: O_2  and  C_23
REMARK    4  A    between atoms: O_2  and  C_31
REMARK    5  A    between atoms: O_3  and  C_27
REMARK    6  A    between atoms: O_3  and  C_32
REMARK    7  A    between atoms: O_4  and  C_30
REMARK    8  A    between atoms: O_4  and  C_33
REMARK    9  A    between atoms: N_5  and  C_12
REMARK   10  A    between atoms: N_5  and  C_18
REMARK   11  A    between atoms: N_5  and  C_20
REMARK   12  A    between atoms: C_7  and  C_8
REMARK   13  A    between atoms: C_7  and  C_9
REMARK   14  A    between atoms: C_7  and  C_11
REMARK   15  A    between atoms: C_7  and  C_15
REMARK   16  A    between atoms: C_8  and  C_13
REMARK   17  A    between atoms: C_8  and  C_14
REMARK   18  A    between atoms: C_9  and  C_10
REMARK   19  A    between atoms: C_10  and  C_12
REMARK   20  A    between atoms: C_18  and  C_22
REMARK   21  A    between atoms: C_22  and  C_24
REMARK                            x       y       z     vdW  Elec       q    Type
REMARK                         _______ _______ _______ _____ _____    ______ ____
ROOT
ATOM      9  C   UNL     1     167.173 171.601 161.535  0.00  0.00    +0.000 C 
ENDROOT
BRANCH   9   7
ATOM      7  C   UNL     1     167.848 171.339 162.929  0.00  0.00    +0.000 C 
BRANCH   7  11
ATOM     11  C   UNL     1     168.847 172.479 163.243  0.00  0.00    +0.000 A 
ATOM     16  C   UNL     1     169.854 172.794 162.330  0.00  0.00    +0.000 A 
ATOM     17  C   UNL     1     168.740 173.190 164.438  0.00  0.00    +0.000 A 
ATOM     19  C   UNL     1     170.754 173.821 162.613  0.00  0.00    +0.000 A 
ATOM     21  C   UNL     1     169.640 174.218 164.720  0.00  0.00    +0.000 A 
ATOM     23  C   UNL     1     170.648 174.533 163.809  0.00  0.00    +0.000 A 
BRANCH  19   1
ATOM      1  O   UNL     1     171.733 174.120 161.715  0.00  0.00    +0.000 OA
ATOM     28  C   UNL     1     172.315 173.029 161.004  0.00  0.00    +0.000 C 
ENDBRANCH  19   1
BRANCH  23   2
ATOM      2  O   UNL     1     171.520 175.539 164.096  0.00  0.00    +0.000 OA
ATOM     31  C   UNL     1     170.960 176.793 164.479  0.00  0.00    +0.000 C 
ENDBRANCH  23   2
ENDBRANCH   7  11
BRANCH   7   8
ATOM      8  C   UNL     1     168.633 169.959 162.900  0.00  0.00    +0.000 C 
ATOM     13  C   UNL     1     167.726 168.717 162.869  0.00  0.00    +0.000 C 
ATOM     14  C   UNL     1     169.631 169.803 164.063  0.00  0.00    +0.000 C 
ENDBRANCH   7   8
BRANCH   7  15
ATOM      6  N   UNL     1     165.898 171.166 164.718  0.00  0.00    +0.000 NA
ATOM     15  C   UNL     1     166.748 171.234 163.931  0.00  0.00    +0.000 C 
ENDBRANCH   7  15
ENDBRANCH   9   7
BRANCH   9  10
ATOM     10  C   UNL     1     165.732 171.067 161.394  0.00  0.00    +0.000 C 
BRANCH  10  12
ATOM     12  C   UNL     1     164.992 171.669 160.194  0.00  0.00    +0.000 C 
BRANCH  12   5
ATOM      5  N   UNL     1     163.547 171.657 160.382  0.00  0.00    +0.000 NA
ATOM     20  C   UNL     1     162.956 170.471 159.758  0.00  0.00    +0.000 C 
BRANCH   5  18
ATOM     18  C   UNL     1     163.212 171.700 161.807  0.00  0.00    +0.000 C 
BRANCH  18  22
ATOM     22  C   UNL     1     162.726 173.090 162.213  0.00  0.00    +0.000 C 
BRANCH  22  24
ATOM     24  C   UNL     1     163.667 173.741 163.197  0.00  0.00    +0.000 A 
ATOM     25  C   UNL     1     164.818 174.382 162.741  0.00  0.00    +0.000 A 
ATOM     26  C   UNL     1     163.385 173.702 164.563  0.00  0.00    +0.000 A 
ATOM     27  C   UNL     1     165.688 174.985 163.650  0.00  0.00    +0.000 A 
ATOM     29  C   UNL     1     164.255 174.304 165.472  0.00  0.00    +0.000 A 
ATOM     30  C   UNL     1     165.406 174.945 165.016  0.00  0.00    +0.000 A 
BRANCH  27   3
ATOM      3  O   UNL     1     166.810 175.608 163.193  0.00  0.00    +0.000 OA
ATOM     32  C   UNL     1     167.153 175.402 161.824  0.00  0.00    +0.000 C 
ENDBRANCH  27   3
BRANCH  30   4
ATOM      4  O   UNL     1     166.247 175.529 165.914  0.00  0.00    +0.000 OA
ATOM     33  C   UNL     1     166.330 174.933 167.207  0.00  0.00    +0.000 C 
ENDBRANCH  30   4
ENDBRANCH  22  24
ENDBRANCH  18  22
ENDBRANCH   5  18
ENDBRANCH  12   5
ENDBRANCH  10  12
ENDBRANCH   9  10
TORSDOF 14
ENDMDL
MODEL 3
REMARK VINA RESULT:      -6.8      6.042     10.953
REMARK  Name = 2520
REMARK  21 active torsions:
REMARK  status: ('A' for Active; 'I' for Inactive)
REMARK    1  A    between atoms: O_1  and  C_19
REMARK    2  A    between atoms: O_1  and  C_28
REMARK    3  A    between atoms: O_2  and  C_23
REMARK    4  A    between atoms: O_2  and  C_31
REMARK    5  A    between atoms: O_3  and  C_27
REMARK    6  A    between atoms: O_3  and  C_32
REMARK    7  A    between atoms: O_4  and  C_30
REMARK    8  A    between atoms: O_4  and  C_33
REMARK    9  A    between atoms: N_5  and  C_12
REMARK   10  A    between atoms: N_5  and  C_18
REMARK   11  A    between atoms: N_5  and  C_20
REMARK   12  A    between atoms: C_7  and  C_8
REMARK   13  A    between atoms: C_7  and  C_9
REMARK   14  A    between atoms: C_7  and  C_11
REMARK   15  A    between atoms: C_7  and  C_15
REMARK   16  A    between atoms: C_8  and  C_13
REMARK   17  A    between atoms: C_8  and  C_14
REMARK   18  A    between atoms: C_9  and  C_10
REMARK   19  A    between atoms: C_10  and  C_12
REMARK   20  A    between atoms: C_18  and  C_22
REMARK   21  A    between atoms: C_22  and  C_24
REMARK                            x       y       z     vdW  Elec       q    Type
REMARK                         _______ _______ _______ _____ _____    ______ ____
ROOT
ATOM      9  C   UNL     1     174.058 174.860 141.813  0.00  0.00    +0.000 C 
ENDROOT
BRANCH   9   7
ATOM      7  C   UNL     1     175.143 175.803 142.449  0.00  0.00    +0.000 C 
BRANCH   7  11
ATOM     11  C   UNL     1     176.481 175.037 142.581  0.00  0.00    +0.000 A 
ATOM     16  C   UNL     1     177.287 174.842 141.458  0.00  0.00    +0.000 A 
ATOM     17  C   UNL     1     176.881 174.541 143.822  0.00  0.00    +0.000 A 
ATOM     19  C   UNL     1     178.492 174.152 141.577  0.00  0.00    +0.000 A 
ATOM     21  C   UNL     1     178.088 173.852 143.940  0.00  0.00    +0.000 A 
ATOM     23  C   UNL     1     178.894 173.656 142.818  0.00  0.00    +0.000 A 
BRANCH  19   1
ATOM      1  O   UNL     1     179.270 173.968 140.474  0.00  0.00    +0.000 OA
ATOM     28  C   UNL     1     180.232 174.980 140.183  0.00  0.00    +0.000 C 
ENDBRANCH  19   1
BRANCH  23   2
ATOM      2  O   UNL     1     180.070 172.981 142.947  0.00  0.00    +0.000 OA
ATOM     31  C   UNL     1     180.509 172.692 144.272  0.00  0.00    +0.000 C 
ENDBRANCH  23   2
ENDBRANCH   7  11
BRANCH   7   8
ATOM      8  C   UNL     1     174.673 176.273 143.891  0.00  0.00    +0.000 C 
ATOM     13  C   UNL     1     173.456 175.509 144.440  0.00  0.00    +0.000 C 
ATOM     14  C   UNL     1     174.373 177.783 143.968  0.00  0.00    +0.000 C 
ENDBRANCH   7   8
BRANCH   7  15
ATOM      6  N   UNL     1     175.334 177.939 140.889  0.00  0.00    +0.000 NA
ATOM     15  C   UNL     1     175.241 177.004 141.570  0.00  0.00    +0.000 C 
ENDBRANCH   7  15
ENDBRANCH   9   7
BRANCH   9  10
ATOM     10  C   UNL     1     172.975 175.576 140.978  0.00  0.00    +0.000 C 
BRANCH  10  12
ATOM     12  C   UNL     1     173.082 175.269 139.481  0.00  0.00    +0.000 C 
BRANCH  12   5
ATOM      5  N   UNL     1     172.568 176.359 138.663  0.00  0.00    +0.000 NA
ATOM     20  C   UNL     1     171.983 175.843 137.424  0.00  0.00    +0.000 C 
BRANCH   5  18
ATOM     18  C   UNL     1     171.575 177.139 139.406  0.00  0.00    +0.000 C 
BRANCH  18  22
ATOM     22  C   UNL     1     171.093 178.335 138.586  0.00  0.00    +0.000 C 
BRANCH  22  24
ATOM     24  C   UNL     1     169.590 178.344 138.450  0.00  0.00    +0.000 A 
ATOM     25  C   UNL     1     168.833 177.321 139.020  0.00  0.00    +0.000 A 
ATOM     26  C   UNL     1     168.959 179.377 137.757  0.00  0.00    +0.000 A 
ATOM     27  C   UNL     1     167.443 177.331 138.896  0.00  0.00    +0.000 A 
ATOM     29  C   UNL     1     167.570 179.386 137.633  0.00  0.00    +0.000 A 
ATOM     30  C   UNL     1     166.812 178.364 138.202  0.00  0.00    +0.000 A 
BRANCH  27   3
ATOM      3  O   UNL     1     166.713 176.326 139.456  0.00  0.00    +0.000 OA
ATOM     32  C   UNL     1     166.789 175.045 138.833  0.00  0.00    +0.000 C 
ENDBRANCH  27   3
BRANCH  30   4
ATOM      4  O   UNL     1     165.456 178.384 138.074  0.00  0.00    +0.000 OA
ATOM     33  C   UNL     1     164.715 178.998 139.126  0.00  0.00    +0.000 C 
ENDBRANCH  30   4
ENDBRANCH  22  24
ENDBRANCH  18  22
ENDBRANCH   5  18
ENDBRANCH  12   5
ENDBRANCH  10  12
ENDBRANCH   9  10
TORSDOF 14
ENDMDL
MODEL 4
REMARK VINA RESULT:      -6.7     23.365     26.523
REMARK  Name = 2520
REMARK  21 active torsions:
REMARK  status: ('A' for Active; 'I' for Inactive)
REMARK    1  A    between atoms: O_1  and  C_19
REMARK    2  A    between atoms: O_1  and  C_28
REMARK    3  A    between atoms: O_2  and  C_23
REMARK    4  A    between atoms: O_2  and  C_31
REMARK    5  A    between atoms: O_3  and  C_27
REMARK    6  A    between atoms: O_3  and  C_32
REMARK    7  A    between atoms: O_4  and  C_30
REMARK    8  A    between atoms: O_4  and  C_33
REMARK    9  A    between atoms: N_5  and  C_12
REMARK   10  A    between atoms: N_5  and  C_18
REMARK   11  A    between atoms: N_5  and  C_20
REMARK   12  A    between atoms: C_7  and  C_8
REMARK   13  A    between atoms: C_7  and  C_9
REMARK   14  A    between atoms: C_7  and  C_11
REMARK   15  A    between atoms: C_7  and  C_15
REMARK   16  A    between atoms: C_8  and  C_13
REMARK   17  A    between atoms: C_8  and  C_14
REMARK   18  A    between atoms: C_9  and  C_10
REMARK   19  A    between atoms: C_10  and  C_12
REMARK   20  A    between atoms: C_18  and  C_22
REMARK   21  A    between atoms: C_22  and  C_24
REMARK                            x       y       z     vdW  Elec       q    Type
REMARK                         _______ _______ _______ _____ _____    ______ ____
ROOT
ATOM      9  C   UNL     1     165.123 170.108 161.664  0.00  0.00    +0.000 C 
ENDROOT
BRANCH   9   7
ATOM      7  C   UNL     1     165.448 169.408 160.296  0.00  0.00    +0.000 C 
BRANCH   7  11
ATOM     11  C   UNL     1     166.729 168.552 160.443  0.00  0.00    +0.000 A 
ATOM     16  C   UNL     1     167.545 168.707 161.565  0.00  0.00    +0.000 A 
ATOM     17  C   UNL     1     167.068 167.628 159.455  0.00  0.00    +0.000 A 
ATOM     19  C   UNL     1     168.699 167.936 161.697  0.00  0.00    +0.000 A 
ATOM     21  C   UNL     1     168.222 166.856 159.589  0.00  0.00    +0.000 A 
ATOM     23  C   UNL     1     169.039 167.010 160.710  0.00  0.00    +0.000 A 
BRANCH  19   1
ATOM      1  O   UNL     1     169.488 168.095 162.797  0.00  0.00    +0.000 OA
ATOM     28  C   UNL     1     169.005 167.555 164.024  0.00  0.00    +0.000 C 
ENDBRANCH  19   1
BRANCH  23   2
ATOM      2  O   UNL     1     170.164 166.251 160.828  0.00  0.00    +0.000 OA
ATOM     31  C   UNL     1     170.043 165.021 161.538  0.00  0.00    +0.000 C 
ENDBRANCH  23   2
ENDBRANCH   7  11
BRANCH   7   8
ATOM      8  C   UNL     1     165.685 170.503 159.170  0.00  0.00    +0.000 C 
ATOM     13  C   UNL     1     166.301 171.815 159.685  0.00  0.00    +0.000 C 
ATOM     14  C   UNL     1     164.408 170.843 158.377  0.00  0.00    +0.000 C 
ENDBRANCH   7   8
BRANCH   7  15
ATOM      6  N   UNL     1     163.316 167.969 159.650  0.00  0.00    +0.000 NA
ATOM     15  C   UNL     1     164.248 168.603 159.925  0.00  0.00    +0.000 C 
ENDBRANCH   7  15
ENDBRANCH   9   7
BRANCH   9  10
ATOM     10  C   UNL     1     163.630 170.419 161.904  0.00  0.00    +0.000 C 
BRANCH  10  12
ATOM     12  C   UNL     1     163.327 171.920 161.881  0.00  0.00    +0.000 C 
BRANCH  12   5
ATOM      5  N   UNL     1     163.063 172.443 163.215  0.00  0.00    +0.000 NA
ATOM     20  C   UNL     1     162.928 171.351 164.181  0.00  0.00    +0.000 C 
BRANCH   5  18
ATOM     18  C   UNL     1     164.128 173.359 163.631  0.00  0.00    +0.000 C 
BRANCH  18  22
ATOM     22  C   UNL     1     164.789 174.017 162.421  0.00  0.00    +0.000 C 
BRANCH  22  24
ATOM     24  C   UNL     1     166.270 174.211 162.635  0.00  0.00    +0.000 A 
ATOM     25  C   UNL     1     166.967 173.360 163.492  0.00  0.00    +0.000 A 
ATOM     26  C   UNL     1     166.940 175.241 161.976  0.00  0.00    +0.000 A 
ATOM     27  C   UNL     1     168.337 173.538 163.689  0.00  0.00    +0.000 A 
ATOM     29  C   UNL     1     168.309 175.420 162.174  0.00  0.00    +0.000 A 
ATOM     30  C   UNL     1     169.008 174.569 163.029  0.00  0.00    +0.000 A 
BRANCH  27   3
ATOM      3  O   UNL     1     169.009 172.701 164.528  0.00  0.00    +0.000 OA
ATOM     32  C   UNL     1     169.307 171.395 164.038  0.00  0.00    +0.000 C 
ENDBRANCH  27   3
BRANCH  30   4
ATOM      4  O   UNL     1     170.345 174.754 163.214  0.00  0.00    +0.000 OA
ATOM     33  C   UNL     1     171.212 174.284 162.184  0.00  0.00    +0.000 C 
ENDBRANCH  30   4
ENDBRANCH  22  24
ENDBRANCH  18  22
ENDBRANCH   5  18
ENDBRANCH  12   5
ENDBRANCH  10  12
ENDBRANCH   9  10
TORSDOF 14
ENDMDL
MODEL 5
REMARK VINA RESULT:      -6.7     12.535     16.497
REMARK  Name = 2520
REMARK  21 active torsions:
REMARK  status: ('A' for Active; 'I' for Inactive)
REMARK    1  A    between atoms: O_1  and  C_19
REMARK    2  A    between atoms: O_1  and  C_28
REMARK    3  A    between atoms: O_2  and  C_23
REMARK    4  A    between atoms: O_2  and  C_31
REMARK    5  A    between atoms: O_3  and  C_27
REMARK    6  A    between atoms: O_3  and  C_32
REMARK    7  A    between atoms: O_4  and  C_30
REMARK    8  A    between atoms: O_4  and  C_33
REMARK    9  A    between atoms: N_5  and  C_12
REMARK   10  A    between atoms: N_5  and  C_18
REMARK   11  A    between atoms: N_5  and  C_20
REMARK   12  A    between atoms: C_7  and  C_8
REMARK   13  A    between atoms: C_7  and  C_9
REMARK   14  A    between atoms: C_7  and  C_11
REMARK   15  A    between atoms: C_7  and  C_15
REMARK   16  A    between atoms: C_8  and  C_13
REMARK   17  A    between atoms: C_8  and  C_14
REMARK   18  A    between atoms: C_9  and  C_10
REMARK   19  A    between atoms: C_10  and  C_12
REMARK   20  A    between atoms: C_18  and  C_22
REMARK   21  A    between atoms: C_22  and  C_24
REMARK                            x       y       z     vdW  Elec       q    Type
REMARK                         _______ _______ _______ _____ _____    ______ ____
ROOT
ATOM      9  C   UNL     1     178.656 183.422 130.237  0.00  0.00    +0.000 C 
ENDROOT
BRANCH   9   7
ATOM      7  C   UNL     1     179.750 183.530 129.114  0.00  0.00    +0.000 C 
BRANCH   7  11
ATOM     11  C   UNL     1     179.822 182.197 128.332  0.00  0.00    +0.000 A 
ATOM     16  C   UNL     1     179.224 181.049 128.854  0.00  0.00    +0.000 A 
ATOM     17  C   UNL     1     180.485 182.142 127.106  0.00  0.00    +0.000 A 
ATOM     19  C   UNL     1     179.289 179.848 128.150  0.00  0.00    +0.000 A 
ATOM     21  C   UNL     1     180.549 180.940 126.401  0.00  0.00    +0.000 A 
ATOM     23  C   UNL     1     179.952 179.792 126.923  0.00  0.00    +0.000 A 
BRANCH  19   1
ATOM      1  O   UNL     1     178.702 178.734 128.669  0.00  0.00    +0.000 OA
ATOM     28  C   UNL     1     179.430 178.024 129.668  0.00  0.00    +0.000 C 
ENDBRANCH  19   1
BRANCH  23   2
ATOM      2  O   UNL     1     180.022 178.625 126.225  0.00  0.00    +0.000 OA
ATOM     31  C   UNL     1     181.282 177.959 126.199  0.00  0.00    +0.000 C 
ENDBRANCH  23   2
ENDBRANCH   7  11
BRANCH   7   8
ATOM      8  C   UNL     1     181.168 183.824 129.766  0.00  0.00    +0.000 C 
ATOM     13  C   UNL     1     181.649 182.742 130.747  0.00  0.00    +0.000 C 
ATOM     14  C   UNL     1     181.238 185.190 130.475  0.00  0.00    +0.000 C 
ENDBRANCH   7   8
BRANCH   7  15
ATOM      6  N   UNL     1     179.080 185.603 127.601  0.00  0.00    +0.000 NA
ATOM     15  C   UNL     1     179.377 184.692 128.255  0.00  0.00    +0.000 C 
ENDBRANCH   7  15
ENDBRANCH   9   7
BRANCH   9  10
ATOM     10  C   UNL     1     177.437 184.351 130.056  0.00  0.00    +0.000 C 
BRANCH  10  12
ATOM     12  C   UNL     1     176.198 183.608 129.546  0.00  0.00    +0.000 C 
BRANCH  12   5
ATOM      5  N   UNL     1     175.376 183.105 130.639  0.00  0.00    +0.000 NA
ATOM     20  C   UNL     1     175.700 181.706 130.927  0.00  0.00    +0.000 C 
BRANCH   5  18
ATOM     18  C   UNL     1     175.555 183.924 131.840  0.00  0.00    +0.000 C 
BRANCH  18  22
ATOM     22  C   UNL     1     174.215 184.463 132.340  0.00  0.00    +0.000 C 
BRANCH  22  24
ATOM     24  C   UNL     1     173.567 185.369 131.322  0.00  0.00    +0.000 A 
ATOM     25  C   UNL     1     172.338 185.022 130.763  0.00  0.00    +0.000 A 
ATOM     26  C   UNL     1     174.197 186.554 130.943  0.00  0.00    +0.000 A 
ATOM     27  C   UNL     1     171.737 185.861 129.823  0.00  0.00    +0.000 A 
ATOM     29  C   UNL     1     173.598 187.391 130.002  0.00  0.00    +0.000 A 
ATOM     30  C   UNL     1     172.368 187.045 129.443  0.00  0.00    +0.000 A 
BRANCH  27   3
ATOM      3  O   UNL     1     170.536 185.511 129.283  0.00  0.00    +0.000 OA
ATOM     32  C   UNL     1     169.661 184.734 130.099  0.00  0.00    +0.000 C 
ENDBRANCH  27   3
BRANCH  30   4
ATOM      4  O   UNL     1     171.793 187.872 128.526  0.00  0.00    +0.000 OA
ATOM     33  C   UNL     1     172.541 188.150 127.345  0.00  0.00    +0.000 C 
ENDBRANCH  30   4
ENDBRANCH  22  24
ENDBRANCH  18  22
ENDBRANCH   5  18
ENDBRANCH  12   5
ENDBRANCH  10  12
ENDBRANCH   9  10
TORSDOF 14
ENDMDL
MODEL 6
REMARK VINA RESULT:      -6.6     22.353     25.379
REMARK  Name = 2520
REMARK  21 active torsions:
REMARK  status: ('A' for Active; 'I' for Inactive)
REMARK    1  A    between atoms: O_1  and  C_19
REMARK    2  A    between atoms: O_1  and  C_28
REMARK    3  A    between atoms: O_2  and  C_23
REMARK    4  A    between atoms: O_2  and  C_31
REMARK    5  A    between atoms: O_3  and  C_27
REMARK    6  A    between atoms: O_3  and  C_32
REMARK    7  A    between atoms: O_4  and  C_30
REMARK    8  A    between atoms: O_4  and  C_33
REMARK    9  A    between atoms: N_5  and  C_12
REMARK   10  A    between atoms: N_5  and  C_18
REMARK   11  A    between atoms: N_5  and  C_20
REMARK   12  A    between atoms: C_7  and  C_8
REMARK   13  A    between atoms: C_7  and  C_9
REMARK   14  A    between atoms: C_7  and  C_11
REMARK   15  A    between atoms: C_7  and  C_15
REMARK   16  A    between atoms: C_8  and  C_13
REMARK   17  A    between atoms: C_8  and  C_14
REMARK   18  A    between atoms: C_9  and  C_10
REMARK   19  A    between atoms: C_10  and  C_12
REMARK   20  A    between atoms: C_18  and  C_22
REMARK   21  A    between atoms: C_22  and  C_24
REMARK                            x       y       z     vdW  Elec       q    Type
REMARK                         _______ _______ _______ _____ _____    ______ ____
ROOT
ATOM      9  C   UNL     1     176.891 185.164 161.261  0.00  0.00    +0.000 C 
ENDROOT
BRANCH   9   7
ATOM      7  C   UNL     1     177.153 186.702 161.449  0.00  0.00    +0.000 C 
BRANCH   7  11
ATOM     11  C   UNL     1     178.278 187.157 160.490  0.00  0.00    +0.000 A 
ATOM     16  C   UNL     1     179.613 187.056 160.883  0.00  0.00    +0.000 A 
ATOM     17  C   UNL     1     177.958 187.668 159.232  0.00  0.00    +0.000 A 
ATOM     19  C   UNL     1     180.627 187.466 160.018  0.00  0.00    +0.000 A 
ATOM     21  C   UNL     1     178.973 188.077 158.367  0.00  0.00    +0.000 A 
ATOM     23  C   UNL     1     180.308 187.977 158.760  0.00  0.00    +0.000 A 
BRANCH  19   1
ATOM      1  O   UNL     1     181.927 187.362 160.414  0.00  0.00    +0.000 OA
ATOM     28  C   UNL     1     182.412 188.358 161.312  0.00  0.00    +0.000 C 
ENDBRANCH  19   1
BRANCH  23   2
ATOM      2  O   UNL     1     181.290 188.380 157.906  0.00  0.00    +0.000 OA
ATOM     31  C   UNL     1     181.620 187.498 156.836  0.00  0.00    +0.000 C 
ENDBRANCH  23   2
ENDBRANCH   7  11
BRANCH   7   8
ATOM      8  C   UNL     1     177.599 186.996 162.944  0.00  0.00    +0.000 C 
ATOM     13  C   UNL     1     177.141 185.936 163.961  0.00  0.00    +0.000 C 
ATOM     14  C   UNL     1     177.150 188.381 163.450  0.00  0.00    +0.000 C 
ENDBRANCH   7   8
BRANCH   7  15
ATOM      6  N   UNL     1     174.856 187.949 161.002  0.00  0.00    +0.000 NA
ATOM     15  C   UNL     1     175.856 187.396 161.199  0.00  0.00    +0.000 C 
ENDBRANCH   7  15
ENDBRANCH   9   7
BRANCH   9  10
ATOM     10  C   UNL     1     175.692 184.808 160.356  0.00  0.00    +0.000 C 
BRANCH  10  12
ATOM     12  C   UNL     1     176.111 184.489 158.917  0.00  0.00    +0.000 C 
BRANCH  12   5
ATOM      5  N   UNL     1     175.226 183.513 158.295  0.00  0.00    +0.000 NA
ATOM     20  C   UNL     1     173.993 184.155 157.834  0.00  0.00    +0.000 C 
BRANCH   5  18
ATOM     18  C   UNL     1     175.897 182.844 157.178  0.00  0.00    +0.000 C 
BRANCH  18  22
ATOM     22  C   UNL     1     175.739 183.644 155.886  0.00  0.00    +0.000 C 
BRANCH  22  24
ATOM     24  C   UNL     1     176.022 182.796 154.671  0.00  0.00    +0.000 A 
ATOM     25  C   UNL     1     176.207 183.400 153.428  0.00  0.00    +0.000 A 
ATOM     26  C   UNL     1     176.101 181.409 154.792  0.00  0.00    +0.000 A 
ATOM     27  C   UNL     1     176.470 182.615 152.304  0.00  0.00    +0.000 A 
ATOM     29  C   UNL     1     176.363 180.625 153.669  0.00  0.00    +0.000 A 
ATOM     30  C   UNL     1     176.548 181.227 152.425  0.00  0.00    +0.000 A 
BRANCH  27   3
ATOM      3  O   UNL     1     176.649 183.215 151.094  0.00  0.00    +0.000 OA
ATOM     32  C   UNL     1     177.431 184.408 151.071  0.00  0.00    +0.000 C 
ENDBRANCH  27   3
BRANCH  30   4
ATOM      4  O   UNL     1     176.804 180.451 151.336  0.00  0.00    +0.000 OA
ATOM     33  C   UNL     1     176.032 179.261 151.192  0.00  0.00    +0.000 C 
ENDBRANCH  30   4
ENDBRANCH  22  24
ENDBRANCH  18  22
ENDBRANCH   5  18
ENDBRANCH  12   5
ENDBRANCH  10  12
ENDBRANCH   9  10
TORSDOF 14
ENDMDL
MODEL 7
REMARK VINA RESULT:      -6.5     29.218     32.850
REMARK  Name = 2520
REMARK  21 active torsions:
REMARK  status: ('A' for Active; 'I' for Inactive)
REMARK    1  A    between atoms: O_1  and  C_19
REMARK    2  A    between atoms: O_1  and  C_28
REMARK    3  A    between atoms: O_2  and  C_23
REMARK    4  A    between atoms: O_2  and  C_31
REMARK    5  A    between atoms: O_3  and  C_27
REMARK    6  A    between atoms: O_3  and  C_32
REMARK    7  A    between atoms: O_4  and  C_30
REMARK    8  A    between atoms: O_4  and  C_33
REMARK    9  A    between atoms: N_5  and  C_12
REMARK   10  A    between atoms: N_5  and  C_18
REMARK   11  A    between atoms: N_5  and  C_20
REMARK   12  A    between atoms: C_7  and  C_8
REMARK   13  A    between atoms: C_7  and  C_9
REMARK   14  A    between atoms: C_7  and  C_11
REMARK   15  A    between atoms: C_7  and  C_15
REMARK   16  A    between atoms: C_8  and  C_13
REMARK   17  A    between atoms: C_8  and  C_14
REMARK   18  A    between atoms: C_9  and  C_10
REMARK   19  A    between atoms: C_10  and  C_12
REMARK   20  A    between atoms: C_18  and  C_22
REMARK   21  A    between atoms: C_22  and  C_24
REMARK                            x       y       z     vdW  Elec       q    Type
REMARK                         _______ _______ _______ _____ _____    ______ ____
ROOT
ATOM      9  C   UNL     1     187.225 186.268 160.763  0.00  0.00    +0.000 C 
ENDROOT
BRANCH   9   7
ATOM      7  C   UNL     1     186.807 184.893 161.398  0.00  0.00    +0.000 C 
BRANCH   7  11
ATOM     11  C   UNL     1     188.015 184.280 162.145  0.00  0.00    +0.000 A 
ATOM     16  C   UNL     1     189.315 184.622 161.768  0.00  0.00    +0.000 A 
ATOM     17  C   UNL     1     187.806 183.385 163.195  0.00  0.00    +0.000 A 
ATOM     19  C   UNL     1     190.404 184.069 162.441  0.00  0.00    +0.000 A 
ATOM     21  C   UNL     1     188.896 182.833 163.868  0.00  0.00    +0.000 A 
ATOM     23  C   UNL     1     190.195 183.174 163.491  0.00  0.00    +0.000 A 
BRANCH  19   1
ATOM      1  O   UNL     1     191.668 184.411 162.064  0.00  0.00    +0.000 OA
ATOM     28  C   UNL     1     191.926 184.494 160.665  0.00  0.00    +0.000 C 
ENDBRANCH  19   1
BRANCH  23   2
ATOM      2  O   UNL     1     191.250 182.628 164.157  0.00  0.00    +0.000 OA
ATOM     31  C   UNL     1     190.981 182.038 165.426  0.00  0.00    +0.000 C 
ENDBRANCH  23   2
ENDBRANCH   7  11
BRANCH   7   8
ATOM      8  C   UNL     1     186.341 183.890 160.259  0.00  0.00    +0.000 C 
ATOM     13  C   UNL     1     187.154 183.989 158.957  0.00  0.00    +0.000 C 
ATOM     14  C   UNL     1     184.845 184.021 159.910  0.00  0.00    +0.000 C 
ENDBRANCH   7   8
BRANCH   7  15
ATOM      6  N   UNL     1     184.750 185.379 163.000  0.00  0.00    +0.000 NA
ATOM     15  C   UNL     1     185.644 185.164 162.292  0.00  0.00    +0.000 C 
ENDBRANCH   7  15
ENDBRANCH   9   7
BRANCH   9  10
ATOM     10  C   UNL     1     186.067 187.263 160.532  0.00  0.00    +0.000 C 
BRANCH  10  12
ATOM     12  C   UNL     1     186.538 188.719 160.486  0.00  0.00    +0.000 C 
BRANCH  12   5
ATOM      5  N   UNL     1     185.585 189.621 161.120  0.00  0.00    +0.000 NA
ATOM     20  C   UNL     1     185.325 190.781 160.265  0.00  0.00    +0.000 C 
BRANCH   5  18
ATOM     18  C   UNL     1     184.333 188.923 161.420  0.00  0.00    +0.000 C 
BRANCH  18  22
ATOM     22  C   UNL     1     183.159 189.559 160.677  0.00  0.00    +0.000 C 
BRANCH  22  24
ATOM     24  C   UNL     1     181.943 188.667 160.695  0.00  0.00    +0.000 A 
ATOM     25  C   UNL     1     180.998 188.758 159.674  0.00  0.00    +0.000 A 
ATOM     26  C   UNL     1     181.766 187.750 161.731  0.00  0.00    +0.000 A 
ATOM     27  C   UNL     1     179.873 187.931 159.689  0.00  0.00    +0.000 A 
ATOM     29  C   UNL     1     180.641 186.925 161.747  0.00  0.00    +0.000 A 
ATOM     30  C   UNL     1     179.696 187.015 160.726  0.00  0.00    +0.000 A 
BRANCH  27   3
ATOM      3  O   UNL     1     178.956 188.028 158.687  0.00  0.00    +0.000 OA
ATOM     32  C   UNL     1     179.183 189.028 157.695  0.00  0.00    +0.000 C 
ENDBRANCH  27   3
BRANCH  30   4
ATOM      4  O   UNL     1     178.602 186.203 160.753  0.00  0.00    +0.000 OA
ATOM     33  C   UNL     1     177.997 185.973 162.023  0.00  0.00    +0.000 C 
ENDBRANCH  30   4
ENDBRANCH  22  24
ENDBRANCH  18  22
ENDBRANCH   5  18
ENDBRANCH  12   5
ENDBRANCH  10  12
ENDBRANCH   9  10
TORSDOF 14
ENDMDL
MODEL 8
REMARK VINA RESULT:      -6.5     27.488     32.313
REMARK  Name = 2520
REMARK  21 active torsions:
REMARK  status: ('A' for Active; 'I' for Inactive)
REMARK    1  A    between atoms: O_1  and  C_19
REMARK    2  A    between atoms: O_1  and  C_28
REMARK    3  A    between atoms: O_2  and  C_23
REMARK    4  A    between atoms: O_2  and  C_31
REMARK    5  A    between atoms: O_3  and  C_27
REMARK    6  A    between atoms: O_3  and  C_32
REMARK    7  A    between atoms: O_4  and  C_30
REMARK    8  A    between atoms: O_4  and  C_33
REMARK    9  A    between atoms: N_5  and  C_12
REMARK   10  A    between atoms: N_5  and  C_18
REMARK   11  A    between atoms: N_5  and  C_20
REMARK   12  A    between atoms: C_7  and  C_8
REMARK   13  A    between atoms: C_7  and  C_9
REMARK   14  A    between atoms: C_7  and  C_11
REMARK   15  A    between atoms: C_7  and  C_15
REMARK   16  A    between atoms: C_8  and  C_13
REMARK   17  A    between atoms: C_8  and  C_14
REMARK   18  A    between atoms: C_9  and  C_10
REMARK   19  A    between atoms: C_10  and  C_12
REMARK   20  A    between atoms: C_18  and  C_22
REMARK   21  A    between atoms: C_22  and  C_24
REMARK                            x       y       z     vdW  Elec       q    Type
REMARK                         _______ _______ _______ _____ _____    ______ ____
ROOT
ATOM      9  C   UNL     1     165.825 184.182 164.804  0.00  0.00    +0.000 C 
ENDROOT
BRANCH   9   7
ATOM      7  C   UNL     1     166.379 185.602 164.421  0.00  0.00    +0.000 C 
BRANCH   7  11
ATOM     11  C   UNL     1     165.286 186.400 163.673  0.00  0.00    +0.000 A 
ATOM     16  C   UNL     1     165.146 186.264 162.291  0.00  0.00    +0.000 A 
ATOM     17  C   UNL     1     164.440 187.256 164.379  0.00  0.00    +0.000 A 
ATOM     19  C   UNL     1     164.160 186.983 161.616  0.00  0.00    +0.000 A 
ATOM     21  C   UNL     1     163.454 187.974 163.703  0.00  0.00    +0.000 A 
ATOM     23  C   UNL     1     163.314 187.839 162.322  0.00  0.00    +0.000 A 
BRANCH  19   1
ATOM      1  O   UNL     1     164.033 186.842 160.267  0.00  0.00    +0.000 OA
ATOM     28  C   UNL     1     163.607 185.569 159.786  0.00  0.00    +0.000 C 
ENDBRANCH  19   1
BRANCH  23   2
ATOM      2  O   UNL     1     162.346 188.547 161.674  0.00  0.00    +0.000 OA
ATOM     31  C   UNL     1     161.047 187.964 161.615  0.00  0.00    +0.000 C 
ENDBRANCH  23   2
ENDBRANCH   7  11
BRANCH   7   8
ATOM      8  C   UNL     1     167.647 185.451 163.476  0.00  0.00    +0.000 C 
ATOM     13  C   UNL     1     168.718 184.482 164.005  0.00  0.00    +0.000 C 
ATOM     14  C   UNL     1     168.325 186.796 163.152  0.00  0.00    +0.000 C 
ENDBRANCH   7   8
BRANCH   7  15
ATOM      6  N   UNL     1     167.155 186.776 166.669  0.00  0.00    +0.000 NA
ATOM     15  C   UNL     1     166.813 186.254 165.691  0.00  0.00    +0.000 C 
ENDBRANCH   7  15
ENDBRANCH   9   7
BRANCH   9  10
ATOM     10  C   UNL     1     165.049 184.119 166.137  0.00  0.00    +0.000 C 
BRANCH  10  12
ATOM     12  C   UNL     1     163.777 183.271 166.042  0.00  0.00    +0.000 C 
BRANCH  12   5
ATOM      5  N   UNL     1     162.637 183.925 166.672  0.00  0.00    +0.000 NA
ATOM     20  C   UNL     1     161.557 182.964 166.908  0.00  0.00    +0.000 C 
BRANCH   5  18
ATOM     18  C   UNL     1     163.036 184.558 167.931  0.00  0.00    +0.000 C 
BRANCH  18  22
ATOM     22  C   UNL     1     162.025 184.261 169.038  0.00  0.00    +0.000 C 
BRANCH  22  24
ATOM     24  C   UNL     1     162.648 184.391 170.406  0.00  0.00    +0.000 A 
ATOM     25  C   UNL     1     163.237 185.594 170.792  0.00  0.00    +0.000 A 
ATOM     26  C   UNL     1     162.632 183.307 171.285  0.00  0.00    +0.000 A 
ATOM     27  C   UNL     1     163.812 185.715 172.058  0.00  0.00    +0.000 A 
ATOM     29  C   UNL     1     163.207 183.428 172.550  0.00  0.00    +0.000 A 
ATOM     30  C   UNL     1     163.796 184.631 172.936  0.00  0.00    +0.000 A 
BRANCH  27   3
ATOM      3  O   UNL     1     164.385 186.895 172.424  0.00  0.00    +0.000 OA
ATOM     32  C   UNL     1     165.658 187.200 171.857  0.00  0.00    +0.000 C 
ENDBRANCH  27   3
BRANCH  30   4
ATOM      4  O   UNL     1     164.354 184.736 174.175  0.00  0.00    +0.000 OA
ATOM     33  C   UNL     1     163.470 184.994 175.263  0.00  0.00    +0.000 C 
ENDBRANCH  30   4
ENDBRANCH  22  24
ENDBRANCH  18  22
ENDBRANCH   5  18
ENDBRANCH  12   5
ENDBRANCH  10  12
ENDBRANCH   9  10
TORSDOF 14
ENDMDL
MODEL 9
REMARK VINA RESULT:      -6.4     25.137     28.242
REMARK  Name = 2520
REMARK  21 active torsions:
REMARK  status: ('A' for Active; 'I' for Inactive)
REMARK    1  A    between atoms: O_1  and  C_19
REMARK    2  A    between atoms: O_1  and  C_28
REMARK    3  A    between atoms: O_2  and  C_23
REMARK    4  A    between atoms: O_2  and  C_31
REMARK    5  A    between atoms: O_3  and  C_27
REMARK    6  A    between atoms: O_3  and  C_32
REMARK    7  A    between atoms: O_4  and  C_30
REMARK    8  A    between atoms: O_4  and  C_33
REMARK    9  A    between atoms: N_5  and  C_12
REMARK   10  A    between atoms: N_5  and  C_18
REMARK   11  A    between atoms: N_5  and  C_20
REMARK   12  A    between atoms: C_7  and  C_8
REMARK   13  A    between atoms: C_7  and  C_9
REMARK   14  A    between atoms: C_7  and  C_11
REMARK   15  A    between atoms: C_7  and  C_15
REMARK   16  A    between atoms: C_8  and  C_13
REMARK   17  A    between atoms: C_8  and  C_14
REMARK   18  A    between atoms: C_9  and  C_10
REMARK   19  A    between atoms: C_10  and  C_12
REMARK   20  A    between atoms: C_18  and  C_22
REMARK   21  A    between atoms: C_22  and  C_24
REMARK                            x       y       z     vdW  Elec       q    Type
REMARK                         _______ _______ _______ _____ _____    ______ ____
ROOT
ATOM      9  C   UNL     1     179.401 186.471 159.120  0.00  0.00    +0.000 C 
ENDROOT
BRANCH   9   7
ATOM      7  C   UNL     1     178.028 186.501 158.356  0.00  0.00    +0.000 C 
BRANCH   7  11
ATOM     11  C   UNL     1     177.758 185.116 157.722  0.00  0.00    +0.000 A 
ATOM     16  C   UNL     1     176.600 184.411 158.052  0.00  0.00    +0.000 A 
ATOM     17  C   UNL     1     178.672 184.572 156.819  0.00  0.00    +0.000 A 
ATOM     19  C   UNL     1     176.356 183.163 157.481  0.00  0.00    +0.000 A 
ATOM     21  C   UNL     1     178.428 183.324 156.247  0.00  0.00    +0.000 A 
ATOM     23  C   UNL     1     177.270 182.618 156.578  0.00  0.00    +0.000 A 
BRANCH  19   1
ATOM      1  O   UNL     1     175.222 182.484 157.811  0.00  0.00    +0.000 OA
ATOM     28  C   UNL     1     173.986 183.029 157.355  0.00  0.00    +0.000 C 
ENDBRANCH  19   1
BRANCH  23   2
ATOM      2  O   UNL     1     177.044 181.400 156.012  0.00  0.00    +0.000 OA
ATOM     31  C   UNL     1     176.395 181.386 154.743  0.00  0.00    +0.000 C 
ENDBRANCH  23   2
ENDBRANCH   7  11
BRANCH   7   8
ATOM      8  C   UNL     1     178.072 187.596 157.207  0.00  0.00    +0.000 C 
ATOM     13  C   UNL     1     178.637 188.956 157.651  0.00  0.00    +0.000 C 
ATOM     14  C   UNL     1     176.703 187.832 156.540  0.00  0.00    +0.000 C 
ENDBRANCH   7   8
BRANCH   7  15
ATOM      6  N   UNL     1     176.168 187.210 160.109  0.00  0.00    +0.000 NA
ATOM     15  C   UNL     1     176.988 186.902 159.348  0.00  0.00    +0.000 C 
ENDBRANCH   7  15
ENDBRANCH   9   7
BRANCH   9  10
ATOM     10  C   UNL     1     179.295 186.511 160.659  0.00  0.00    +0.000 C 
BRANCH  10  12
ATOM     12  C   UNL     1     180.227 187.552 161.289  0.00  0.00    +0.000 C 
BRANCH  12   5
ATOM      5  N   UNL     1     181.624 187.306 160.958  0.00  0.00    +0.000 NA
ATOM     20  C   UNL     1     182.392 188.552 160.998  0.00  0.00    +0.000 C 
BRANCH   5  18
ATOM     18  C   UNL     1     182.206 186.322 161.874  0.00  0.00    +0.000 C 
BRANCH  18  22
ATOM     22  C   UNL     1     182.728 185.105 161.111  0.00  0.00    +0.000 C 
BRANCH  22  24
ATOM     24  C   UNL     1     184.117 184.723 161.563  0.00  0.00    +0.000 A 
ATOM     25  C   UNL     1     185.176 184.751 160.657  0.00  0.00    +0.000 A 
ATOM     26  C   UNL     1     184.339 184.343 162.886  0.00  0.00    +0.000 A 
ATOM     27  C   UNL     1     186.460 184.399 161.075  0.00  0.00    +0.000 A 
ATOM     29  C   UNL     1     185.623 183.990 163.303  0.00  0.00    +0.000 A 
ATOM     30  C   UNL     1     186.683 184.018 162.398  0.00  0.00    +0.000 A 
BRANCH  27   3
ATOM      3  O   UNL     1     187.488 184.430 160.181  0.00  0.00    +0.000 OA
ATOM     32  C   UNL     1     187.177 184.114 158.825  0.00  0.00    +0.000 C 
ENDBRANCH  27   3
BRANCH  30   4
ATOM      4  O   UNL     1     187.932 183.671 162.818  0.00  0.00    +0.000 OA
ATOM     33  C   UNL     1     188.589 184.572 163.707  0.00  0.00    +0.000 C 
ENDBRANCH  30   4
ENDBRANCH  22  24
ENDBRANCH  18  22
ENDBRANCH   5  18
ENDBRANCH  12   5
ENDBRANCH  10  12
ENDBRANCH   9  10
TORSDOF 14
ENDMDL
