MODEL 1
REMARK VINA RESULT:      -9.1      0.000      0.000
REMARK  11 active torsions:
REMARK  status: ('A' for Active; 'I' for Inactive)
REMARK    1  A    between atoms: O_2  and  C_16 
REMARK    2  A    between atoms: O_2  and  C_18 
REMARK    3  A    between atoms: O_3  and  C_12 
REMARK    4  A    between atoms: O_4  and  C_13 
REMARK    5  A    between atoms: O_5  and  C_14 
REMARK    6  A    between atoms: O_6  and  C_17 
REMARK    7  A    between atoms: O_8  and  C_23 
REMARK    8  A    between atoms: O_10  and  C_30 
REMARK    9  A    between atoms: O_11  and  C_32 
REMARK   10  A    between atoms: C_15  and  C_17 
REMARK   11  A    between atoms: C_25  and  C_27 
ROOT
HETATM    1  O   UNK     0      24.740   9.063  -0.563  0.00  0.00    -0.348 OA
HETATM    2  C   UNK     0      22.709  10.758  -1.682  0.00  0.00     0.183 C 
HETATM    3  C   UNK     0      22.598  10.160  -0.280  0.00  0.00     0.180 C 
HETATM    4  C   UNK     0      23.668   9.948  -2.555  0.00  0.00     0.205 C 
HETATM    5  C   UNK     0      23.985   9.902   0.313  0.00  0.00     0.179 C 
HETATM    6  C   UNK     0      24.985   9.674  -1.828  0.00  0.00     0.298 C 
ENDROOT
BRANCH   5   7
HETATM    7  C   UNK     0      23.899   9.197   1.664  0.00  0.00     0.198 C 
BRANCH   7   8
HETATM    8  O   UNK     0      23.669  10.171   2.666  0.00  0.00    -0.398 OA
HETATM    9  H   UNK     0      24.249  10.929   2.480  0.00  0.00     0.209 HD
ENDBRANCH   7   8
ENDBRANCH   5   7
BRANCH   6  10
HETATM   10  O   UNK     0      25.764   8.799  -2.643  0.00  0.00    -0.318 OA
BRANCH  10  11
HETATM   11  C   UNK     0      27.081   9.117  -2.795  0.00  0.00     0.077 A 
HETATM   12  C   UNK     0      27.851   8.451  -3.750  0.00  0.00     0.075 A 
HETATM   13  C   UNK     0      29.198   8.778  -3.904  0.00  0.00     0.095 A 
HETATM   14  O   UNK     0      29.905   8.090  -4.858  0.00  0.00    -0.309 OA
HETATM   15  C   UNK     0      29.772   9.766  -3.105  0.00  0.00     0.081 A 
HETATM   16  C   UNK     0      31.244   8.397  -5.037  0.00  0.00     0.090 A 
HETATM   17  C   UNK     0      31.909   9.322  -4.327  0.00  0.00     0.094 A 
HETATM   18  C   UNK     0      31.195  10.088  -3.287  0.00  0.00     0.190 A 
HETATM   19  O   UNK     0      31.763  10.941  -2.618  0.00  0.00    -0.287 OA
HETATM   20  C   UNK     0      29.004  10.434  -2.147  0.00  0.00     0.085 A 
HETATM   21  C   UNK     0      27.656  10.105  -1.997  0.00  0.00     0.074 A 
BRANCH  16  22
HETATM   22  C   UNK     0      31.909   7.594  -6.085  0.00  0.00     0.001 A 
HETATM   23  C   UNK     0      31.208   6.581  -6.741  0.00  0.00     0.053 A 
HETATM   24  C   UNK     0      31.836   5.824  -7.731  0.00  0.00     0.099 A 
HETATM   25  C   UNK     0      33.165   6.077  -8.065  0.00  0.00     0.098 A 
HETATM   26  C   UNK     0      33.868   7.089  -7.411  0.00  0.00     0.040 A 
HETATM   27  C   UNK     0      33.242   7.846  -6.422  0.00  0.00     0.017 A 
BRANCH  24  28
HETATM   28  O   UNK     0      31.140   4.836  -8.363  0.00  0.00    -0.358 OA
HETATM   29  H   UNK     0      31.773   4.168  -8.675  0.00  0.00     0.217 HD
ENDBRANCH  24  28
BRANCH  25  30
HETATM   30  O   UNK     0      33.789   5.345  -9.030  0.00  0.00    -0.358 OA
HETATM   31  H   UNK     0      33.378   5.540  -9.890  0.00  0.00     0.217 HD
ENDBRANCH  25  30
ENDBRANCH  16  22
BRANCH  20  32
HETATM   32  O   UNK     0      29.518  11.405  -1.343  0.00  0.00    -0.360 OA
HETATM   33  H   UNK     0      28.882  12.128  -1.232  0.00  0.00     0.217 HD
ENDBRANCH  20  32
ENDBRANCH  10  11
ENDBRANCH   6  10
BRANCH   3  34
HETATM   34  O   UNK     0      21.886  11.064   0.563  0.00  0.00    -0.390 OA
HETATM   35  H   UNK     0      21.336  11.632  -0.004  0.00  0.00     0.210 HD
ENDBRANCH   3  34
BRANCH   4  36
HETATM   36  O   UNK     0      23.958  10.679  -3.746  0.00  0.00    -0.388 OA
HETATM   37  H   UNK     0      24.340  10.062  -4.393  0.00  0.00     0.210 HD
ENDBRANCH   4  36
BRANCH   2  38
HETATM   38  O   UNK     0      21.408  10.751  -2.272  0.00  0.00    -0.390 OA
HETATM   39  H   UNK     0      20.971  11.583  -2.022  0.00  0.00     0.210 HD
ENDBRANCH   2  38
TORSDOF 11
ENDMDL
MODEL 2
REMARK VINA RESULT:      -9.0      5.642     12.025
REMARK  11 active torsions:
REMARK  status: ('A' for Active; 'I' for Inactive)
REMARK    1  A    between atoms: O_2  and  C_16 
REMARK    2  A    between atoms: O_2  and  C_18 
REMARK    3  A    between atoms: O_3  and  C_12 
REMARK    4  A    between atoms: O_4  and  C_13 
REMARK    5  A    between atoms: O_5  and  C_14 
REMARK    6  A    between atoms: O_6  and  C_17 
REMARK    7  A    between atoms: O_8  and  C_23 
REMARK    8  A    between atoms: O_10  and  C_30 
REMARK    9  A    between atoms: O_11  and  C_32 
REMARK   10  A    between atoms: C_15  and  C_17 
REMARK   11  A    between atoms: C_25  and  C_27 
ROOT
HETATM    1  O   UNK     0      39.195   6.006  -2.894  0.00  0.00    -0.348 OA
HETATM    2  C   UNK     0      41.363   7.890  -2.919  0.00  0.00     0.183 C 
HETATM    3  C   UNK     0      41.540   6.441  -2.464  0.00  0.00     0.180 C 
HETATM    4  C   UNK     0      39.901   8.328  -2.814  0.00  0.00     0.205 C 
HETATM    5  C   UNK     0      40.518   5.528  -3.146  0.00  0.00     0.179 C 
HETATM    6  C   UNK     0      38.965   7.299  -3.448  0.00  0.00     0.298 C 
ENDROOT
BRANCH   5   7
HETATM    7  C   UNK     0      40.599   4.099  -2.620  0.00  0.00     0.198 C 
BRANCH   7   8
HETATM    8  O   UNK     0      39.596   3.923  -1.636  0.00  0.00    -0.398 OA
HETATM    9  H   UNK     0      39.745   3.060  -1.213  0.00  0.00     0.209 HD
ENDBRANCH   7   8
ENDBRANCH   5   7
BRANCH   6  10
HETATM   10  O   UNK     0      37.623   7.705  -3.185  0.00  0.00    -0.318 OA
BRANCH  10  11
HETATM   11  C   UNK     0      36.666   7.238  -4.037  0.00  0.00     0.077 A 
HETATM   12  C   UNK     0      35.328   7.579  -3.833  0.00  0.00     0.075 A 
HETATM   13  C   UNK     0      34.350   7.100  -4.705  0.00  0.00     0.095 A 
HETATM   14  O   UNK     0      33.052   7.469  -4.455  0.00  0.00    -0.309 OA
HETATM   15  C   UNK     0      34.711   6.282  -5.775  0.00  0.00     0.081 A 
HETATM   16  C   UNK     0      32.060   7.012  -5.308  0.00  0.00     0.090 A 
HETATM   17  C   UNK     0      32.280   6.217  -6.367  0.00  0.00     0.094 A 
HETATM   18  C   UNK     0      33.659   5.790  -6.678  0.00  0.00     0.190 A 
HETATM   19  O   UNK     0      33.904   5.067  -7.633  0.00  0.00    -0.287 OA
HETATM   20  C   UNK     0      36.049   5.939  -5.982  0.00  0.00     0.085 A 
HETATM   21  C   UNK     0      37.025   6.420  -5.108  0.00  0.00     0.074 A 
BRANCH  16  22
HETATM   22  C   UNK     0      30.701   7.463  -4.944  0.00  0.00     0.001 A 
HETATM   23  C   UNK     0      30.443   7.940  -3.657  0.00  0.00     0.053 A 
HETATM   24  C   UNK     0      29.159   8.367  -3.314  0.00  0.00     0.099 A 
HETATM   25  C   UNK     0      28.132   8.318  -4.255  0.00  0.00     0.098 A 
HETATM   26  C   UNK     0      28.388   7.843  -5.542  0.00  0.00     0.040 A 
HETATM   27  C   UNK     0      29.670   7.416  -5.886  0.00  0.00     0.017 A 
BRANCH  24  28
HETATM   28  O   UNK     0      28.920   8.827  -2.053  0.00  0.00    -0.358 OA
HETATM   29  H   UNK     0      29.399   8.259  -1.425  0.00  0.00     0.217 HD
ENDBRANCH  24  28
BRANCH  25  30
HETATM   30  O   UNK     0      26.876   8.733  -3.932  0.00  0.00    -0.358 OA
HETATM   31  H   UNK     0      26.866   9.704  -3.881  0.00  0.00     0.217 HD
ENDBRANCH  25  30
ENDBRANCH  16  22
BRANCH  20  32
HETATM   32  O   UNK     0      36.451   5.144  -7.011  0.00  0.00    -0.360 OA
HETATM   33  H   UNK     0      35.698   4.905  -7.573  0.00  0.00     0.217 HD
ENDBRANCH  20  32
ENDBRANCH  10  11
ENDBRANCH   6  10
BRANCH   3  34
HETATM   34  O   UNK     0      42.856   6.002  -2.793  0.00  0.00    -0.390 OA
HETATM   35  H   UNK     0      43.475   6.416  -2.167  0.00  0.00     0.210 HD
ENDBRANCH   3  34
BRANCH   4  36
HETATM   36  O   UNK     0      39.729   9.570  -3.495  0.00  0.00    -0.388 OA
HETATM   37  H   UNK     0      39.795  10.285  -2.839  0.00  0.00     0.210 HD
ENDBRANCH   4  36
BRANCH   2  38
HETATM   38  O   UNK     0      42.169   8.719  -2.081  0.00  0.00    -0.390 OA
HETATM   39  H   UNK     0      41.641   9.504  -1.854  0.00  0.00     0.210 HD
ENDBRANCH   2  38
TORSDOF 11
ENDMDL
MODEL 3
REMARK VINA RESULT:      -9.0      5.923      9.604
REMARK  11 active torsions:
REMARK  status: ('A' for Active; 'I' for Inactive)
REMARK    1  A    between atoms: O_2  and  C_16 
REMARK    2  A    between atoms: O_2  and  C_18 
REMARK    3  A    between atoms: O_3  and  C_12 
REMARK    4  A    between atoms: O_4  and  C_13 
REMARK    5  A    between atoms: O_5  and  C_14 
REMARK    6  A    between atoms: O_6  and  C_17 
REMARK    7  A    between atoms: O_8  and  C_23 
REMARK    8  A    between atoms: O_10  and  C_30 
REMARK    9  A    between atoms: O_11  and  C_32 
REMARK   10  A    between atoms: C_15  and  C_17 
REMARK   11  A    between atoms: C_25  and  C_27 
ROOT
HETATM    1  O   UNK     0      33.238   6.709  -6.098  0.00  0.00    -0.348 OA
HETATM    2  C   UNK     0      30.507   6.438  -6.943  0.00  0.00     0.183 C 
HETATM    3  C   UNK     0      31.685   6.058  -7.840  0.00  0.00     0.180 C 
HETATM    4  C   UNK     0      30.932   7.433  -5.863  0.00  0.00     0.205 C 
HETATM    5  C   UNK     0      32.899   5.655  -7.002  0.00  0.00     0.179 C 
HETATM    6  C   UNK     0      32.205   6.972  -5.152  0.00  0.00     0.298 C 
ENDROOT
BRANCH   5   7
HETATM    7  C   UNK     0      34.122   5.385  -7.873  0.00  0.00     0.198 C 
BRANCH   7   8
HETATM    8  O   UNK     0      33.817   5.759  -9.204  0.00  0.00    -0.398 OA
HETATM    9  H   UNK     0      34.611   6.176  -9.583  0.00  0.00     0.209 HD
ENDBRANCH   7   8
ENDBRANCH   5   7
BRANCH   6  10
HETATM   10  O   UNK     0      32.616   8.013  -4.266  0.00  0.00    -0.318 OA
BRANCH  10  11
HETATM   11  C   UNK     0      33.407   7.646  -3.218  0.00  0.00     0.077 A 
HETATM   12  C   UNK     0      34.777   7.466  -3.411  0.00  0.00     0.075 A 
HETATM   13  C   UNK     0      35.584   7.090  -2.337  0.00  0.00     0.095 A 
HETATM   14  O   UNK     0      36.924   6.928  -2.587  0.00  0.00    -0.309 OA
HETATM   15  C   UNK     0      35.022   6.895  -1.077  0.00  0.00     0.081 A 
HETATM   16  C   UNK     0      37.752   6.560  -1.538  0.00  0.00     0.090 A 
HETATM   17  C   UNK     0      37.329   6.338  -0.284  0.00  0.00     0.094 A 
HETATM   18  C   UNK     0      35.896   6.498   0.037  0.00  0.00     0.190 A 
HETATM   19  O   UNK     0      35.469   6.307   1.167  0.00  0.00    -0.287 OA
HETATM   20  C   UNK     0      33.650   7.075  -0.880  0.00  0.00     0.085 A 
HETATM   21  C   UNK     0      32.845   7.451  -1.956  0.00  0.00     0.074 A 
BRANCH  16  22
HETATM   22  C   UNK     0      39.171   6.408  -1.918  0.00  0.00     0.001 A 
HETATM   23  C   UNK     0      40.093   7.408  -1.600  0.00  0.00     0.053 A 
HETATM   24  C   UNK     0      41.434   7.262  -1.958  0.00  0.00     0.099 A 
HETATM   25  C   UNK     0      41.855   6.120  -2.636  0.00  0.00     0.098 A 
HETATM   26  C   UNK     0      40.936   5.119  -2.955  0.00  0.00     0.040 A 
HETATM   27  C   UNK     0      39.596   5.263  -2.597  0.00  0.00     0.017 A 
BRANCH  24  28
HETATM   28  O   UNK     0      42.322   8.247  -1.643  0.00  0.00    -0.358 OA
HETATM   29  H   UNK     0      42.915   7.913  -0.949  0.00  0.00     0.217 HD
ENDBRANCH  24  28
BRANCH  25  30
HETATM   30  O   UNK     0      43.161   5.966  -2.990  0.00  0.00    -0.358 OA
HETATM   31  H   UNK     0      43.277   5.094  -3.405  0.00  0.00     0.217 HD
ENDBRANCH  25  30
ENDBRANCH  16  22
BRANCH  20  32
HETATM   32  O   UNK     0      33.054   6.897   0.331  0.00  0.00    -0.360 OA
HETATM   33  H   UNK     0      32.505   7.662   0.557  0.00  0.00     0.217 HD
ENDBRANCH  20  32
ENDBRANCH  10  11
ENDBRANCH   6  10
BRANCH   3  34
HETATM   34  O   UNK     0      31.306   4.967  -8.677  0.00  0.00    -0.390 OA
HETATM   35  H   UNK     0      30.494   4.577  -8.312  0.00  0.00     0.210 HD
ENDBRANCH   3  34
BRANCH   4  36
HETATM   36  O   UNK     0      29.894   7.550  -4.890  0.00  0.00    -0.388 OA
HETATM   37  H   UNK     0      29.908   8.458  -4.542  0.00  0.00     0.210 HD
ENDBRANCH   4  36
BRANCH   2  38
HETATM   38  O   UNK     0      29.497   7.029  -7.762  0.00  0.00    -0.390 OA
HETATM   39  H   UNK     0      29.665   7.987  -7.785  0.00  0.00     0.210 HD
ENDBRANCH   2  38
TORSDOF 11
ENDMDL
MODEL 4
REMARK VINA RESULT:      -8.8      4.508     11.202
REMARK  11 active torsions:
REMARK  status: ('A' for Active; 'I' for Inactive)
REMARK    1  A    between atoms: O_2  and  C_16 
REMARK    2  A    between atoms: O_2  and  C_18 
REMARK    3  A    between atoms: O_3  and  C_12 
REMARK    4  A    between atoms: O_4  and  C_13 
REMARK    5  A    between atoms: O_5  and  C_14 
REMARK    6  A    between atoms: O_6  and  C_17 
REMARK    7  A    between atoms: O_8  and  C_23 
REMARK    8  A    between atoms: O_10  and  C_30 
REMARK    9  A    between atoms: O_11  and  C_32 
REMARK   10  A    between atoms: C_15  and  C_17 
REMARK   11  A    between atoms: C_25  and  C_27 
ROOT
HETATM    1  O   UNK     0      37.768   8.168  -4.606  0.00  0.00    -0.348 OA
HETATM    2  C   UNK     0      39.353   7.361  -2.351  0.00  0.00     0.183 C 
HETATM    3  C   UNK     0      39.317   8.804  -2.854  0.00  0.00     0.180 C 
HETATM    4  C   UNK     0      38.937   6.381  -3.449  0.00  0.00     0.205 C 
HETATM    5  C   UNK     0      37.987   9.104  -3.549  0.00  0.00     0.179 C 
HETATM    6  C   UNK     0      37.645   6.828  -4.134  0.00  0.00     0.298 C 
ENDROOT
BRANCH   5   7
HETATM    7  C   UNK     0      37.974  10.501  -4.162  0.00  0.00     0.198 C 
BRANCH   7   8
HETATM    8  O   UNK     0      39.281  11.040  -4.082  0.00  0.00    -0.398 OA
HETATM    9  H   UNK     0      39.836  10.399  -3.607  0.00  0.00     0.209 HD
ENDBRANCH   7   8
ENDBRANCH   5   7
BRANCH   6  10
HETATM   10  O   UNK     0      37.402   5.950  -5.232  0.00  0.00    -0.318 OA
BRANCH  10  11
HETATM   11  C   UNK     0      36.139   5.947  -5.743  0.00  0.00     0.077 A 
HETATM   12  C   UNK     0      35.094   6.526  -5.021  0.00  0.00     0.075 A 
HETATM   13  C   UNK     0      33.803   6.521  -5.546  0.00  0.00     0.095 A 
HETATM   14  O   UNK     0      32.817   7.105  -4.791  0.00  0.00    -0.309 OA
HETATM   15  C   UNK     0      33.557   5.938  -6.789  0.00  0.00     0.081 A 
HETATM   16  C   UNK     0      31.524   7.121  -5.291  0.00  0.00     0.090 A 
HETATM   17  C   UNK     0      31.162   6.587  -6.468  0.00  0.00     0.094 A 
HETATM   18  C   UNK     0      32.185   5.945  -7.318  0.00  0.00     0.190 A 
HETATM   19  O   UNK     0      31.898   5.449  -8.398  0.00  0.00    -0.287 OA
HETATM   20  C   UNK     0      34.600   5.356  -7.514  0.00  0.00     0.085 A 
HETATM   21  C   UNK     0      35.892   5.364  -6.986  0.00  0.00     0.074 A 
BRANCH  16  22
HETATM   22  C   UNK     0      30.543   7.768  -4.396  0.00  0.00     0.001 A 
HETATM   23  C   UNK     0      29.195   7.824  -4.757  0.00  0.00     0.053 A 
HETATM   24  C   UNK     0      28.268   8.434  -3.911  0.00  0.00     0.099 A 
HETATM   25  C   UNK     0      28.687   8.991  -2.704  0.00  0.00     0.098 A 
HETATM   26  C   UNK     0      30.032   8.935  -2.340  0.00  0.00     0.040 A 
HETATM   27  C   UNK     0      30.959   8.326  -3.184  0.00  0.00     0.017 A 
BRANCH  24  28
HETATM   28  O   UNK     0      26.956   8.483  -4.278  0.00  0.00    -0.358 OA
HETATM   29  H   UNK     0      26.905   8.388  -5.244  0.00  0.00     0.217 HD
ENDBRANCH  24  28
BRANCH  25  30
HETATM   30  O   UNK     0      27.791   9.588  -1.869  0.00  0.00    -0.358 OA
HETATM   31  H   UNK     0      28.251   9.869  -1.059  0.00  0.00     0.217 HD
ENDBRANCH  25  30
ENDBRANCH  16  22
BRANCH  20  32
HETATM   32  O   UNK     0      34.411   4.775  -8.731  0.00  0.00    -0.360 OA
HETATM   33  H   UNK     0      34.707   3.852  -8.717  0.00  0.00     0.217 HD
ENDBRANCH  20  32
ENDBRANCH  10  11
ENDBRANCH   6  10
BRANCH   3  34
HETATM   34  O   UNK     0      39.483   9.692  -1.751  0.00  0.00    -0.390 OA
HETATM   35  H   UNK     0      39.401  10.602  -2.083  0.00  0.00     0.210 HD
ENDBRANCH   3  34
BRANCH   4  36
HETATM   36  O   UNK     0      38.717   5.093  -2.876  0.00  0.00    -0.388 OA
HETATM   37  H   UNK     0      38.984   4.423  -3.529  0.00  0.00     0.210 HD
ENDBRANCH   4  36
BRANCH   2  38
HETATM   38  O   UNK     0      40.688   7.070  -1.934  0.00  0.00    -0.390 OA
HETATM   39  H   UNK     0      41.088   6.504  -2.617  0.00  0.00     0.210 HD
ENDBRANCH   2  38
TORSDOF 11
ENDMDL
MODEL 5
REMARK VINA RESULT:      -8.4      5.901     10.153
REMARK  11 active torsions:
REMARK  status: ('A' for Active; 'I' for Inactive)
REMARK    1  A    between atoms: O_2  and  C_16 
REMARK    2  A    between atoms: O_2  and  C_18 
REMARK    3  A    between atoms: O_3  and  C_12 
REMARK    4  A    between atoms: O_4  and  C_13 
REMARK    5  A    between atoms: O_5  and  C_14 
REMARK    6  A    between atoms: O_6  and  C_17 
REMARK    7  A    between atoms: O_8  and  C_23 
REMARK    8  A    between atoms: O_10  and  C_30 
REMARK    9  A    between atoms: O_11  and  C_32 
REMARK   10  A    between atoms: C_15  and  C_17 
REMARK   11  A    between atoms: C_25  and  C_27 
ROOT
HETATM    1  O   UNK     0      33.579   6.675  -6.009  0.00  0.00    -0.348 OA
HETATM    2  C   UNK     0      30.775   6.381  -6.557  0.00  0.00     0.183 C 
HETATM    3  C   UNK     0      31.854   5.995  -7.569  0.00  0.00     0.180 C 
HETATM    4  C   UNK     0      31.307   7.391  -5.540  0.00  0.00     0.205 C 
HETATM    5  C   UNK     0      33.152   5.608  -6.859  0.00  0.00     0.179 C 
HETATM    6  C   UNK     0      32.650   6.945  -4.962  0.00  0.00     0.298 C 
ENDROOT
BRANCH   5   7
HETATM    7  C   UNK     0      34.278   5.332  -7.851  0.00  0.00     0.198 C 
BRANCH   7   8
HETATM    8  O   UNK     0      33.846   5.721  -9.142  0.00  0.00    -0.398 OA
HETATM    9  H   UNK     0      33.457   4.940  -9.572  0.00  0.00     0.209 HD
ENDBRANCH   7   8
ENDBRANCH   5   7
BRANCH   6  10
HETATM   10  O   UNK     0      33.146   7.999  -4.137  0.00  0.00    -0.318 OA
BRANCH  10  11
HETATM   11  C   UNK     0      33.838   7.628  -3.023  0.00  0.00     0.077 A 
HETATM   12  C   UNK     0      33.149   7.214  -1.882  0.00  0.00     0.075 A 
HETATM   13  C   UNK     0      33.860   6.835  -0.743  0.00  0.00     0.095 A 
HETATM   14  O   UNK     0      33.129   6.437   0.348  0.00  0.00    -0.309 OA
HETATM   15  C   UNK     0      35.254   6.872  -0.746  0.00  0.00     0.081 A 
HETATM   16  C   UNK     0      33.808   6.050   1.493  0.00  0.00     0.090 A 
HETATM   17  C   UNK     0      35.145   6.048   1.614  0.00  0.00     0.094 A 
HETATM   18  C   UNK     0      35.977   6.469   0.469  0.00  0.00     0.190 A 
HETATM   19  O   UNK     0      37.198   6.480   0.537  0.00  0.00    -0.287 OA
HETATM   20  C   UNK     0      35.946   7.286  -1.887  0.00  0.00     0.085 A 
HETATM   21  C   UNK     0      35.232   7.664  -3.025  0.00  0.00     0.074 A 
BRANCH  16  22
HETATM   22  C   UNK     0      32.926   5.647   2.607  0.00  0.00     0.001 A 
HETATM   23  C   UNK     0      31.794   4.867   2.358  0.00  0.00     0.053 A 
HETATM   24  C   UNK     0      30.962   4.485   3.411  0.00  0.00     0.099 A 
HETATM   25  C   UNK     0      31.258   4.884   4.714  0.00  0.00     0.098 A 
HETATM   26  C   UNK     0      32.388   5.662   4.965  0.00  0.00     0.040 A 
HETATM   27  C   UNK     0      33.221   6.043   3.914  0.00  0.00     0.017 A 
BRANCH  24  28
HETATM   28  O   UNK     0      29.860   3.726   3.153  0.00  0.00    -0.358 OA
HETATM   29  H   UNK     0      29.630   3.831   2.214  0.00  0.00     0.217 HD
ENDBRANCH  24  28
BRANCH  25  30
HETATM   30  O   UNK     0      30.453   4.517   5.750  0.00  0.00    -0.358 OA
HETATM   31  H   UNK     0      29.657   4.086   5.395  0.00  0.00     0.217 HD
ENDBRANCH  25  30
ENDBRANCH  16  22
BRANCH  20  32
HETATM   32  O   UNK     0      37.306   7.339  -1.939  0.00  0.00    -0.360 OA
HETATM   33  H   UNK     0      37.662   7.763  -1.144  0.00  0.00     0.217 HD
ENDBRANCH  20  32
ENDBRANCH  10  11
ENDBRANCH   6  10
BRANCH   3  34
HETATM   34  O   UNK     0      31.396   4.892  -8.348  0.00  0.00    -0.390 OA
HETATM   35  H   UNK     0      31.946   4.121  -8.128  0.00  0.00     0.210 HD
ENDBRANCH   3  34
BRANCH   4  36
HETATM   36  O   UNK     0      30.376   7.516  -4.465  0.00  0.00    -0.388 OA
HETATM   37  H   UNK     0      30.248   6.635  -4.073  0.00  0.00     0.210 HD
ENDBRANCH   4  36
BRANCH   2  38
HETATM   38  O   UNK     0      29.681   6.957  -7.273  0.00  0.00    -0.390 OA
HETATM   39  H   UNK     0      29.979   7.817  -7.615  0.00  0.00     0.210 HD
ENDBRANCH   2  38
TORSDOF 11
ENDMDL
MODEL 6
REMARK VINA RESULT:      -8.3      4.486     10.854
REMARK  11 active torsions:
REMARK  status: ('A' for Active; 'I' for Inactive)
REMARK    1  A    between atoms: O_2  and  C_16 
REMARK    2  A    between atoms: O_2  and  C_18 
REMARK    3  A    between atoms: O_3  and  C_12 
REMARK    4  A    between atoms: O_4  and  C_13 
REMARK    5  A    between atoms: O_5  and  C_14 
REMARK    6  A    between atoms: O_6  and  C_17 
REMARK    7  A    between atoms: O_8  and  C_23 
REMARK    8  A    between atoms: O_10  and  C_30 
REMARK    9  A    between atoms: O_11  and  C_32 
REMARK   10  A    between atoms: C_15  and  C_17 
REMARK   11  A    between atoms: C_25  and  C_27 
ROOT
HETATM    1  O   UNK     0      36.826   7.168  -2.900  0.00  0.00    -0.348 OA
HETATM    2  C   UNK     0      39.118   5.744  -1.916  0.00  0.00     0.183 C 
HETATM    3  C   UNK     0      38.334   6.735  -1.054  0.00  0.00     0.180 C 
HETATM    4  C   UNK     0      38.904   6.017  -3.405  0.00  0.00     0.205 C 
HETATM    5  C   UNK     0      36.878   6.822  -1.515  0.00  0.00     0.179 C 
HETATM    6  C   UNK     0      37.420   6.175  -3.734  0.00  0.00     0.298 C 
ENDROOT
BRANCH   5   7
HETATM    7  C   UNK     0      36.106   7.889  -0.745  0.00  0.00     0.198 C 
BRANCH   7   8
HETATM    8  O   UNK     0      37.011   8.905  -0.354  0.00  0.00    -0.398 OA
HETATM    9  H   UNK     0      37.243   9.416  -1.148  0.00  0.00     0.209 HD
ENDBRANCH   7   8
ENDBRANCH   5   7
BRANCH   6  10
HETATM   10  O   UNK     0      37.312   6.567  -5.102  0.00  0.00    -0.318 OA
BRANCH  10  11
HETATM   11  C   UNK     0      36.094   6.397  -5.692  0.00  0.00     0.077 A 
HETATM   12  C   UNK     0      34.953   6.945  -5.103  0.00  0.00     0.075 A 
HETATM   13  C   UNK     0      33.709   6.769  -5.708  0.00  0.00     0.095 A 
HETATM   14  O   UNK     0      32.624   7.330  -5.083  0.00  0.00    -0.309 OA
HETATM   15  C   UNK     0      33.607   6.047  -6.896  0.00  0.00     0.081 A 
HETATM   16  C   UNK     0      31.375   7.177  -5.665  0.00  0.00     0.090 A 
HETATM   17  C   UNK     0      31.149   6.500  -6.801  0.00  0.00     0.094 A 
HETATM   18  C   UNK     0      32.283   5.875  -7.511  0.00  0.00     0.190 A 
HETATM   19  O   UNK     0      32.120   5.252  -8.551  0.00  0.00    -0.287 OA
HETATM   20  C   UNK     0      34.747   5.496  -7.488  0.00  0.00     0.085 A 
HETATM   21  C   UNK     0      35.991   5.675  -6.881  0.00  0.00     0.074 A 
BRANCH  16  22
HETATM   22  C   UNK     0      30.278   7.815  -4.908  0.00  0.00     0.001 A 
HETATM   23  C   UNK     0      30.558   8.543  -3.749  0.00  0.00     0.053 A 
HETATM   24  C   UNK     0      29.522   9.146  -3.035  0.00  0.00     0.099 A 
HETATM   25  C   UNK     0      28.206   9.023  -3.477  0.00  0.00     0.098 A 
HETATM   26  C   UNK     0      27.924   8.297  -4.634  0.00  0.00     0.040 A 
HETATM   27  C   UNK     0      28.958   7.693  -5.349  0.00  0.00     0.017 A 
BRANCH  24  28
HETATM   28  O   UNK     0      29.809   9.852  -1.905  0.00  0.00    -0.358 OA
HETATM   29  H   UNK     0      30.746  10.110  -1.936  0.00  0.00     0.217 HD
ENDBRANCH  24  28
BRANCH  25  30
HETATM   30  O   UNK     0      27.186   9.608  -2.789  0.00  0.00    -0.358 OA
HETATM   31  H   UNK     0      27.306   9.438  -1.839  0.00  0.00     0.217 HD
ENDBRANCH  25  30
ENDBRANCH  16  22
BRANCH  20  32
HETATM   32  O   UNK     0      34.699   4.784  -8.647  0.00  0.00    -0.360 OA
HETATM   33  H   UNK     0      35.206   3.962  -8.564  0.00  0.00     0.217 HD
ENDBRANCH  20  32
ENDBRANCH  10  11
ENDBRANCH   6  10
BRANCH   3  34
HETATM   34  O   UNK     0      38.373   6.308   0.306  0.00  0.00    -0.390 OA
HETATM   35  H   UNK     0      37.765   5.556   0.402  0.00  0.00     0.210 HD
ENDBRANCH   3  34
BRANCH   4  36
HETATM   36  O   UNK     0      39.418   4.924  -4.165  0.00  0.00    -0.388 OA
HETATM   37  H   UNK     0      40.325   4.746  -3.862  0.00  0.00     0.210 HD
ENDBRANCH   4  36
BRANCH   2  38
HETATM   38  O   UNK     0      40.505   5.884  -1.601  0.00  0.00    -0.390 OA
HETATM   39  H   UNK     0      40.869   6.568  -2.189  0.00  0.00     0.210 HD
ENDBRANCH   2  38
TORSDOF 11
ENDMDL
MODEL 7
REMARK VINA RESULT:      -8.3     14.313     16.026
REMARK  11 active torsions:
REMARK  status: ('A' for Active; 'I' for Inactive)
REMARK    1  A    between atoms: O_2  and  C_16 
REMARK    2  A    between atoms: O_2  and  C_18 
REMARK    3  A    between atoms: O_3  and  C_12 
REMARK    4  A    between atoms: O_4  and  C_13 
REMARK    5  A    between atoms: O_5  and  C_14 
REMARK    6  A    between atoms: O_6  and  C_17 
REMARK    7  A    between atoms: O_8  and  C_23 
REMARK    8  A    between atoms: O_10  and  C_30 
REMARK    9  A    between atoms: O_11  and  C_32 
REMARK   10  A    between atoms: C_15  and  C_17 
REMARK   11  A    between atoms: C_25  and  C_27 
ROOT
HETATM    1  O   UNK     0      22.793  -2.762  -7.917  0.00  0.00    -0.348 OA
HETATM    2  C   UNK     0      19.971  -2.530  -7.438  0.00  0.00     0.183 C 
HETATM    3  C   UNK     0      20.672  -1.802  -8.586  0.00  0.00     0.180 C 
HETATM    4  C   UNK     0      20.959  -2.897  -6.331  0.00  0.00     0.205 C 
HETATM    5  C   UNK     0      21.921  -2.565  -9.031  0.00  0.00     0.179 C 
HETATM    6  C   UNK     0      22.207  -3.572  -6.900  0.00  0.00     0.298 C 
ENDROOT
BRANCH   5   7
HETATM    7  C   UNK     0      22.700  -1.798 -10.095  0.00  0.00     0.198 C 
BRANCH   7   8
HETATM    8  O   UNK     0      23.157  -2.719 -11.069  0.00  0.00    -0.398 OA
HETATM    9  H   UNK     0      23.852  -2.279 -11.588  0.00  0.00     0.209 HD
ENDBRANCH   7   8
ENDBRANCH   5   7
BRANCH   6  10
HETATM   10  O   UNK     0      23.136  -3.753  -5.832  0.00  0.00    -0.318 OA
BRANCH  10  11
HETATM   11  C   UNK     0      23.977  -4.822  -5.927  0.00  0.00     0.077 A 
HETATM   12  C   UNK     0      24.975  -5.010  -4.970  0.00  0.00     0.075 A 
HETATM   13  C   UNK     0      25.833  -6.104  -5.070  0.00  0.00     0.095 A 
HETATM   14  O   UNK     0      26.795  -6.236  -4.099  0.00  0.00    -0.309 OA
HETATM   15  C   UNK     0      25.695  -7.005  -6.124  0.00  0.00     0.081 A 
HETATM   16  C   UNK     0      27.659  -7.317  -4.170  0.00  0.00     0.090 A 
HETATM   17  C   UNK     0      27.630  -8.247  -5.137  0.00  0.00     0.094 A 
HETATM   18  C   UNK     0      26.616  -8.149  -6.206  0.00  0.00     0.190 A 
HETATM   19  O   UNK     0      26.553  -8.976  -7.105  0.00  0.00    -0.287 OA
HETATM   20  C   UNK     0      24.697  -6.820  -7.085  0.00  0.00     0.085 A 
HETATM   21  C   UNK     0      23.839  -5.725  -6.982  0.00  0.00     0.074 A 
BRANCH  16  22
HETATM   22  C   UNK     0      28.657  -7.360  -3.080  0.00  0.00     0.001 A 
HETATM   23  C   UNK     0      29.738  -6.476  -3.086  0.00  0.00     0.053 A 
HETATM   24  C   UNK     0      30.679  -6.516  -2.056  0.00  0.00     0.099 A 
HETATM   25  C   UNK     0      30.542  -7.439  -1.021  0.00  0.00     0.098 A 
HETATM   26  C   UNK     0      29.462  -8.323  -1.013  0.00  0.00     0.040 A 
HETATM   27  C   UNK     0      28.521  -8.284  -2.041  0.00  0.00     0.017 A 
BRANCH  24  28
HETATM   28  O   UNK     0      31.730  -5.649  -2.075  0.00  0.00    -0.358 OA
HETATM   29  H   UNK     0      31.827  -5.306  -2.979  0.00  0.00     0.217 HD
ENDBRANCH  24  28
BRANCH  25  30
HETATM   30  O   UNK     0      31.453  -7.487  -0.009  0.00  0.00    -0.358 OA
HETATM   31  H   UNK     0      31.650  -6.580   0.283  0.00  0.00     0.217 HD
ENDBRANCH  25  30
ENDBRANCH  16  22
BRANCH  20  32
HETATM   32  O   UNK     0      24.521  -7.672  -8.132  0.00  0.00    -0.360 OA
HETATM   33  H   UNK     0      24.924  -7.311  -8.937  0.00  0.00     0.217 HD
ENDBRANCH  20  32
ENDBRANCH  10  11
ENDBRANCH   6  10
BRANCH   3  34
HETATM   34  O   UNK     0      19.773  -1.685  -9.687  0.00  0.00    -0.390 OA
HETATM   35  H   UNK     0      19.575  -2.581 -10.009  0.00  0.00     0.210 HD
ENDBRANCH   3  34
BRANCH   4  36
HETATM   36  O   UNK     0      20.336  -3.803  -5.421  0.00  0.00    -0.388 OA
HETATM   37  H   UNK     0      19.715  -3.297  -4.870  0.00  0.00     0.210 HD
ENDBRANCH   4  36
BRANCH   2  38
HETATM   38  O   UNK     0      18.966  -1.662  -6.911  0.00  0.00    -0.390 OA
HETATM   39  H   UNK     0      18.286  -2.223  -6.499  0.00  0.00     0.210 HD
ENDBRANCH   2  38
TORSDOF 11
ENDMDL
MODEL 8
REMARK VINA RESULT:      -8.3      2.034      9.899
REMARK  11 active torsions:
REMARK  status: ('A' for Active; 'I' for Inactive)
REMARK    1  A    between atoms: O_2  and  C_16 
REMARK    2  A    between atoms: O_2  and  C_18 
REMARK    3  A    between atoms: O_3  and  C_12 
REMARK    4  A    between atoms: O_4  and  C_13 
REMARK    5  A    between atoms: O_5  and  C_14 
REMARK    6  A    between atoms: O_6  and  C_17 
REMARK    7  A    between atoms: O_8  and  C_23 
REMARK    8  A    between atoms: O_10  and  C_30 
REMARK    9  A    between atoms: O_11  and  C_32 
REMARK   10  A    between atoms: C_15  and  C_17 
REMARK   11  A    between atoms: C_25  and  C_27 
ROOT
HETATM    1  O   UNK     0      32.507   6.366  -5.929  0.00  0.00    -0.348 OA
HETATM    2  C   UNK     0      35.261   5.890  -6.588  0.00  0.00     0.183 C 
HETATM    3  C   UNK     0      34.111   5.194  -7.316  0.00  0.00     0.180 C 
HETATM    4  C   UNK     0      34.825   6.381  -5.207  0.00  0.00     0.205 C 
HETATM    5  C   UNK     0      32.846   6.054  -7.282  0.00  0.00     0.179 C 
HETATM    6  C   UNK     0      33.506   7.150  -5.281  0.00  0.00     0.298 C 
ENDROOT
BRANCH   5   7
HETATM    7  C   UNK     0      31.655   5.329  -7.900  0.00  0.00     0.198 C 
BRANCH   7   8
HETATM    8  O   UNK     0      31.817   3.938  -7.693  0.00  0.00    -0.398 OA
HETATM    9  H   UNK     0      31.043   3.490  -8.076  0.00  0.00     0.209 HD
ENDBRANCH   7   8
ENDBRANCH   5   7
BRANCH   6  10
HETATM   10  O   UNK     0      33.095   7.448  -3.948  0.00  0.00    -0.318 OA
BRANCH  10  11
HETATM   11  C   UNK     0      32.285   8.533  -3.787  0.00  0.00     0.077 A 
HETATM   12  C   UNK     0      31.092   8.410  -3.073  0.00  0.00     0.075 A 
HETATM   13  C   UNK     0      30.264   9.520  -2.910  0.00  0.00     0.095 A 
HETATM   14  O   UNK     0      29.104   9.338  -2.200  0.00  0.00    -0.309 OA
HETATM   15  C   UNK     0      30.629  10.749  -3.459  0.00  0.00     0.081 A 
HETATM   16  C   UNK     0      28.265  10.426  -2.016  0.00  0.00     0.090 A 
HETATM   17  C   UNK     0      28.503  11.655  -2.500  0.00  0.00     0.094 A 
HETATM   18  C   UNK     0      29.737  11.903  -3.273  0.00  0.00     0.190 A 
HETATM   19  O   UNK     0      29.993  13.008  -3.730  0.00  0.00    -0.287 OA
HETATM   20  C   UNK     0      31.823  10.876  -4.174  0.00  0.00     0.085 A 
HETATM   21  C   UNK     0      32.649   9.762  -4.335  0.00  0.00     0.074 A 
BRANCH  16  22
HETATM   22  C   UNK     0      27.044  10.118  -1.243  0.00  0.00     0.001 A 
HETATM   23  C   UNK     0      26.232   9.044  -1.615  0.00  0.00     0.053 A 
HETATM   24  C   UNK     0      25.079   8.753  -0.884  0.00  0.00     0.099 A 
HETATM   25  C   UNK     0      24.736   9.534   0.218  0.00  0.00     0.098 A 
HETATM   26  C   UNK     0      25.546  10.607   0.592  0.00  0.00     0.040 A 
HETATM   27  C   UNK     0      26.698  10.899  -0.137  0.00  0.00     0.017 A 
BRANCH  24  28
HETATM   28  O   UNK     0      24.294   7.704  -1.260  0.00  0.00    -0.358 OA
HETATM   29  H   UNK     0      23.438   7.786  -0.807  0.00  0.00     0.217 HD
ENDBRANCH  24  28
BRANCH  25  30
HETATM   30  O   UNK     0      23.614   9.259   0.940  0.00  0.00    -0.358 OA
HETATM   31  H   UNK     0      22.875   9.785   0.590  0.00  0.00     0.217 HD
ENDBRANCH  25  30
ENDBRANCH  16  22
BRANCH  20  32
HETATM   32  O   UNK     0      32.223  12.053  -4.729  0.00  0.00    -0.360 OA
HETATM   33  H   UNK     0      33.154  12.006  -4.994  0.00  0.00     0.217 HD
ENDBRANCH  20  32
ENDBRANCH  10  11
ENDBRANCH   6  10
BRANCH   3  34
HETATM   34  O   UNK     0      34.486   4.960  -8.672  0.00  0.00    -0.390 OA
HETATM   35  H   UNK     0      35.100   4.206  -8.688  0.00  0.00     0.210 HD
ENDBRANCH   3  34
BRANCH   4  36
HETATM   36  O   UNK     0      35.823   7.254  -4.678  0.00  0.00    -0.388 OA
HETATM   37  H   UNK     0      36.501   6.709  -4.244  0.00  0.00     0.210 HD
ENDBRANCH   4  36
BRANCH   2  38
HETATM   38  O   UNK     0      36.328   4.951  -6.444  0.00  0.00    -0.390 OA
HETATM   39  H   UNK     0      36.543   4.899  -5.496  0.00  0.00     0.210 HD
ENDBRANCH   2  38
TORSDOF 11
ENDMDL
MODEL 9
REMARK VINA RESULT:      -8.2      6.322     11.390
REMARK  11 active torsions:
REMARK  status: ('A' for Active; 'I' for Inactive)
REMARK    1  A    between atoms: O_2  and  C_16 
REMARK    2  A    between atoms: O_2  and  C_18 
REMARK    3  A    between atoms: O_3  and  C_12 
REMARK    4  A    between atoms: O_4  and  C_13 
REMARK    5  A    between atoms: O_5  and  C_14 
REMARK    6  A    between atoms: O_6  and  C_17 
REMARK    7  A    between atoms: O_8  and  C_23 
REMARK    8  A    between atoms: O_10  and  C_30 
REMARK    9  A    between atoms: O_11  and  C_32 
REMARK   10  A    between atoms: C_15  and  C_17 
REMARK   11  A    between atoms: C_25  and  C_27 
ROOT
HETATM    1  O   UNK     0      39.023   7.537  -2.248  0.00  0.00    -0.348 OA
HETATM    2  C   UNK     0      41.557   8.692  -2.950  0.00  0.00     0.183 C 
HETATM    3  C   UNK     0      41.411   7.231  -2.521  0.00  0.00     0.180 C 
HETATM    4  C   UNK     0      40.387   9.536  -2.445  0.00  0.00     0.205 C 
HETATM    5  C   UNK     0      40.014   6.704  -2.853  0.00  0.00     0.179 C 
HETATM    6  C   UNK     0      39.046   8.870  -2.753  0.00  0.00     0.298 C 
ENDROOT
BRANCH   5   7
HETATM    7  C   UNK     0      39.806   5.287  -2.329  0.00  0.00     0.198 C 
BRANCH   7   8
HETATM    8  O   UNK     0      40.391   4.378  -3.244  0.00  0.00    -0.398 OA
HETATM    9  H   UNK     0      39.817   4.338  -4.028  0.00  0.00     0.209 HD
ENDBRANCH   7   8
ENDBRANCH   5   7
BRANCH   6  10
HETATM   10  O   UNK     0      38.019   9.640  -2.129  0.00  0.00    -0.318 OA
BRANCH  10  11
HETATM   11  C   UNK     0      36.800   9.042  -2.001  0.00  0.00     0.077 A 
HETATM   12  C   UNK     0      36.139   8.560  -3.131  0.00  0.00     0.075 A 
HETATM   13  C   UNK     0      34.893   7.949  -2.998  0.00  0.00     0.095 A 
HETATM   14  O   UNK     0      34.291   7.495  -4.144  0.00  0.00    -0.309 OA
HETATM   15  C   UNK     0      34.310   7.822  -1.737  0.00  0.00     0.081 A 
HETATM   16  C   UNK     0      33.054   6.878  -4.041  0.00  0.00     0.090 A 
HETATM   17  C   UNK     0      32.391   6.703  -2.887  0.00  0.00     0.094 A 
HETATM   18  C   UNK     0      32.994   7.176  -1.625  0.00  0.00     0.190 A 
HETATM   19  O   UNK     0      32.424   7.034  -0.552  0.00  0.00    -0.287 OA
HETATM   20  C   UNK     0      34.969   8.304  -0.603  0.00  0.00     0.085 A 
HETATM   21  C   UNK     0      36.217   8.914  -0.740  0.00  0.00     0.074 A 
BRANCH  16  22
HETATM   22  C   UNK     0      32.495   6.433  -5.335  0.00  0.00     0.001 A 
HETATM   23  C   UNK     0      31.273   6.940  -5.781  0.00  0.00     0.053 A 
HETATM   24  C   UNK     0      30.746   6.521  -7.003  0.00  0.00     0.099 A 
HETATM   25  C   UNK     0      31.440   5.594  -7.781  0.00  0.00     0.098 A 
HETATM   26  C   UNK     0      32.662   5.088  -7.337  0.00  0.00     0.040 A 
HETATM   27  C   UNK     0      33.189   5.506  -6.116  0.00  0.00     0.017 A 
BRANCH  24  28
HETATM   28  O   UNK     0      29.551   7.021  -7.426  0.00  0.00    -0.358 OA
HETATM   29  H   UNK     0      29.236   6.476  -8.166  0.00  0.00     0.217 HD
ENDBRANCH  24  28
BRANCH  25  30
HETATM   30  O   UNK     0      30.937   5.179  -8.976  0.00  0.00    -0.358 OA
HETATM   31  H   UNK     0      31.674   4.959  -9.572  0.00  0.00     0.217 HD
ENDBRANCH  25  30
ENDBRANCH  16  22
BRANCH  20  32
HETATM   32  O   UNK     0      34.442   8.204   0.648  0.00  0.00    -0.360 OA
HETATM   33  H   UNK     0      34.857   8.843   1.246  0.00  0.00     0.217 HD
ENDBRANCH  20  32
ENDBRANCH  10  11
ENDBRANCH   6  10
BRANCH   3  34
HETATM   34  O   UNK     0      42.386   6.442  -3.198  0.00  0.00    -0.390 OA
HETATM   35  H   UNK     0      43.266   6.742  -2.913  0.00  0.00     0.210 HD
ENDBRANCH   3  34
BRANCH   4  36
HETATM   36  O   UNK     0      40.411  10.811  -3.086  0.00  0.00    -0.388 OA
HETATM   37  H   UNK     0      41.163  11.314  -2.728  0.00  0.00     0.210 HD
ENDBRANCH   4  36
BRANCH   2  38
HETATM   38  O   UNK     0      42.777   9.194  -2.404  0.00  0.00    -0.390 OA
HETATM   39  H   UNK     0      43.091   9.900  -2.995  0.00  0.00     0.210 HD
ENDBRANCH   2  38
TORSDOF 11
ENDMDL
