MODEL 1
REMARK VINA RESULT:      -8.8      0.000      0.000
REMARK  Name = 5280445
REMARK  5 active torsions:
REMARK  status: ('A' for Active; 'I' for Inactive)
REMARK    1  A    between atoms: O_2  and  C_13
REMARK    2  A    between atoms: O_4  and  C_16
REMARK    3  A    between atoms: O_5  and  C_19
REMARK    4  A    between atoms: O_6  and  C_21
REMARK    5  A    between atoms: C_9  and  C_10
REMARK                            x       y       z     vdW  Elec       q    Type
REMARK                         _______ _______ _______ _____ _____    ______ ____
ROOT
ATOM      1  O   UNL     1     170.663 162.163 194.053  0.00  0.00    +0.000 OA
ATOM      3  O   UNL     1     169.118 160.063 197.184  0.00  0.00    +0.000 OA
ATOM      7  C   UNL     1     169.026 160.571 194.878  0.00  0.00    +0.000 A 
ATOM      8  C   UNL     1     169.602 161.317 193.851  0.00  0.00    +0.000 A 
ATOM      9  C   UNL     1     171.177 162.286 195.335  0.00  0.00    +0.000 A 
ATOM     11  C   UNL     1     169.574 160.690 196.238  0.00  0.00    +0.000 A 
ATOM     12  C   UNL     1     170.713 161.616 196.402  0.00  0.00    +0.000 A 
ATOM     13  C   UNL     1     167.946 159.724 194.614  0.00  0.00    +0.000 A 
ATOM     14  C   UNL     1     169.103 161.220 192.554  0.00  0.00    +0.000 A 
ATOM     16  C   UNL     1     168.026 160.375 192.286  0.00  0.00    +0.000 A 
ATOM     17  C   UNL     1     167.449 159.629 193.314  0.00  0.00    +0.000 A 
ENDROOT
BRANCH   9  10
ATOM     10  C   UNL     1     172.319 163.217 195.438  0.00  0.00    +0.000 A 
ATOM     15  C   UNL     1     173.388 163.117 194.545  0.00  0.00    +0.000 A 
ATOM     18  C   UNL     1     172.334 164.200 196.430  0.00  0.00    +0.000 A 
ATOM     19  C   UNL     1     174.466 163.996 194.643  0.00  0.00    +0.000 A 
ATOM     20  C   UNL     1     173.413 165.080 196.528  0.00  0.00    +0.000 A 
ATOM     21  C   UNL     1     174.479 164.978 195.634  0.00  0.00    +0.000 A 
BRANCH  19   5
ATOM      5  O   UNL     1     175.503 163.887 193.765  0.00  0.00    +0.000 OA
ATOM     24  H   UNL     1     175.751 162.949 193.700  0.00  0.00    +0.000 HD
ENDBRANCH  19   5
BRANCH  21   6
ATOM      6  O   UNL     1     175.525 165.843 195.739  0.00  0.00    +0.000 OA
ATOM     25  H   UNL     1     175.213 166.743 195.547  0.00  0.00    +0.000 HD
ENDBRANCH  21   6
ENDBRANCH   9  10
BRANCH  13   2
ATOM      2  O   UNL     1     167.349 158.974 195.582  0.00  0.00    +0.000 OA
ATOM     22  H   UNL     1     167.904 158.214 195.815  0.00  0.00    +0.000 HD
ENDBRANCH  13   2
BRANCH  16   4
ATOM      4  O   UNL     1     167.536 160.279 191.019  0.00  0.00    +0.000 OA
ATOM     23  H   UNL     1     168.088 159.659 190.513  0.00  0.00    +0.000 HD
ENDBRANCH  16   4
TORSDOF 5
ENDMDL
MODEL 2
REMARK VINA RESULT:      -8.7     54.643     56.743
REMARK  Name = 5280445
REMARK  5 active torsions:
REMARK  status: ('A' for Active; 'I' for Inactive)
REMARK    1  A    between atoms: O_2  and  C_13
REMARK    2  A    between atoms: O_4  and  C_16
REMARK    3  A    between atoms: O_5  and  C_19
REMARK    4  A    between atoms: O_6  and  C_21
REMARK    5  A    between atoms: C_9  and  C_10
REMARK                            x       y       z     vdW  Elec       q    Type
REMARK                         _______ _______ _______ _____ _____    ______ ____
ROOT
ATOM      1  O   UNL     1     167.861 180.014 140.334  0.00  0.00    +0.000 OA
ATOM      3  O   UNL     1     165.879 176.681 141.585  0.00  0.00    +0.000 OA
ATOM      7  C   UNL     1     165.780 178.773 140.491  0.00  0.00    +0.000 A 
ATOM      8  C   UNL     1     166.517 179.886 140.090  0.00  0.00    +0.000 A 
ATOM      9  C   UNL     1     168.509 178.996 141.017  0.00  0.00    +0.000 A 
ATOM     11  C   UNL     1     166.465 177.687 141.207  0.00  0.00    +0.000 A 
ATOM     12  C   UNL     1     167.910 177.875 141.448  0.00  0.00    +0.000 A 
ATOM     13  C   UNL     1     164.412 178.696 140.214  0.00  0.00    +0.000 A 
ATOM     14  C   UNL     1     165.892 180.928 139.408  0.00  0.00    +0.000 A 
ATOM     16  C   UNL     1     164.527 180.855 139.129  0.00  0.00    +0.000 A 
ATOM     17  C   UNL     1     163.789 179.742 139.531  0.00  0.00    +0.000 A 
ENDROOT
BRANCH   9  10
ATOM     10  C   UNL     1     169.953 179.234 141.222  0.00  0.00    +0.000 A 
ATOM     15  C   UNL     1     170.528 179.019 142.476  0.00  0.00    +0.000 A 
ATOM     18  C   UNL     1     170.748 179.675 140.162  0.00  0.00    +0.000 A 
ATOM     19  C   UNL     1     171.891 179.243 142.669  0.00  0.00    +0.000 A 
ATOM     20  C   UNL     1     172.111 179.899 140.355  0.00  0.00    +0.000 A 
ATOM     21  C   UNL     1     172.683 179.683 141.608  0.00  0.00    +0.000 A 
BRANCH  19   5
ATOM      5  O   UNL     1     172.438 179.030 143.899  0.00  0.00    +0.000 OA
ATOM     24  H   UNL     1     173.009 179.787 144.115  0.00  0.00    +0.000 HD
ENDBRANCH  19   5
BRANCH  21   6
ATOM      6  O   UNL     1     174.015 179.905 141.784  0.00  0.00    +0.000 OA
ATOM     25  H   UNL     1     174.181 180.862 141.767  0.00  0.00    +0.000 HD
ENDBRANCH  21   6
ENDBRANCH   9  10
BRANCH  13   2
ATOM      2  O   UNL     1     163.648 177.631 140.584  0.00  0.00    +0.000 OA
ATOM     22  H   UNL     1     163.490 177.047 139.826  0.00  0.00    +0.000 HD
ENDBRANCH  13   2
BRANCH  16   4
ATOM      4  O   UNL     1     163.914 181.872 138.462  0.00  0.00    +0.000 OA
ATOM     23  H   UNL     1     163.234 181.500 137.875  0.00  0.00    +0.000 HD
ENDBRANCH  16   4
TORSDOF 5
ENDMDL
MODEL 3
REMARK VINA RESULT:      -8.7      2.723      3.210
REMARK  Name = 5280445
REMARK  5 active torsions:
REMARK  status: ('A' for Active; 'I' for Inactive)
REMARK    1  A    between atoms: O_2  and  C_13
REMARK    2  A    between atoms: O_4  and  C_16
REMARK    3  A    between atoms: O_5  and  C_19
REMARK    4  A    between atoms: O_6  and  C_21
REMARK    5  A    between atoms: C_9  and  C_10
REMARK                            x       y       z     vdW  Elec       q    Type
REMARK                         _______ _______ _______ _____ _____    ______ ____
ROOT
ATOM      1  O   UNL     1     169.543 162.415 194.983  0.00  0.00    +0.000 OA
ATOM      3  O   UNL     1     167.564 165.536 196.700  0.00  0.00    +0.000 OA
ATOM      7  C   UNL     1     167.476 163.322 195.876  0.00  0.00    +0.000 A 
ATOM      8  C   UNL     1     168.212 162.294 195.290  0.00  0.00    +0.000 A 
ATOM      9  C   UNL     1     170.180 163.615 195.262  0.00  0.00    +0.000 A 
ATOM     11  C   UNL     1     168.149 164.593 196.183  0.00  0.00    +0.000 A 
ATOM     12  C   UNL     1     169.581 164.674 195.830  0.00  0.00    +0.000 A 
ATOM     13  C   UNL     1     166.121 163.142 196.167  0.00  0.00    +0.000 A 
ATOM     14  C   UNL     1     167.598 161.079 194.991  0.00  0.00    +0.000 A 
ATOM     16  C   UNL     1     166.245 160.895 195.280  0.00  0.00    +0.000 A 
ATOM     17  C   UNL     1     165.509 161.925 195.867  0.00  0.00    +0.000 A 
ENDROOT
BRANCH   9  10
ATOM     10  C   UNL     1     171.611 163.635 194.897  0.00  0.00    +0.000 A 
ATOM     15  C   UNL     1     172.115 162.708 193.982  0.00  0.00    +0.000 A 
ATOM     18  C   UNL     1     172.467 164.580 195.468  0.00  0.00    +0.000 A 
ATOM     19  C   UNL     1     173.466 162.727 193.638  0.00  0.00    +0.000 A 
ATOM     20  C   UNL     1     173.819 164.599 195.123  0.00  0.00    +0.000 A 
ATOM     21  C   UNL     1     174.318 163.673 194.208  0.00  0.00    +0.000 A 
BRANCH  19   5
ATOM      5  O   UNL     1     173.944 161.816 192.744  0.00  0.00    +0.000 OA
ATOM     24  H   UNL     1     173.240 161.620 192.102  0.00  0.00    +0.000 HD
ENDBRANCH  19   5
BRANCH  21   6
ATOM      6  O   UNL     1     175.639 163.702 193.880  0.00  0.00    +0.000 OA
ATOM     25  H   UNL     1     176.169 163.649 194.693  0.00  0.00    +0.000 HD
ENDBRANCH  21   6
ENDBRANCH   9  10
BRANCH  13   2
ATOM      2  O   UNL     1     165.358 164.115 196.740  0.00  0.00    +0.000 OA
ATOM     22  H   UNL     1     165.589 164.985 196.379  0.00  0.00    +0.000 HD
ENDBRANCH  13   2
BRANCH  16   4
ATOM      4  O   UNL     1     165.643 159.709 194.990  0.00  0.00    +0.000 OA
ATOM     23  H   UNL     1     166.181 158.985 195.351  0.00  0.00    +0.000 HD
ENDBRANCH  16   4
TORSDOF 5
ENDMDL
MODEL 4
REMARK VINA RESULT:      -8.6      1.491      2.757
REMARK  Name = 5280445
REMARK  5 active torsions:
REMARK  status: ('A' for Active; 'I' for Inactive)
REMARK    1  A    between atoms: O_2  and  C_13
REMARK    2  A    between atoms: O_4  and  C_16
REMARK    3  A    between atoms: O_5  and  C_19
REMARK    4  A    between atoms: O_6  and  C_21
REMARK    5  A    between atoms: C_9  and  C_10
REMARK                            x       y       z     vdW  Elec       q    Type
REMARK                         _______ _______ _______ _____ _____    ______ ____
ROOT
ATOM      1  O   UNL     1     171.228 162.044 194.838  0.00  0.00    +0.000 OA
ATOM      3  O   UNL     1     168.962 163.124 191.628  0.00  0.00    +0.000 OA
ATOM      7  C   UNL     1     169.535 161.455 193.200  0.00  0.00    +0.000 A 
ATOM      8  C   UNL     1     170.339 161.151 194.297  0.00  0.00    +0.000 A 
ATOM      9  C   UNL     1     171.337 163.300 194.261  0.00  0.00    +0.000 A 
ATOM     11  C   UNL     1     169.639 162.789 192.591  0.00  0.00    +0.000 A 
ATOM     12  C   UNL     1     170.614 163.713 193.207  0.00  0.00    +0.000 A 
ATOM     13  C   UNL     1     168.645 160.505 192.692  0.00  0.00    +0.000 A 
ATOM     14  C   UNL     1     170.257 159.894 194.894  0.00  0.00    +0.000 A 
ATOM     16  C   UNL     1     169.370 158.942 194.390  0.00  0.00    +0.000 A 
ATOM     17  C   UNL     1     168.567 159.247 193.291  0.00  0.00    +0.000 A 
ENDROOT
BRANCH   9  10
ATOM     10  C   UNL     1     172.318 164.183 194.923  0.00  0.00    +0.000 A 
ATOM     15  C   UNL     1     173.684 164.019 194.683  0.00  0.00    +0.000 A 
ATOM     18  C   UNL     1     171.884 165.186 195.793  0.00  0.00    +0.000 A 
ATOM     19  C   UNL     1     174.610 164.852 195.309  0.00  0.00    +0.000 A 
ATOM     20  C   UNL     1     172.811 166.020 196.419  0.00  0.00    +0.000 A 
ATOM     21  C   UNL     1     174.174 165.854 196.177  0.00  0.00    +0.000 A 
BRANCH  19   5
ATOM      5  O   UNL     1     175.940 164.680 195.065  0.00  0.00    +0.000 OA
ATOM     24  H   UNL     1     176.357 164.338 195.875  0.00  0.00    +0.000 HD
ENDBRANCH  19   5
BRANCH  21   6
ATOM      6  O   UNL     1     175.069 166.675 196.793  0.00  0.00    +0.000 OA
ATOM     25  H   UNL     1     175.037 167.550 196.372  0.00  0.00    +0.000 HD
ENDBRANCH  21   6
ENDBRANCH   9  10
BRANCH  13   2
ATOM      2  O   UNL     1     167.839 160.753 191.622  0.00  0.00    +0.000 OA
ATOM     22  H   UNL     1     167.768 159.966 191.061  0.00  0.00    +0.000 HD
ENDBRANCH  13   2
BRANCH  16   4
ATOM      4  O   UNL     1     169.288 157.713 194.971  0.00  0.00    +0.000 OA
ATOM     23  H   UNL     1     168.555 157.714 195.609  0.00  0.00    +0.000 HD
ENDBRANCH  16   4
TORSDOF 5
ENDMDL
MODEL 5
REMARK VINA RESULT:      -8.3      2.330      7.068
REMARK  Name = 5280445
REMARK  5 active torsions:
REMARK  status: ('A' for Active; 'I' for Inactive)
REMARK    1  A    between atoms: O_2  and  C_13
REMARK    2  A    between atoms: O_4  and  C_16
REMARK    3  A    between atoms: O_5  and  C_19
REMARK    4  A    between atoms: O_6  and  C_21
REMARK    5  A    between atoms: C_9  and  C_10
REMARK                            x       y       z     vdW  Elec       q    Type
REMARK                         _______ _______ _______ _____ _____    ______ ____
ROOT
ATOM      1  O   UNL     1     171.172 163.369 195.523  0.00  0.00    +0.000 OA
ATOM      3  O   UNL     1     169.340 166.420 193.539  0.00  0.00    +0.000 OA
ATOM      7  C   UNL     1     171.297 165.604 194.582  0.00  0.00    +0.000 A 
ATOM      8  C   UNL     1     171.864 164.522 195.255  0.00  0.00    +0.000 A 
ATOM      9  C   UNL     1     169.850 163.280 195.113  0.00  0.00    +0.000 A 
ATOM     11  C   UNL     1     169.899 165.510 194.137  0.00  0.00    +0.000 A 
ATOM     12  C   UNL     1     169.197 164.249 194.453  0.00  0.00    +0.000 A 
ATOM     13  C   UNL     1     172.050 166.755 194.336  0.00  0.00    +0.000 A 
ATOM     14  C   UNL     1     173.188 164.585 195.686  0.00  0.00    +0.000 A 
ATOM     16  C   UNL     1     173.943 165.732 195.441  0.00  0.00    +0.000 A 
ATOM     17  C   UNL     1     173.376 166.814 194.769  0.00  0.00    +0.000 A 
ENDROOT
BRANCH   9  10
ATOM     10  C   UNL     1     169.202 161.995 195.447  0.00  0.00    +0.000 A 
ATOM     15  C   UNL     1     169.978 160.890 195.805  0.00  0.00    +0.000 A 
ATOM     18  C   UNL     1     167.811 161.880 195.406  0.00  0.00    +0.000 A 
ATOM     19  C   UNL     1     169.367 159.677 196.120  0.00  0.00    +0.000 A 
ATOM     20  C   UNL     1     167.199 160.666 195.721  0.00  0.00    +0.000 A 
ATOM     21  C   UNL     1     167.977 159.565 196.079  0.00  0.00    +0.000 A 
BRANCH  19   5
ATOM      5  O   UNL     1     170.137 158.608 196.467  0.00  0.00    +0.000 OA
ATOM     24  H   UNL     1     169.822 157.832 195.974  0.00  0.00    +0.000 HD
ENDBRANCH  19   5
BRANCH  21   6
ATOM      6  O   UNL     1     167.368 158.386 196.386  0.00  0.00    +0.000 OA
ATOM     25  H   UNL     1     167.225 158.344 197.346  0.00  0.00    +0.000 HD
ENDBRANCH  21   6
ENDBRANCH   9  10
BRANCH  13   2
ATOM      2  O   UNL     1     171.544 167.837 193.683  0.00  0.00    +0.000 OA
ATOM     22  H   UNL     1     172.151 168.590 193.750  0.00  0.00    +0.000 HD
ENDBRANCH  13   2
BRANCH  16   4
ATOM      4  O   UNL     1     175.238 165.796 195.861  0.00  0.00    +0.000 OA
ATOM     23  H   UNL     1     175.699 164.986 195.585  0.00  0.00    +0.000 HD
ENDBRANCH  16   4
TORSDOF 5
ENDMDL
MODEL 6
REMARK VINA RESULT:      -8.1     15.024     17.832
REMARK  Name = 5280445
REMARK  5 active torsions:
REMARK  status: ('A' for Active; 'I' for Inactive)
REMARK    1  A    between atoms: O_2  and  C_13
REMARK    2  A    between atoms: O_4  and  C_16
REMARK    3  A    between atoms: O_5  and  C_19
REMARK    4  A    between atoms: O_6  and  C_21
REMARK    5  A    between atoms: C_9  and  C_10
REMARK                            x       y       z     vdW  Elec       q    Type
REMARK                         _______ _______ _______ _____ _____    ______ ____
ROOT
ATOM      1  O   UNL     1     183.213 171.032 203.254  0.00  0.00    +0.000 OA
ATOM      3  O   UNL     1     179.507 171.968 201.842  0.00  0.00    +0.000 OA
ATOM      7  C   UNL     1     181.686 171.185 201.371  0.00  0.00    +0.000 A 
ATOM      8  C   UNL     1     182.932 170.882 201.919  0.00  0.00    +0.000 A 
ATOM      9  C   UNL     1     182.216 171.512 204.090  0.00  0.00    +0.000 A 
ATOM     11  C   UNL     1     180.624 171.686 202.255  0.00  0.00    +0.000 A 
ATOM     12  C   UNL     1     180.978 171.832 203.682  0.00  0.00    +0.000 A 
ATOM     13  C   UNL     1     181.457 171.012 200.004  0.00  0.00    +0.000 A 
ATOM     14  C   UNL     1     183.955 170.404 201.103  0.00  0.00    +0.000 A 
ATOM     16  C   UNL     1     183.730 170.229 199.737  0.00  0.00    +0.000 A 
ATOM     17  C   UNL     1     182.483 170.533 199.189  0.00  0.00    +0.000 A 
ENDROOT
BRANCH   9  10
ATOM     10  C   UNL     1     182.624 171.629 205.505  0.00  0.00    +0.000 A 
ATOM     15  C   UNL     1     183.977 171.692 205.842  0.00  0.00    +0.000 A 
ATOM     18  C   UNL     1     181.656 171.677 206.511  0.00  0.00    +0.000 A 
ATOM     19  C   UNL     1     184.361 171.803 207.178  0.00  0.00    +0.000 A 
ATOM     20  C   UNL     1     182.040 171.787 207.847  0.00  0.00    +0.000 A 
ATOM     21  C   UNL     1     183.393 171.851 208.181  0.00  0.00    +0.000 A 
BRANCH  19   5
ATOM      5  O   UNL     1     185.686 171.862 207.492  0.00  0.00    +0.000 OA
ATOM     24  H   UNL     1     185.846 172.684 207.988  0.00  0.00    +0.000 HD
ENDBRANCH  19   5
BRANCH  21   6
ATOM      6  O   UNL     1     183.756 171.959 209.489  0.00  0.00    +0.000 OA
ATOM     25  H   UNL     1     183.266 171.300 210.009  0.00  0.00    +0.000 HD
ENDBRANCH  21   6
ENDBRANCH   9  10
BRANCH  13   2
ATOM      2  O   UNL     1     180.258 171.293 199.420  0.00  0.00    +0.000 OA
ATOM     22  H   UNL     1     179.874 172.096 199.803  0.00  0.00    +0.000 HD
ENDBRANCH  13   2
BRANCH  16   4
ATOM      4  O   UNL     1     184.728 169.762 198.937  0.00  0.00    +0.000 OA
ATOM     23  H   UNL     1     184.976 170.456 198.304  0.00  0.00    +0.000 HD
ENDBRANCH  16   4
TORSDOF 5
ENDMDL
MODEL 7
REMARK VINA RESULT:      -8.0     27.956     31.171
REMARK  Name = 5280445
REMARK  5 active torsions:
REMARK  status: ('A' for Active; 'I' for Inactive)
REMARK    1  A    between atoms: O_2  and  C_13
REMARK    2  A    between atoms: O_4  and  C_16
REMARK    3  A    between atoms: O_5  and  C_19
REMARK    4  A    between atoms: O_6  and  C_21
REMARK    5  A    between atoms: C_9  and  C_10
REMARK                            x       y       z     vdW  Elec       q    Type
REMARK                         _______ _______ _______ _____ _____    ______ ____
ROOT
ATOM      1  O   UNL     1     194.757 163.004 213.571  0.00  0.00    +0.000 OA
ATOM      3  O   UNL     1     193.242 161.310 216.953  0.00  0.00    +0.000 OA
ATOM      7  C   UNL     1     193.074 161.598 214.613  0.00  0.00    +0.000 A 
ATOM      8  C   UNL     1     193.643 162.207 213.496  0.00  0.00    +0.000 A 
ATOM      9  C   UNL     1     195.334 163.219 214.813  0.00  0.00    +0.000 A 
ATOM     11  C   UNL     1     193.688 161.815 215.931  0.00  0.00    +0.000 A 
ATOM     12  C   UNL     1     194.882 162.684 215.959  0.00  0.00    +0.000 A 
ATOM     13  C   UNL     1     191.939 160.795 214.477  0.00  0.00    +0.000 A 
ATOM     14  C   UNL     1     193.082 162.015 212.234  0.00  0.00    +0.000 A 
ATOM     16  C   UNL     1     191.948 161.213 212.094  0.00  0.00    +0.000 A 
ATOM     17  C   UNL     1     191.378 160.605 213.213  0.00  0.00    +0.000 A 
ENDROOT
BRANCH   9  10
ATOM     10  C   UNL     1     196.529 164.087 214.779  0.00  0.00    +0.000 A 
ATOM     15  C   UNL     1     197.500 163.983 215.777  0.00  0.00    +0.000 A 
ATOM     18  C   UNL     1     196.691 165.016 213.749  0.00  0.00    +0.000 A 
ATOM     19  C   UNL     1     198.628 164.802 215.744  0.00  0.00    +0.000 A 
ATOM     20  C   UNL     1     197.819 165.836 213.716  0.00  0.00    +0.000 A 
ATOM     21  C   UNL     1     198.788 165.729 214.714  0.00  0.00    +0.000 A 
BRANCH  19   5
ATOM      5  O   UNL     1     199.567 164.690 216.725  0.00  0.00    +0.000 OA
ATOM     24  H   UNL     1     199.625 163.755 216.988  0.00  0.00    +0.000 HD
ENDBRANCH  19   5
BRANCH  21   6
ATOM      6  O   UNL     1     199.886 166.534 214.671  0.00  0.00    +0.000 OA
ATOM     25  H   UNL     1     199.782 167.245 215.325  0.00  0.00    +0.000 HD
ENDBRANCH  21   6
ENDBRANCH   9  10
BRANCH  13   2
ATOM      2  O   UNL     1     191.345 160.178 215.536  0.00  0.00    +0.000 OA
ATOM     22  H   UNL     1     192.014 159.844 216.154  0.00  0.00    +0.000 HD
ENDBRANCH  13   2
BRANCH  16   4
ATOM      4  O   UNL     1     191.397 161.024 210.863  0.00  0.00    +0.000 OA
ATOM     23  H   UNL     1     190.435 161.151 210.925  0.00  0.00    +0.000 HD
ENDBRANCH  16   4
TORSDOF 5
ENDMDL
MODEL 8
REMARK VINA RESULT:      -7.9     13.807     17.337
REMARK  Name = 5280445
REMARK  5 active torsions:
REMARK  status: ('A' for Active; 'I' for Inactive)
REMARK    1  A    between atoms: O_2  and  C_13
REMARK    2  A    between atoms: O_4  and  C_16
REMARK    3  A    between atoms: O_5  and  C_19
REMARK    4  A    between atoms: O_6  and  C_21
REMARK    5  A    between atoms: C_9  and  C_10
REMARK                            x       y       z     vdW  Elec       q    Type
REMARK                         _______ _______ _______ _____ _____    ______ ____
ROOT
ATOM      1  O   UNL     1     159.517 151.959 189.223  0.00  0.00    +0.000 OA
ATOM      3  O   UNL     1     163.587 151.861 189.394  0.00  0.00    +0.000 OA
ATOM      7  C   UNL     1     161.644 152.974 188.638  0.00  0.00    +0.000 A 
ATOM      8  C   UNL     1     160.251 152.948 188.619  0.00  0.00    +0.000 A 
ATOM      9  C   UNL     1     160.193 150.938 189.874  0.00  0.00    +0.000 A 
ATOM     11  C   UNL     1     162.366 151.899 189.335  0.00  0.00    +0.000 A 
ATOM     12  C   UNL     1     161.530 150.856 189.967  0.00  0.00    +0.000 A 
ATOM     13  C   UNL     1     162.340 154.008 188.006  0.00  0.00    +0.000 A 
ATOM     14  C   UNL     1     159.543 153.957 187.967  0.00  0.00    +0.000 A 
ATOM     16  C   UNL     1     160.234 154.991 187.334  0.00  0.00    +0.000 A 
ATOM     17  C   UNL     1     161.629 155.016 187.354  0.00  0.00    +0.000 A 
ENDROOT
BRANCH   9  10
ATOM     10  C   UNL     1     159.308 149.931 190.493  0.00  0.00    +0.000 A 
ATOM     15  C   UNL     1     157.923 150.026 190.342  0.00  0.00    +0.000 A 
ATOM     18  C   UNL     1     159.854 148.879 191.232  0.00  0.00    +0.000 A 
ATOM     19  C   UNL     1     157.088 149.075 190.927  0.00  0.00    +0.000 A 
ATOM     20  C   UNL     1     159.018 147.927 191.817  0.00  0.00    +0.000 A 
ATOM     21  C   UNL     1     157.635 148.025 191.664  0.00  0.00    +0.000 A 
BRANCH  19   5
ATOM      5  O   UNL     1     155.738 149.182 190.772  0.00  0.00    +0.000 OA
ATOM     24  H   UNL     1     155.563 149.728 189.987  0.00  0.00    +0.000 HD
ENDBRANCH  19   5
BRANCH  21   6
ATOM      6  O   UNL     1     156.830 147.089 192.239  0.00  0.00    +0.000 OA
ATOM     25  H   UNL     1     157.378 146.471 192.752  0.00  0.00    +0.000 HD
ENDBRANCH  21   6
ENDBRANCH   9  10
BRANCH  13   2
ATOM      2  O   UNL     1     163.700 154.079 187.997  0.00  0.00    +0.000 OA
ATOM     22  H   UNL     1     164.086 153.257 188.338  0.00  0.00    +0.000 HD
ENDBRANCH  13   2
BRANCH  16   4
ATOM      4  O   UNL     1     159.546 155.979 186.697  0.00  0.00    +0.000 OA
ATOM     23  H   UNL     1     160.069 156.798 186.726  0.00  0.00    +0.000 HD
ENDBRANCH  16   4
TORSDOF 5
ENDMDL
MODEL 9
REMARK VINA RESULT:      -7.8     28.203     29.526
REMARK  Name = 5280445
REMARK  5 active torsions:
REMARK  status: ('A' for Active; 'I' for Inactive)
REMARK    1  A    between atoms: O_2  and  C_13
REMARK    2  A    between atoms: O_4  and  C_16
REMARK    3  A    between atoms: O_5  and  C_19
REMARK    4  A    between atoms: O_6  and  C_21
REMARK    5  A    between atoms: C_9  and  C_10
REMARK                            x       y       z     vdW  Elec       q    Type
REMARK                         _______ _______ _______ _____ _____    ______ ____
ROOT
ATOM      1  O   UNL     1     165.607 181.559 172.707  0.00  0.00    +0.000 OA
ATOM      3  O   UNL     1     163.810 178.005 171.843  0.00  0.00    +0.000 OA
ATOM      7  C   UNL     1     163.586 180.340 172.133  0.00  0.00    +0.000 A 
ATOM      8  C   UNL     1     164.263 181.521 172.434  0.00  0.00    +0.000 A 
ATOM      9  C   UNL     1     166.319 180.369 172.688  0.00  0.00    +0.000 A 
ATOM     11  C   UNL     1     164.339 179.077 172.103  0.00  0.00    +0.000 A 
ATOM     12  C   UNL     1     165.782 179.172 172.406  0.00  0.00    +0.000 A 
ATOM     13  C   UNL     1     162.216 180.361 171.863  0.00  0.00    +0.000 A 
ATOM     14  C   UNL     1     163.573 182.731 172.467  0.00  0.00    +0.000 A 
ATOM     16  C   UNL     1     162.204 182.757 172.198  0.00  0.00    +0.000 A 
ATOM     17  C   UNL     1     161.527 181.575 171.897  0.00  0.00    +0.000 A 
ENDROOT
BRANCH   9  10
ATOM     10  C   UNL     1     167.757 180.525 172.989  0.00  0.00    +0.000 A 
ATOM     15  C   UNL     1     168.660 179.519 172.640  0.00  0.00    +0.000 A 
ATOM     18  C   UNL     1     168.219 181.679 173.626  0.00  0.00    +0.000 A 
ATOM     19  C   UNL     1     170.017 179.666 172.924  0.00  0.00    +0.000 A 
ATOM     20  C   UNL     1     169.577 181.826 173.911  0.00  0.00    +0.000 A 
ATOM     21  C   UNL     1     170.476 180.820 173.559  0.00  0.00    +0.000 A 
BRANCH  19   5
ATOM      5  O   UNL     1     170.886 178.675 172.577  0.00  0.00    +0.000 OA
ATOM     24  H   UNL     1     171.783 179.050 172.555  0.00  0.00    +0.000 HD
ENDBRANCH  19   5
BRANCH  21   6
ATOM      6  O   UNL     1     171.799 180.975 173.841  0.00  0.00    +0.000 OA
ATOM     25  H   UNL     1     171.950 181.881 174.162  0.00  0.00    +0.000 HD
ENDBRANCH  21   6
ENDBRANCH   9  10
BRANCH  13   2
ATOM      2  O   UNL     1     161.509 179.236 171.563  0.00  0.00    +0.000 OA
ATOM     22  H   UNL     1     161.753 178.512 172.161  0.00  0.00    +0.000 HD
ENDBRANCH  13   2
BRANCH  16   4
ATOM      4  O   UNL     1     161.526 183.938 172.229  0.00  0.00    +0.000 OA
ATOM     23  H   UNL     1     162.144 184.661 172.028  0.00  0.00    +0.000 HD
ENDBRANCH  16   4
TORSDOF 5
ENDMDL
