REMARK  Name = 5280637
REMARK                            x       y       z     vdW  Elec       q    Type
REMARK                         _______ _______ _______ _____ _____    ______ ____
ROOT
ATOM     13  C   LIG    1       -1.637   1.255   1.027  0.00  0.00    +0.131 A 
ATOM     14  C   LIG    1       -1.537   2.582   0.609  0.00  0.00    +0.092 A 
ATOM     15  C   LIG    1       -0.325   3.075   0.124  0.00  0.00    +0.135 A 
ATOM     16  C   LIG    1        0.786   2.231   0.060  0.00  0.00    +0.105 A 
ATOM     17  C   LIG    1        2.077   2.722  -0.445  0.00  0.00    +0.197 A 
ATOM     18  C   LIG    1        3.183   1.743  -0.470  0.00  0.00    +0.098 A 
ATOM     19  C   LIG    1        2.961   0.489  -0.046  0.00  0.00    +0.139 A 
ATOM     30  O   LIG    1        1.745   0.031   0.437  0.00  0.00    -0.454 OA
ATOM     31  O   LIG    1        2.235   3.874  -0.824  0.00  0.00    -0.287 OA
ATOM     32  C   LIG    1        0.687   0.904   0.477  0.00  0.00    +0.146 A 
ATOM     35  C   LIG    1       -0.525   0.414   0.962  0.00  0.00    +0.093 A 
ENDROOT
BRANCH  19  20
ATOM     20  C   LIG    1        4.031  -0.530  -0.040  0.00  0.00    +0.021 A 
ATOM     21  C   LIG    1        3.715  -1.879  -0.213  0.00  0.00    +0.015 A 
ATOM     22  C   LIG    1        4.725  -2.841  -0.206  0.00  0.00    +0.050 A 
ATOM     23  C   LIG    1        6.054  -2.456  -0.027  0.00  0.00    +0.158 A 
ATOM     24  C   LIG    1        6.372  -1.109   0.147  0.00  0.00    +0.159 A 
ATOM     29  C   LIG    1        5.362  -0.147   0.140  0.00  0.00    +0.060 A 
BRANCH  24  25
ATOM     25  O   LIG    1        7.667  -0.722   0.321  0.00  0.00    -0.503 OA
ATOM     26  H   LIG    1        8.229  -1.515   0.298  0.00  0.00    +0.292 HD
ENDBRANCH  24  25
BRANCH  23  27
ATOM     27  O   LIG    1        7.031  -3.405  -0.021  0.00  0.00    -0.503 OA
ATOM     28  H   LIG    1        6.625  -4.279  -0.154  0.00  0.00    +0.292 HD
ENDBRANCH  23  27
ENDBRANCH  19  20
BRANCH  15  33
ATOM     33  O   LIG    1       -0.279   4.378  -0.271  0.00  0.00    -0.506 OA
ATOM     34  H   LIG    1        0.607   4.606  -0.590  0.00  0.00    +0.292 HD
ENDBRANCH  15  33
BRANCH  13  12
ATOM     12  O   LIG    1       -2.824   0.778   1.501  0.00  0.00    -0.461 OA
BRANCH  12   2
ATOM      1  O   LIG    1       -3.633   0.054  -0.564  0.00  0.00    -0.331 OA
ATOM      2  C   LIG    1       -3.400  -0.318   0.792  0.00  0.00    +0.339 C 
ATOM      3  C   LIG    1       -4.715  -0.684   1.481  0.00  0.00    +0.214 C 
ATOM      4  C   LIG    1       -5.475  -1.754   0.696  0.00  0.00    +0.180 C 
ATOM      5  C   LIG    1       -5.564  -1.394  -0.787  0.00  0.00    +0.177 C 
ATOM     36  C   LIG    1       -4.188  -1.012  -1.337  0.00  0.00    +0.179 C 
BRANCH   5   6
ATOM      6  O   LIG    1       -6.069  -2.511  -1.514  0.00  0.00    -0.386 OA
ATOM      7  H   LIG    1       -5.441  -3.246  -1.409  0.00  0.00    +0.210 HD
ENDBRANCH   5   6
BRANCH   4   8
ATOM      8  O   LIG    1       -6.805  -1.863   1.206  0.00  0.00    -0.386 OA
ATOM      9  H   LIG    1       -7.264  -2.539   0.678  0.00  0.00    +0.210 HD
ENDBRANCH   4   8
BRANCH   3  10
ATOM     10  O   LIG    1       -4.415  -1.178   2.786  0.00  0.00    -0.383 OA
ATOM     11  H   LIG    1       -3.859  -1.970   2.688  0.00  0.00    +0.210 HD
ENDBRANCH   3  10
BRANCH  36  37
ATOM     37  C   LIG    1       -4.271  -0.536  -2.784  0.00  0.00    +0.190 C 
BRANCH  37  38
ATOM     38  O   LIG    1       -2.969  -0.191  -3.220  0.00  0.00    -0.392 OA
ATOM     39  H   LIG    1       -2.629   0.496  -2.621  0.00  0.00    +0.210 HD
ENDBRANCH  37  38
ENDBRANCH  36  37
ENDBRANCH  12   2
ENDBRANCH  13  12
TORSDOF 11
