MODEL 1
REMARK VINA RESULT:    -6.430      0.000      0.000
REMARK INTER + INTRA:          -7.616
REMARK INTER:                  -7.569
REMARK INTRA:                  -0.047
REMARK UNBOUND:                -0.059
REMARK  Name = 370
REMARK  5 active torsions:
REMARK  status: ('A' for Active; 'I' for Inactive)
REMARK    1  A    between atoms: O_1  and  C_7
REMARK    2  A    between atoms: O_2  and  C_8
REMARK    3  A    between atoms: O_3  and  C_9
REMARK    4  A    between atoms: O_4  and  C_12
REMARK    5  A    between atoms: C_6  and  C_12
REMARK                            x       y       z     vdW  Elec       q    Type
REMARK                         _______ _______ _______ _____ _____    ______ ____
ROOT
ATOM      1  C   UNL     1      91.424  17.684  43.916  0.00  0.00    +0.000 A 
ATOM      2  C   UNL     1      91.976  14.985  43.471  0.00  0.00    +0.000 A 
ATOM      3  C   UNL     1      93.009  15.865  43.798  0.00  0.00    +0.000 A 
ATOM      4  C   UNL     1      90.667  15.456  43.367  0.00  0.00    +0.000 A 
ATOM      5  C   UNL     1      92.732  17.213  44.019  0.00  0.00    +0.000 A 
ATOM      6  C   UNL     1      90.391  16.804  43.589  0.00  0.00    +0.000 A 
ENDROOT
BRANCH   2   7
ATOM      7  O   UNL     1      92.246  13.667  43.253  0.00  0.00    +0.000 OA
ATOM      8  H   UNL     1      91.416  13.219  43.014  0.00  0.00    +0.000 HD
ENDBRANCH   2   7
BRANCH   3   9
ATOM      9  O   UNL     1      94.291  15.417  43.903  0.00  0.00    +0.000 OA
ATOM     10  H   UNL     1      94.429  14.697  43.262  0.00  0.00    +0.000 HD
ENDBRANCH   3   9
BRANCH   4  11
ATOM     11  O   UNL     1      89.649  14.608  43.046  0.00  0.00    +0.000 OA
ATOM     12  H   UNL     1      88.996  15.100  42.520  0.00  0.00    +0.000 HD
ENDBRANCH   4  11
BRANCH   1  14
ATOM     13  O   UNL     1      90.931  19.932  43.266  0.00  0.00    +0.000 OA
ATOM     14  C   UNL     1      91.136  19.091  44.146  0.00  0.00    +0.000 C 
BRANCH  14  15
ATOM     15  O   UNL     1      91.112  19.407  45.469  0.00  0.00    +0.000 OA
ATOM     16  H   UNL     1      91.693  18.817  45.996  0.00  0.00    +0.000 HD
ENDBRANCH  14  15
ENDBRANCH   1  14
TORSDOF 5
ENDMDL
MODEL 2
REMARK VINA RESULT:    -6.425      0.123      2.403
REMARK INTER + INTRA:          -7.611
REMARK INTER:                  -7.564
REMARK INTRA:                  -0.047
REMARK UNBOUND:                -0.059
REMARK  Name = 370
REMARK  5 active torsions:
REMARK  status: ('A' for Active; 'I' for Inactive)
REMARK    1  A    between atoms: O_1  and  C_7
REMARK    2  A    between atoms: O_2  and  C_8
REMARK    3  A    between atoms: O_3  and  C_9
REMARK    4  A    between atoms: O_4  and  C_12
REMARK    5  A    between atoms: C_6  and  C_12
REMARK                            x       y       z     vdW  Elec       q    Type
REMARK                         _______ _______ _______ _____ _____    ______ ____
ROOT
ATOM      1  C   UNL     1      91.441  17.682  43.885  0.00  0.00    +0.000 A 
ATOM      2  C   UNL     1      92.032  15.008  43.347  0.00  0.00    +0.000 A 
ATOM      3  C   UNL     1      90.725  15.477  43.204  0.00  0.00    +0.000 A 
ATOM      4  C   UNL     1      93.043  15.877  43.758  0.00  0.00    +0.000 A 
ATOM      5  C   UNL     1      90.431  16.813  43.474  0.00  0.00    +0.000 A 
ATOM      6  C   UNL     1      92.748  17.213  44.028  0.00  0.00    +0.000 A 
ENDROOT
BRANCH   2   7
ATOM      7  O   UNL     1      92.320  13.702  43.085  0.00  0.00    +0.000 OA
ATOM      8  H   UNL     1      91.632  13.348  42.496  0.00  0.00    +0.000 HD
ENDBRANCH   2   7
BRANCH   3   9
ATOM      9  O   UNL     1      89.730  14.638  42.802  0.00  0.00    +0.000 OA
ATOM     10  H   UNL     1      88.881  14.966  43.147  0.00  0.00    +0.000 HD
ENDBRANCH   3   9
BRANCH   4  11
ATOM     11  O   UNL     1      94.323  15.432  43.904  0.00  0.00    +0.000 OA
ATOM     12  H   UNL     1      94.350  14.493  43.650  0.00  0.00    +0.000 HD
ENDBRANCH   4  11
BRANCH   1  14
ATOM     13  O   UNL     1      90.911  19.944  43.318  0.00  0.00    +0.000 OA
ATOM     14  C   UNL     1      91.133  19.075  44.166  0.00  0.00    +0.000 C 
BRANCH  14  15
ATOM     15  O   UNL     1      91.110  19.343  45.500  0.00  0.00    +0.000 OA
ATOM     16  H   UNL     1      91.514  20.213  45.705  0.00  0.00    +0.000 HD
ENDBRANCH  14  15
ENDBRANCH   1  14
TORSDOF 5
ENDMDL
MODEL 3
REMARK VINA RESULT:    -6.199     14.921     16.419
REMARK INTER + INTRA:          -7.345
REMARK INTER:                  -7.288
REMARK INTRA:                  -0.057
REMARK UNBOUND:                -0.059
REMARK  Name = 370
REMARK  5 active torsions:
REMARK  status: ('A' for Active; 'I' for Inactive)
REMARK    1  A    between atoms: O_1  and  C_7
REMARK    2  A    between atoms: O_2  and  C_8
REMARK    3  A    between atoms: O_3  and  C_9
REMARK    4  A    between atoms: O_4  and  C_12
REMARK    5  A    between atoms: C_6  and  C_12
REMARK                            x       y       z     vdW  Elec       q    Type
REMARK                         _______ _______ _______ _____ _____    ______ ____
ROOT
ATOM      1  C   UNL     1      88.019  11.135  30.079  0.00  0.00    +0.000 A 
ATOM      2  C   UNL     1      86.277  11.769  27.993  0.00  0.00    +0.000 A 
ATOM      3  C   UNL     1      86.302  12.556  29.146  0.00  0.00    +0.000 A 
ATOM      4  C   UNL     1      87.124  10.666  27.884  0.00  0.00    +0.000 A 
ATOM      5  C   UNL     1      87.172  12.238  30.188  0.00  0.00    +0.000 A 
ATOM      6  C   UNL     1      87.994  10.349  28.926  0.00  0.00    +0.000 A 
ENDROOT
BRANCH   2   7
ATOM      7  O   UNL     1      85.425  12.079  26.975  0.00  0.00    +0.000 OA
ATOM      8  H   UNL     1      85.901  11.972  26.133  0.00  0.00    +0.000 HD
ENDBRANCH   2   7
BRANCH   3   9
ATOM      9  O   UNL     1      85.480  13.636  29.264  0.00  0.00    +0.000 OA
ATOM     10  H   UNL     1      85.355  14.037  28.386  0.00  0.00    +0.000 HD
ENDBRANCH   3   9
BRANCH   4  11
ATOM     11  O   UNL     1      87.107   9.889  26.765  0.00  0.00    +0.000 OA
ATOM     12  H   UNL     1      87.378   8.988  27.014  0.00  0.00    +0.000 HD
ENDBRANCH   4  11
BRANCH   1  14
ATOM     13  O   UNL     1      88.750  11.085  32.356  0.00  0.00    +0.000 OA
ATOM     14  C   UNL     1      88.926  10.804  31.166  0.00  0.00    +0.000 C 
BRANCH  14  15
ATOM     15  O   UNL     1      90.028  10.130  30.737  0.00  0.00    +0.000 OA
ATOM     16  H   UNL     1      90.622  10.702  30.206  0.00  0.00    +0.000 HD
ENDBRANCH  14  15
ENDBRANCH   1  14
TORSDOF 5
ENDMDL
MODEL 4
REMARK VINA RESULT:    -6.176     14.885     16.368
REMARK INTER + INTRA:          -7.317
REMARK INTER:                  -7.260
REMARK INTRA:                  -0.057
REMARK UNBOUND:                -0.059
REMARK  Name = 370
REMARK  5 active torsions:
REMARK  status: ('A' for Active; 'I' for Inactive)
REMARK    1  A    between atoms: O_1  and  C_7
REMARK    2  A    between atoms: O_2  and  C_8
REMARK    3  A    between atoms: O_3  and  C_9
REMARK    4  A    between atoms: O_4  and  C_12
REMARK    5  A    between atoms: C_6  and  C_12
REMARK                            x       y       z     vdW  Elec       q    Type
REMARK                         _______ _______ _______ _____ _____    ______ ____
ROOT
ATOM      1  C   UNL     1      88.005  11.140  30.114  0.00  0.00    +0.000 A 
ATOM      2  C   UNL     1      86.252  11.785  28.041  0.00  0.00    +0.000 A 
ATOM      3  C   UNL     1      87.100  10.684  27.921  0.00  0.00    +0.000 A 
ATOM      4  C   UNL     1      86.281  12.564  29.199  0.00  0.00    +0.000 A 
ATOM      5  C   UNL     1      87.976  10.362  28.957  0.00  0.00    +0.000 A 
ATOM      6  C   UNL     1      87.157  12.242  30.234  0.00  0.00    +0.000 A 
ENDROOT
BRANCH   2   7
ATOM      7  O   UNL     1      85.397  12.101  27.028  0.00  0.00    +0.000 OA
ATOM      8  H   UNL     1      84.516  12.263  27.409  0.00  0.00    +0.000 HD
ENDBRANCH   2   7
BRANCH   3   9
ATOM      9  O   UNL     1      87.081   9.916  26.796  0.00  0.00    +0.000 OA
ATOM     10  H   UNL     1      86.573   9.105  26.974  0.00  0.00    +0.000 HD
ENDBRANCH   3   9
BRANCH   4  11
ATOM     11  O   UNL     1      85.459  13.644  29.328  0.00  0.00    +0.000 OA
ATOM     12  H   UNL     1      84.622  13.345  29.722  0.00  0.00    +0.000 HD
ENDBRANCH   4  11
BRANCH   1  14
ATOM     13  O   UNL     1      88.745  11.069  32.388  0.00  0.00    +0.000 OA
ATOM     14  C   UNL     1      88.920  10.804  31.194  0.00  0.00    +0.000 C 
BRANCH  14  15
ATOM     15  O   UNL     1      90.027  10.147  30.753  0.00  0.00    +0.000 OA
ATOM     16  H   UNL     1      90.679  10.760  30.351  0.00  0.00    +0.000 HD
ENDBRANCH  14  15
ENDBRANCH   1  14
TORSDOF 5
ENDMDL
MODEL 5
REMARK VINA RESULT:    -6.170     15.572     16.846
REMARK INTER + INTRA:          -7.310
REMARK INTER:                  -7.261
REMARK INTRA:                  -0.049
REMARK UNBOUND:                -0.059
REMARK  Name = 370
REMARK  5 active torsions:
REMARK  status: ('A' for Active; 'I' for Inactive)
REMARK    1  A    between atoms: O_1  and  C_7
REMARK    2  A    between atoms: O_2  and  C_8
REMARK    3  A    between atoms: O_3  and  C_9
REMARK    4  A    between atoms: O_4  and  C_12
REMARK    5  A    between atoms: C_6  and  C_12
REMARK                            x       y       z     vdW  Elec       q    Type
REMARK                         _______ _______ _______ _____ _____    ______ ____
ROOT
ATOM      1  C   UNL     1      85.607  12.651  28.710  0.00  0.00    +0.000 A 
ATOM      2  C   UNL     1      87.692  10.796  28.667  0.00  0.00    +0.000 A 
ATOM      3  C   UNL     1      86.872  10.952  27.549  0.00  0.00    +0.000 A 
ATOM      4  C   UNL     1      87.469  11.569  29.807  0.00  0.00    +0.000 A 
ATOM      5  C   UNL     1      85.831  11.878  27.571  0.00  0.00    +0.000 A 
ATOM      6  C   UNL     1      86.427  12.496  29.829  0.00  0.00    +0.000 A 
ENDROOT
BRANCH   2   7
ATOM      7  O   UNL     1      88.710   9.890  28.646  0.00  0.00    +0.000 OA
ATOM      8  H   UNL     1      89.538  10.353  28.863  0.00  0.00    +0.000 HD
ENDBRANCH   2   7
BRANCH   3   9
ATOM      9  O   UNL     1      87.081  10.203  26.430  0.00  0.00    +0.000 OA
ATOM     10  H   UNL     1      86.586  10.595  25.689  0.00  0.00    +0.000 HD
ENDBRANCH   3   9
BRANCH   4  11
ATOM     11  O   UNL     1      88.261  11.426  30.907  0.00  0.00    +0.000 OA
ATOM     12  H   UNL     1      88.337  12.293  31.343  0.00  0.00    +0.000 HD
ENDBRANCH   4  11
BRANCH   1  14
ATOM     13  O   UNL     1      84.650  14.838  28.864  0.00  0.00    +0.000 OA
ATOM     14  C   UNL     1      84.520  13.617  28.733  0.00  0.00    +0.000 C 
BRANCH  14  15
ATOM     15  O   UNL     1      83.300  13.030  28.590  0.00  0.00    +0.000 OA
ATOM     16  H   UNL     1      82.642  13.399  29.218  0.00  0.00    +0.000 HD
ENDBRANCH  14  15
ENDBRANCH   1  14
TORSDOF 5
ENDMDL
MODEL 6
REMARK VINA RESULT:    -6.165     15.597     16.789
REMARK INTER + INTRA:          -7.304
REMARK INTER:                  -7.255
REMARK INTRA:                  -0.049
REMARK UNBOUND:                -0.059
REMARK  Name = 370
REMARK  5 active torsions:
REMARK  status: ('A' for Active; 'I' for Inactive)
REMARK    1  A    between atoms: O_1  and  C_7
REMARK    2  A    between atoms: O_2  and  C_8
REMARK    3  A    between atoms: O_3  and  C_9
REMARK    4  A    between atoms: O_4  and  C_12
REMARK    5  A    between atoms: C_6  and  C_12
REMARK                            x       y       z     vdW  Elec       q    Type
REMARK                         _______ _______ _______ _____ _____    ______ ____
ROOT
ATOM      1  C   UNL     1      85.598  12.695  28.686  0.00  0.00    +0.000 A 
ATOM      2  C   UNL     1      87.679  10.836  28.620  0.00  0.00    +0.000 A 
ATOM      3  C   UNL     1      87.454  11.593  29.771  0.00  0.00    +0.000 A 
ATOM      4  C   UNL     1      86.862  11.010  27.502  0.00  0.00    +0.000 A 
ATOM      5  C   UNL     1      86.415  12.522  29.803  0.00  0.00    +0.000 A 
ATOM      6  C   UNL     1      85.823  11.939  27.535  0.00  0.00    +0.000 A 
ENDROOT
BRANCH   2   7
ATOM      7  O   UNL     1      88.695   9.929  28.588  0.00  0.00    +0.000 OA
ATOM      8  H   UNL     1      89.245  10.056  29.380  0.00  0.00    +0.000 HD
ENDBRANCH   2   7
BRANCH   3   9
ATOM      9  O   UNL     1      88.244  11.432  30.869  0.00  0.00    +0.000 OA
ATOM     10  H   UNL     1      88.127  10.530  31.215  0.00  0.00    +0.000 HD
ENDBRANCH   3   9
BRANCH   4  11
ATOM     11  O   UNL     1      87.071  10.279  26.371  0.00  0.00    +0.000 OA
ATOM     12  H   UNL     1      86.816  10.822  25.605  0.00  0.00    +0.000 HD
ENDBRANCH   4  11
BRANCH   1  14
ATOM     13  O   UNL     1      84.651  14.885  28.857  0.00  0.00    +0.000 OA
ATOM     14  C   UNL     1      84.515  13.665  28.720  0.00  0.00    +0.000 C 
BRANCH  14  15
ATOM     15  O   UNL     1      83.292  13.084  28.582  0.00  0.00    +0.000 OA
ATOM     16  H   UNL     1      82.716  13.587  27.967  0.00  0.00    +0.000 HD
ENDBRANCH  14  15
ENDBRANCH   1  14
TORSDOF 5
ENDMDL
MODEL 7
REMARK VINA RESULT:    -6.023     14.644     16.197
REMARK INTER + INTRA:          -7.137
REMARK INTER:                  -7.078
REMARK INTRA:                  -0.060
REMARK UNBOUND:                -0.059
REMARK  Name = 370
REMARK  5 active torsions:
REMARK  status: ('A' for Active; 'I' for Inactive)
REMARK    1  A    between atoms: O_1  and  C_7
REMARK    2  A    between atoms: O_2  and  C_8
REMARK    3  A    between atoms: O_3  and  C_9
REMARK    4  A    between atoms: O_4  and  C_12
REMARK    5  A    between atoms: C_6  and  C_12
REMARK                            x       y       z     vdW  Elec       q    Type
REMARK                         _______ _______ _______ _____ _____    ______ ____
ROOT
ATOM      1  C   UNL     1      86.852  11.218  28.661  0.00  0.00    +0.000 A 
ATOM      2  C   UNL     1      87.237  11.578  31.402  0.00  0.00    +0.000 A 
ATOM      3  C   UNL     1      86.739  12.624  30.623  0.00  0.00    +0.000 A 
ATOM      4  C   UNL     1      87.542  10.352  30.809  0.00  0.00    +0.000 A 
ATOM      5  C   UNL     1      86.547  12.443  29.254  0.00  0.00    +0.000 A 
ATOM      6  C   UNL     1      87.351  10.173  29.440  0.00  0.00    +0.000 A 
ENDROOT
BRANCH   2   7
ATOM      7  O   UNL     1      87.425  11.754  32.740  0.00  0.00    +0.000 OA
ATOM      8  H   UNL     1      87.687  10.901  33.128  0.00  0.00    +0.000 HD
ENDBRANCH   2   7
BRANCH   3   9
ATOM      9  O   UNL     1      86.436  13.824  31.191  0.00  0.00    +0.000 OA
ATOM     10  H   UNL     1      87.249  14.354  31.265  0.00  0.00    +0.000 HD
ENDBRANCH   3   9
BRANCH   4  11
ATOM     11  O   UNL     1      88.031   9.324  31.558  0.00  0.00    +0.000 OA
ATOM     12  H   UNL     1      88.331   8.622  30.954  0.00  0.00    +0.000 HD
ENDBRANCH   4  11
BRANCH   1  14
ATOM     13  O   UNL     1      86.099  11.835  26.477  0.00  0.00    +0.000 OA
ATOM     14  C   UNL     1      86.653  11.031  27.233  0.00  0.00    +0.000 C 
BRANCH  14  15
ATOM     15  O   UNL     1      87.152   9.845  26.790  0.00  0.00    +0.000 OA
ATOM     16  H   UNL     1      86.786   9.600  25.913  0.00  0.00    +0.000 HD
ENDBRANCH  14  15
ENDBRANCH   1  14
TORSDOF 5
ENDMDL
MODEL 8
REMARK VINA RESULT:    -5.850     15.428     17.030
REMARK INTER + INTRA:          -6.934
REMARK INTER:                  -6.876
REMARK INTRA:                  -0.059
REMARK UNBOUND:                -0.059
REMARK  Name = 370
REMARK  5 active torsions:
REMARK  status: ('A' for Active; 'I' for Inactive)
REMARK    1  A    between atoms: O_1  and  C_7
REMARK    2  A    between atoms: O_2  and  C_8
REMARK    3  A    between atoms: O_3  and  C_9
REMARK    4  A    between atoms: O_4  and  C_12
REMARK    5  A    between atoms: C_6  and  C_12
REMARK                            x       y       z     vdW  Elec       q    Type
REMARK                         _______ _______ _______ _____ _____    ______ ____
ROOT
ATOM      1  C   UNL     1      86.415  11.351  28.427  0.00  0.00    +0.000 A 
ATOM      2  C   UNL     1      84.699  12.914  29.977  0.00  0.00    +0.000 A 
ATOM      3  C   UNL     1      85.552  11.996  30.590  0.00  0.00    +0.000 A 
ATOM      4  C   UNL     1      84.705  13.051  28.588  0.00  0.00    +0.000 A 
ATOM      5  C   UNL     1      86.409  11.215  29.815  0.00  0.00    +0.000 A 
ATOM      6  C   UNL     1      85.562  12.270  27.814  0.00  0.00    +0.000 A 
ENDROOT
BRANCH   2   7
ATOM      7  O   UNL     1      83.861  13.677  30.734  0.00  0.00    +0.000 OA
ATOM      8  H   UNL     1      83.947  13.399  31.662  0.00  0.00    +0.000 HD
ENDBRANCH   2   7
BRANCH   3   9
ATOM      9  O   UNL     1      85.556  11.854  31.945  0.00  0.00    +0.000 OA
ATOM     10  H   UNL     1      86.338  12.305  32.309  0.00  0.00    +0.000 HD
ENDBRANCH   3   9
BRANCH   4  11
ATOM     11  O   UNL     1      83.876  13.943  27.977  0.00  0.00    +0.000 OA
ATOM     12  H   UNL     1      84.252  14.164  27.107  0.00  0.00    +0.000 HD
ENDBRANCH   4  11
BRANCH   1  14
ATOM     13  O   UNL     1      87.181  10.320  26.410  0.00  0.00    +0.000 OA
ATOM     14  C   UNL     1      87.308  10.536  27.620  0.00  0.00    +0.000 C 
BRANCH  14  15
ATOM     15  O   UNL     1      88.334  10.013  28.345  0.00  0.00    +0.000 OA
ATOM     16  H   UNL     1      88.050   9.235  28.871  0.00  0.00    +0.000 HD
ENDBRANCH  14  15
ENDBRANCH   1  14
TORSDOF 5
ENDMDL
MODEL 9
REMARK VINA RESULT:    -5.828     14.648     15.926
REMARK INTER + INTRA:          -6.909
REMARK INTER:                  -6.850
REMARK INTRA:                  -0.059
REMARK UNBOUND:                -0.059
REMARK  Name = 370
REMARK  5 active torsions:
REMARK  status: ('A' for Active; 'I' for Inactive)
REMARK    1  A    between atoms: O_1  and  C_7
REMARK    2  A    between atoms: O_2  and  C_8
REMARK    3  A    between atoms: O_3  and  C_9
REMARK    4  A    between atoms: O_4  and  C_12
REMARK    5  A    between atoms: C_6  and  C_12
REMARK                            x       y       z     vdW  Elec       q    Type
REMARK                         _______ _______ _______ _____ _____    ______ ____
ROOT
ATOM      1  C   UNL     1      86.581  12.061  30.648  0.00  0.00    +0.000 A 
ATOM      2  C   UNL     1      86.760  11.138  28.020  0.00  0.00    +0.000 A 
ATOM      3  C   UNL     1      87.738  10.788  28.952  0.00  0.00    +0.000 A 
ATOM      4  C   UNL     1      85.691  11.950  28.404  0.00  0.00    +0.000 A 
ATOM      5  C   UNL     1      87.649  11.250  30.264  0.00  0.00    +0.000 A 
ATOM      6  C   UNL     1      85.602  12.411  29.717  0.00  0.00    +0.000 A 
ENDROOT
BRANCH   2   7
ATOM      7  O   UNL     1      86.847  10.688  26.737  0.00  0.00    +0.000 OA
ATOM      8  H   UNL     1      86.662   9.733  26.734  0.00  0.00    +0.000 HD
ENDBRANCH   2   7
BRANCH   3   9
ATOM      9  O   UNL     1      88.785   9.996  28.589  0.00  0.00    +0.000 OA
ATOM     10  H   UNL     1      89.097   9.505  29.369  0.00  0.00    +0.000 HD
ENDBRANCH   3   9
BRANCH   4  11
ATOM     11  O   UNL     1      84.730  12.301  27.504  0.00  0.00    +0.000 OA
ATOM     12  H   UNL     1      85.067  12.117  26.610  0.00  0.00    +0.000 HD
ENDBRANCH   4  11
BRANCH   1  14
ATOM     13  O   UNL     1      87.389  12.480  32.860  0.00  0.00    +0.000 OA
ATOM     14  C   UNL     1      86.489  12.544  32.017  0.00  0.00    +0.000 C 
BRANCH  14  15
ATOM     15  O   UNL     1      85.275  13.092  32.294  0.00  0.00    +0.000 OA
ATOM     16  H   UNL     1      84.683  12.458  32.752  0.00  0.00    +0.000 HD
ENDBRANCH  14  15
ENDBRANCH   1  14
TORSDOF 5
ENDMDL
MODEL 10
REMARK VINA RESULT:    -5.811     15.327     17.010
REMARK INTER + INTRA:          -6.889
REMARK INTER:                  -6.830
REMARK INTRA:                  -0.059
REMARK UNBOUND:                -0.059
REMARK  Name = 370
REMARK  5 active torsions:
REMARK  status: ('A' for Active; 'I' for Inactive)
REMARK    1  A    between atoms: O_1  and  C_7
REMARK    2  A    between atoms: O_2  and  C_8
REMARK    3  A    between atoms: O_3  and  C_9
REMARK    4  A    between atoms: O_4  and  C_12
REMARK    5  A    between atoms: C_6  and  C_12
REMARK                            x       y       z     vdW  Elec       q    Type
REMARK                         _______ _______ _______ _____ _____    ______ ____
ROOT
ATOM      1  C   UNL     1      86.400  11.299  28.521  0.00  0.00    +0.000 A 
ATOM      2  C   UNL     1      84.706  12.784  30.169  0.00  0.00    +0.000 A 
ATOM      3  C   UNL     1      84.664  12.959  28.785  0.00  0.00    +0.000 A 
ATOM      4  C   UNL     1      85.595  11.866  30.728  0.00  0.00    +0.000 A 
ATOM      5  C   UNL     1      85.511  12.217  27.962  0.00  0.00    +0.000 A 
ATOM      6  C   UNL     1      86.442  11.125  29.905  0.00  0.00    +0.000 A 
ENDROOT
BRANCH   2   7
ATOM      7  O   UNL     1      83.879  13.510  30.973  0.00  0.00    +0.000 OA
ATOM      8  H   UNL     1      82.992  13.110  30.942  0.00  0.00    +0.000 HD
ENDBRANCH   2   7
BRANCH   3   9
ATOM      9  O   UNL     1      83.799  13.851  28.227  0.00  0.00    +0.000 OA
ATOM     10  H   UNL     1      83.208  14.196  28.920  0.00  0.00    +0.000 HD
ENDBRANCH   3   9
BRANCH   4  11
ATOM     11  O   UNL     1      85.648  11.687  32.078  0.00  0.00    +0.000 OA
ATOM     12  H   UNL     1      86.152  12.424  32.464  0.00  0.00    +0.000 HD
ENDBRANCH   4  11
BRANCH   1  14
ATOM     13  O   UNL     1      87.128  10.350  26.450  0.00  0.00    +0.000 OA
ATOM     14  C   UNL     1      87.283  10.527  27.663  0.00  0.00    +0.000 C 
BRANCH  14  15
ATOM     15  O   UNL     1      88.336   9.996  28.343  0.00  0.00    +0.000 OA
ATOM     16  H   UNL     1      88.244   9.026  28.459  0.00  0.00    +0.000 HD
ENDBRANCH  14  15
ENDBRANCH   1  14
TORSDOF 5
ENDMDL
