MODEL 1
REMARK VINA RESULT:     -10.5      0.000      0.000
REMARK  6 active torsions:
REMARK  status: ('A' for Active; 'I' for Inactive)
REMARK    1  A    between atoms: O_2  and  C_12 
REMARK    2  A    between atoms: O_3  and  C_14 
REMARK    3  A    between atoms: O_5  and  C_16 
REMARK    4  A    between atoms: O_6  and  C_20 
REMARK    5  A    between atoms: O_7  and  C_22 
REMARK    6  A    between atoms: C_10  and  C_11 
ROOT
HETATM    1  O   UNK     0      25.629  37.227  88.474  0.00  0.00    -0.306 OA
HETATM    2  O   UNK     0      22.732  39.648  90.007  0.00  0.00    -0.284 OA
HETATM    3  C   UNK     0      24.977  39.403  89.328  0.00  0.00     0.084 A 
HETATM    4  C   UNK     0      25.922  38.525  88.802  0.00  0.00     0.096 A 
HETATM    5  C   UNK     0      24.332  36.773  88.663  0.00  0.00     0.123 A 
HETATM    6  C   UNK     0      23.331  37.516  89.170  0.00  0.00     0.152 A 
HETATM    7  C   UNK     0      23.603  38.925  89.543  0.00  0.00     0.223 A 
HETATM    8  C   UNK     0      25.334  40.716  89.645  0.00  0.00     0.085 A 
HETATM    9  C   UNK     0      27.233  38.954  88.591  0.00  0.00     0.075 A 
HETATM   10  C   UNK     0      27.592  40.265  88.906  0.00  0.00     0.071 A 
HETATM   11  C   UNK     0      26.645  41.143  89.432  0.00  0.00     0.074 A 
ENDROOT
BRANCH   5  12
HETATM   12  C   UNK     0      24.153  35.364  88.271  0.00  0.00     0.004 A 
HETATM   13  C   UNK     0      24.473  34.344  89.167  0.00  0.00     0.053 A 
HETATM   14  C   UNK     0      24.303  33.011  88.796  0.00  0.00     0.099 A 
HETATM   15  C   UNK     0      23.812  32.697  87.528  0.00  0.00     0.098 A 
HETATM   16  C   UNK     0      23.491  33.717  86.632  0.00  0.00     0.040 A 
HETATM   17  C   UNK     0      23.661  35.050  87.003  0.00  0.00     0.017 A 
BRANCH  14  18
HETATM   18  O   UNK     0      24.621  32.023  89.677  0.00  0.00    -0.358 OA
HETATM   19  H   UNK     0      24.937  32.414  90.508  0.00  0.00     0.217 HD
ENDBRANCH  14  18
BRANCH  15  20
HETATM   20  O   UNK     0      23.639  31.398  87.155  0.00  0.00    -0.358 OA
HETATM   21  H   UNK     0      24.132  31.224  86.337  0.00  0.00     0.217 HD
ENDBRANCH  15  20
ENDBRANCH   5  12
BRANCH   6  22
HETATM   22  O   UNK     0      22.060  37.025  89.375  0.00  0.00    -0.355 OA
HETATM   23  H   UNK     0      21.410  37.591  88.928  0.00  0.00     0.218 HD
ENDBRANCH   6  22
BRANCH   8  24
HETATM   24  O   UNK     0      24.449  41.614  90.161  0.00  0.00    -0.360 OA
HETATM   25  H   UNK     0      24.458  41.582  91.130  0.00  0.00     0.217 HD
ENDBRANCH   8  24
BRANCH  10  26
HETATM   26  O   UNK     0      28.871  40.686  88.700  0.00  0.00    -0.361 OA
HETATM   27  H   UNK     0      29.239  40.212  87.934  0.00  0.00     0.217 HD
ENDBRANCH  10  26
TORSDOF 6
ENDMDL
MODEL 2
REMARK VINA RESULT:      -9.6     13.814     18.633
REMARK  6 active torsions:
REMARK  status: ('A' for Active; 'I' for Inactive)
REMARK    1  A    between atoms: O_2  and  C_12 
REMARK    2  A    between atoms: O_3  and  C_14 
REMARK    3  A    between atoms: O_5  and  C_16 
REMARK    4  A    between atoms: O_6  and  C_20 
REMARK    5  A    between atoms: O_7  and  C_22 
REMARK    6  A    between atoms: C_10  and  C_11 
ROOT
HETATM    1  O   UNK     0      13.782  23.109  90.608  0.00  0.00    -0.306 OA
HETATM    2  O   UNK     0      16.261  20.923  92.993  0.00  0.00    -0.284 OA
HETATM    3  C   UNK     0      14.122  21.171  92.029  0.00  0.00     0.084 A 
HETATM    4  C   UNK     0      13.326  21.963  91.204  0.00  0.00     0.096 A 
HETATM    5  C   UNK     0      15.098  23.489  90.825  0.00  0.00     0.123 A 
HETATM    6  C   UNK     0      15.967  22.819  91.604  0.00  0.00     0.152 A 
HETATM    7  C   UNK     0      15.515  21.575  92.274  0.00  0.00     0.223 A 
HETATM    8  C   UNK     0      13.601  20.013  92.612  0.00  0.00     0.085 A 
HETATM    9  C   UNK     0      12.000  21.602  90.959  0.00  0.00     0.075 A 
HETATM   10  C   UNK     0      11.477  20.446  91.539  0.00  0.00     0.071 A 
HETATM   11  C   UNK     0      12.277  19.654  92.364  0.00  0.00     0.074 A 
ENDROOT
BRANCH   5  12
HETATM   12  C   UNK     0      15.459  24.735  90.127  0.00  0.00     0.004 A 
HETATM   13  C   UNK     0      16.028  24.682  88.854  0.00  0.00     0.053 A 
HETATM   14  C   UNK     0      16.369  25.863  88.193  0.00  0.00     0.099 A 
HETATM   15  C   UNK     0      16.143  27.095  88.806  0.00  0.00     0.098 A 
HETATM   16  C   UNK     0      15.574  27.148  90.078  0.00  0.00     0.040 A 
HETATM   17  C   UNK     0      15.232  25.968  90.739  0.00  0.00     0.017 A 
BRANCH  14  18
HETATM   18  O   UNK     0      16.926  25.800  86.952  0.00  0.00    -0.358 OA
HETATM   19  H   UNK     0      16.969  24.875  86.658  0.00  0.00     0.217 HD
ENDBRANCH  14  18
BRANCH  15  20
HETATM   20  O   UNK     0      16.470  28.255  88.170  0.00  0.00    -0.358 OA
HETATM   21  H   UNK     0      15.678  28.641  87.764  0.00  0.00     0.217 HD
ENDBRANCH  15  20
ENDBRANCH   5  12
BRANCH   6  22
HETATM   22  O   UNK     0      17.260  23.241  91.825  0.00  0.00    -0.355 OA
HETATM   23  H   UNK     0      17.770  23.188  91.001  0.00  0.00     0.218 HD
ENDBRANCH   6  22
BRANCH   8  24
HETATM   24  O   UNK     0      14.337  19.205  93.425  0.00  0.00    -0.360 OA
HETATM   25  H   UNK     0      14.332  19.541  94.334  0.00  0.00     0.217 HD
ENDBRANCH   8  24
BRANCH  10  26
HETATM   26  O   UNK     0      10.184  20.092  91.300  0.00  0.00    -0.361 OA
HETATM   27  H   UNK     0      10.098  19.824  90.369  0.00  0.00     0.217 HD
ENDBRANCH  10  26
TORSDOF 6
ENDMDL
MODEL 3
REMARK VINA RESULT:      -9.4      1.408      2.871
REMARK  6 active torsions:
REMARK  status: ('A' for Active; 'I' for Inactive)
REMARK    1  A    between atoms: O_2  and  C_12 
REMARK    2  A    between atoms: O_3  and  C_14 
REMARK    3  A    between atoms: O_5  and  C_16 
REMARK    4  A    between atoms: O_6  and  C_20 
REMARK    5  A    between atoms: O_7  and  C_22 
REMARK    6  A    between atoms: C_10  and  C_11 
ROOT
HETATM    1  O   UNK     0      24.042  38.032  88.201  0.00  0.00    -0.306 OA
HETATM    2  O   UNK     0      27.893  39.148  88.930  0.00  0.00    -0.284 OA
HETATM    3  C   UNK     0      25.641  39.797  88.667  0.00  0.00     0.084 A 
HETATM    4  C   UNK     0      24.346  39.351  88.412  0.00  0.00     0.096 A 
HETATM    5  C   UNK     0      25.067  37.100  88.258  0.00  0.00     0.123 A 
HETATM    6  C   UNK     0      26.359  37.399  88.487  0.00  0.00     0.152 A 
HETATM    7  C   UNK     0      26.735  38.815  88.715  0.00  0.00     0.223 A 
HETATM    8  C   UNK     0      25.891  41.156  88.872  0.00  0.00     0.085 A 
HETATM    9  C   UNK     0      23.292  40.264  88.358  0.00  0.00     0.075 A 
HETATM   10  C   UNK     0      23.539  41.622  88.563  0.00  0.00     0.071 A 
HETATM   11  C   UNK     0      24.836  42.066  88.819  0.00  0.00     0.074 A 
ENDROOT
BRANCH   5  12
HETATM   12  C   UNK     0      24.605  35.722  88.015  0.00  0.00     0.004 A 
HETATM   13  C   UNK     0      24.767  34.748  89.000  0.00  0.00     0.053 A 
HETATM   14  C   UNK     0      24.329  33.443  88.770  0.00  0.00     0.099 A 
HETATM   15  C   UNK     0      23.729  33.113  87.554  0.00  0.00     0.098 A 
HETATM   16  C   UNK     0      23.567  34.087  86.570  0.00  0.00     0.040 A 
HETATM   17  C   UNK     0      24.004  35.392  86.800  0.00  0.00     0.017 A 
BRANCH  14  18
HETATM   18  O   UNK     0      24.495  32.499  89.738  0.00  0.00    -0.358 OA
HETATM   19  H   UNK     0      23.958  32.727  90.514  0.00  0.00     0.217 HD
ENDBRANCH  14  18
BRANCH  15  20
HETATM   20  O   UNK     0      23.296  31.843  87.319  0.00  0.00    -0.358 OA
HETATM   21  H   UNK     0      22.329  31.807  87.396  0.00  0.00     0.217 HD
ENDBRANCH  15  20
ENDBRANCH   5  12
BRANCH   6  22
HETATM   22  O   UNK     0      27.359  36.452  88.505  0.00  0.00    -0.355 OA
HETATM   23  H   UNK     0      27.230  35.849  89.256  0.00  0.00     0.218 HD
ENDBRANCH   6  22
BRANCH   8  24
HETATM   24  O   UNK     0      27.139  41.644  89.125  0.00  0.00    -0.360 OA
HETATM   25  H   UNK     0      27.085  42.472  89.626  0.00  0.00     0.217 HD
ENDBRANCH   8  24
BRANCH  10  26
HETATM   26  O   UNK     0      22.510  42.514  88.512  0.00  0.00    -0.361 OA
HETATM   27  H   UNK     0      21.966  42.413  89.312  0.00  0.00     0.217 HD
ENDBRANCH  10  26
TORSDOF 6
ENDMDL
MODEL 4
REMARK VINA RESULT:      -9.3     14.952     16.511
REMARK  6 active torsions:
REMARK  status: ('A' for Active; 'I' for Inactive)
REMARK    1  A    between atoms: O_2  and  C_12 
REMARK    2  A    between atoms: O_3  and  C_14 
REMARK    3  A    between atoms: O_5  and  C_16 
REMARK    4  A    between atoms: O_6  and  C_20 
REMARK    5  A    between atoms: O_7  and  C_22 
REMARK    6  A    between atoms: C_10  and  C_11 
ROOT
HETATM    1  O   UNK     0      29.028  44.372  74.100  0.00  0.00    -0.306 OA
HETATM    2  O   UNK     0      29.499  44.037  78.134  0.00  0.00    -0.284 OA
HETATM    3  C   UNK     0      30.451  44.606  76.052  0.00  0.00     0.084 A 
HETATM    4  C   UNK     0      30.226  44.698  74.680  0.00  0.00     0.096 A 
HETATM    5  C   UNK     0      27.992  43.947  74.916  0.00  0.00     0.123 A 
HETATM    6  C   UNK     0      28.081  43.807  76.251  0.00  0.00     0.152 A 
HETATM    7  C   UNK     0      29.360  44.142  76.922  0.00  0.00     0.223 A 
HETATM    8  C   UNK     0      31.695  44.950  76.587  0.00  0.00     0.085 A 
HETATM    9  C   UNK     0      31.247  45.132  73.833  0.00  0.00     0.075 A 
HETATM   10  C   UNK     0      32.490  45.477  74.365  0.00  0.00     0.071 A 
HETATM   11  C   UNK     0      32.713  45.385  75.739  0.00  0.00     0.074 A 
ENDROOT
BRANCH   5  12
HETATM   12  C   UNK     0      26.763  43.631  74.167  0.00  0.00     0.004 A 
HETATM   13  C   UNK     0      25.768  44.597  74.019  0.00  0.00     0.053 A 
HETATM   14  C   UNK     0      24.604  44.298  73.310  0.00  0.00     0.099 A 
HETATM   15  C   UNK     0      24.436  43.031  72.749  0.00  0.00     0.098 A 
HETATM   16  C   UNK     0      25.431  42.065  72.896  0.00  0.00     0.040 A 
HETATM   17  C   UNK     0      26.595  42.365  73.605  0.00  0.00     0.017 A 
BRANCH  14  18
HETATM   18  O   UNK     0      23.639  45.248  73.173  0.00  0.00    -0.358 OA
HETATM   19  H   UNK     0      23.817  45.987  73.778  0.00  0.00     0.217 HD
ENDBRANCH  14  18
BRANCH  15  20
HETATM   20  O   UNK     0      23.305  42.728  72.052  0.00  0.00    -0.358 OA
HETATM   21  H   UNK     0      22.804  42.044  72.523  0.00  0.00     0.217 HD
ENDBRANCH  15  20
ENDBRANCH   5  12
BRANCH   6  22
HETATM   22  O   UNK     0      27.041  43.349  77.031  0.00  0.00    -0.355 OA
HETATM   23  H   UNK     0      26.215  43.791  76.773  0.00  0.00     0.218 HD
ENDBRANCH   6  22
BRANCH   8  24
HETATM   24  O   UNK     0      31.966  44.878  77.921  0.00  0.00    -0.360 OA
HETATM   25  H   UNK     0      31.146  44.902  78.437  0.00  0.00     0.217 HD
ENDBRANCH   8  24
BRANCH  10  26
HETATM   26  O   UNK     0      33.487  45.902  73.540  0.00  0.00    -0.361 OA
HETATM   27  H   UNK     0      34.153  45.197  73.462  0.00  0.00     0.217 HD
ENDBRANCH  10  26
TORSDOF 6
ENDMDL
MODEL 5
REMARK VINA RESULT:      -8.9     23.757     25.885
REMARK  6 active torsions:
REMARK  status: ('A' for Active; 'I' for Inactive)
REMARK    1  A    between atoms: O_2  and  C_12 
REMARK    2  A    between atoms: O_3  and  C_14 
REMARK    3  A    between atoms: O_5  and  C_16 
REMARK    4  A    between atoms: O_6  and  C_20 
REMARK    5  A    between atoms: O_7  and  C_22 
REMARK    6  A    between atoms: C_10  and  C_11 
ROOT
HETATM    1  O   UNK     0      39.425  26.191  71.268  0.00  0.00    -0.306 OA
HETATM    2  O   UNK     0      39.050  26.261  67.211  0.00  0.00    -0.284 OA
HETATM    3  C   UNK     0      40.207  27.015  69.123  0.00  0.00     0.084 A 
HETATM    4  C   UNK     0      40.282  26.949  70.513  0.00  0.00     0.096 A 
HETATM    5  C   UNK     0      38.452  25.448  70.620  0.00  0.00     0.123 A 
HETATM    6  C   UNK     0      38.268  25.430  69.286  0.00  0.00     0.152 A 
HETATM    7  C   UNK     0      39.167  26.239  68.429  0.00  0.00     0.223 A 
HETATM    8  C   UNK     0      41.106  27.807  68.405  0.00  0.00     0.085 A 
HETATM    9  C   UNK     0      41.257  27.678  71.195  0.00  0.00     0.075 A 
HETATM   10  C   UNK     0      42.157  28.469  70.480  0.00  0.00     0.071 A 
HETATM   11  C   UNK     0      42.081  28.533  69.089  0.00  0.00     0.074 A 
ENDROOT
BRANCH   5  12
HETATM   12  C   UNK     0      37.602  24.680  71.546  0.00  0.00     0.004 A 
HETATM   13  C   UNK     0      37.904  23.348  71.830  0.00  0.00     0.053 A 
HETATM   14  C   UNK     0      37.099  22.622  72.707  0.00  0.00     0.099 A 
HETATM   15  C   UNK     0      35.991  23.227  73.301  0.00  0.00     0.098 A 
HETATM   16  C   UNK     0      35.689  24.559  73.018  0.00  0.00     0.040 A 
HETATM   17  C   UNK     0      36.494  25.286  72.141  0.00  0.00     0.017 A 
BRANCH  14  18
HETATM   18  O   UNK     0      37.401  21.321  72.975  0.00  0.00    -0.358 OA
HETATM   19  H   UNK     0      38.365  21.199  72.960  0.00  0.00     0.217 HD
ENDBRANCH  14  18
BRANCH  15  20
HETATM   20  O   UNK     0      35.199  22.529  74.162  0.00  0.00    -0.358 OA
HETATM   21  H   UNK     0      34.598  23.137  74.621  0.00  0.00     0.217 HD
ENDBRANCH  15  20
ENDBRANCH   5  12
BRANCH   6  22
HETATM   22  O   UNK     0      37.269  24.705  68.674  0.00  0.00    -0.355 OA
HETATM   23  H   UNK     0      36.414  24.905  69.089  0.00  0.00     0.218 HD
ENDBRANCH   6  22
BRANCH   8  24
HETATM   24  O   UNK     0      41.076  27.906  67.047  0.00  0.00    -0.360 OA
HETATM   25  H   UNK     0      40.205  28.206  66.747  0.00  0.00     0.217 HD
ENDBRANCH   8  24
BRANCH  10  26
HETATM   26  O   UNK     0      43.110  29.181  71.144  0.00  0.00    -0.361 OA
HETATM   27  H   UNK     0      42.744  29.481  71.994  0.00  0.00     0.217 HD
ENDBRANCH  10  26
TORSDOF 6
ENDMDL
MODEL 6
REMARK VINA RESULT:      -8.7     27.905     30.077
REMARK  6 active torsions:
REMARK  status: ('A' for Active; 'I' for Inactive)
REMARK    1  A    between atoms: O_2  and  C_12 
REMARK    2  A    between atoms: O_3  and  C_14 
REMARK    3  A    between atoms: O_5  and  C_16 
REMARK    4  A    between atoms: O_6  and  C_20 
REMARK    5  A    between atoms: O_7  and  C_22 
REMARK    6  A    between atoms: C_10  and  C_11 
ROOT
HETATM    1  O   UNK     0      11.771  11.287  79.627  0.00  0.00    -0.306 OA
HETATM    2  O   UNK     0      11.061  12.935  83.286  0.00  0.00    -0.284 OA
HETATM    3  C   UNK     0      10.227  11.709  81.451  0.00  0.00     0.084 A 
HETATM    4  C   UNK     0      10.534  11.170  80.203  0.00  0.00     0.096 A 
HETATM    5  C   UNK     0      12.765  11.959  80.323  0.00  0.00     0.123 A 
HETATM    6  C   UNK     0      12.597  12.531  81.529  0.00  0.00     0.152 A 
HETATM    7  C   UNK     0      11.272  12.435  82.189  0.00  0.00     0.223 A 
HETATM    8  C   UNK     0       8.946  11.560  81.988  0.00  0.00     0.085 A 
HETATM    9  C   UNK     0       9.558  10.479  79.483  0.00  0.00     0.075 A 
HETATM   10  C   UNK     0       8.278  10.329  80.017  0.00  0.00     0.071 A 
HETATM   11  C   UNK     0       7.973  10.868  81.267  0.00  0.00     0.074 A 
ENDROOT
BRANCH   5  12
HETATM   12  C   UNK     0      14.044  12.011  79.593  0.00  0.00     0.004 A 
HETATM   13  C   UNK     0      15.023  11.047  79.832  0.00  0.00     0.053 A 
HETATM   14  C   UNK     0      16.234  11.096  79.141  0.00  0.00     0.099 A 
HETATM   15  C   UNK     0      16.465  12.110  78.210  0.00  0.00     0.098 A 
HETATM   16  C   UNK     0      15.485  13.074  77.971  0.00  0.00     0.040 A 
HETATM   17  C   UNK     0      14.274  13.024  78.662  0.00  0.00     0.017 A 
BRANCH  14  18
HETATM   18  O   UNK     0      17.184  10.152  79.384  0.00  0.00    -0.358 OA
HETATM   19  H   UNK     0      17.985  10.574  79.734  0.00  0.00     0.217 HD
ENDBRANCH  14  18
BRANCH  15  20
HETATM   20  O   UNK     0      17.642  12.168  77.527  0.00  0.00    -0.358 OA
HETATM   21  H   UNK     0      17.975  13.079  77.525  0.00  0.00     0.217 HD
ENDBRANCH  15  20
ENDBRANCH   5  12
BRANCH   6  22
HETATM   22  O   UNK     0      13.596  13.221  82.180  0.00  0.00    -0.355 OA
HETATM   23  H   UNK     0      13.979  12.667  82.880  0.00  0.00     0.218 HD
ENDBRANCH   6  22
BRANCH   8  24
HETATM   24  O   UNK     0       8.595  12.068  83.203  0.00  0.00    -0.360 OA
HETATM   25  H   UNK     0       8.765  13.021  83.235  0.00  0.00     0.217 HD
ENDBRANCH   8  24
BRANCH  10  26
HETATM   26  O   UNK     0       7.326   9.654  79.315  0.00  0.00    -0.361 OA
HETATM   27  H   UNK     0       7.755   9.162  78.594  0.00  0.00     0.217 HD
ENDBRANCH  10  26
TORSDOF 6
ENDMDL
MODEL 7
REMARK VINA RESULT:      -8.5     16.991     20.091
REMARK  6 active torsions:
REMARK  status: ('A' for Active; 'I' for Inactive)
REMARK    1  A    between atoms: O_2  and  C_12 
REMARK    2  A    between atoms: O_3  and  C_14 
REMARK    3  A    between atoms: O_5  and  C_16 
REMARK    4  A    between atoms: O_6  and  C_20 
REMARK    5  A    between atoms: O_7  and  C_22 
REMARK    6  A    between atoms: C_10  and  C_11 
ROOT
HETATM    1  O   UNK     0      20.596  23.763  76.347  0.00  0.00    -0.306 OA
HETATM    2  O   UNK     0      17.757  23.477  73.438  0.00  0.00    -0.284 OA
HETATM    3  C   UNK     0      18.428  24.435  75.486  0.00  0.00     0.084 A 
HETATM    4  C   UNK     0      19.437  24.487  76.447  0.00  0.00     0.096 A 
HETATM    5  C   UNK     0      20.778  22.954  75.236  0.00  0.00     0.123 A 
HETATM    6  C   UNK     0      19.881  22.808  74.244  0.00  0.00     0.152 A 
HETATM    7  C   UNK     0      18.609  23.568  74.311  0.00  0.00     0.223 A 
HETATM    8  C   UNK     0      17.266  25.195  75.641  0.00  0.00     0.085 A 
HETATM    9  C   UNK     0      19.287  25.300  77.571  0.00  0.00     0.075 A 
HETATM   10  C   UNK     0      18.128  26.060  77.728  0.00  0.00     0.071 A 
HETATM   11  C   UNK     0      17.120  26.007  76.766  0.00  0.00     0.074 A 
ENDROOT
BRANCH   5  12
HETATM   12  C   UNK     0      22.063  22.234  75.254  0.00  0.00     0.004 A 
HETATM   13  C   UNK     0      23.105  22.646  74.424  0.00  0.00     0.053 A 
HETATM   14  C   UNK     0      24.322  21.964  74.441  0.00  0.00     0.099 A 
HETATM   15  C   UNK     0      24.496  20.869  75.289  0.00  0.00     0.098 A 
HETATM   16  C   UNK     0      23.454  20.458  76.119  0.00  0.00     0.040 A 
HETATM   17  C   UNK     0      22.237  21.140  76.102  0.00  0.00     0.017 A 
BRANCH  14  18
HETATM   18  O   UNK     0      25.332  22.373  73.624  0.00  0.00    -0.358 OA
HETATM   19  H   UNK     0      25.145  22.104  72.710  0.00  0.00     0.217 HD
ENDBRANCH  14  18
BRANCH  15  20
HETATM   20  O   UNK     0      25.681  20.196  75.316  0.00  0.00    -0.358 OA
HETATM   21  H   UNK     0      25.642  19.440  74.709  0.00  0.00     0.217 HD
ENDBRANCH  15  20
ENDBRANCH   5  12
BRANCH   6  22
HETATM   22  O   UNK     0      20.078  21.970  73.169  0.00  0.00    -0.355 OA
HETATM   23  H   UNK     0      19.614  21.129  73.315  0.00  0.00     0.218 HD
ENDBRANCH   6  22
BRANCH   8  24
HETATM   24  O   UNK     0      16.251  25.179  74.732  0.00  0.00    -0.360 OA
HETATM   25  H   UNK     0      16.587  24.956  73.851  0.00  0.00     0.217 HD
ENDBRANCH   8  24
BRANCH  10  26
HETATM   26  O   UNK     0      17.981  26.855  78.825  0.00  0.00    -0.361 OA
HETATM   27  H   UNK     0      17.501  26.359  79.511  0.00  0.00     0.217 HD
ENDBRANCH  10  26
TORSDOF 6
ENDMDL
MODEL 8
REMARK VINA RESULT:      -8.4     24.302     26.623
REMARK  6 active torsions:
REMARK  status: ('A' for Active; 'I' for Inactive)
REMARK    1  A    between atoms: O_2  and  C_12 
REMARK    2  A    between atoms: O_3  and  C_14 
REMARK    3  A    between atoms: O_5  and  C_16 
REMARK    4  A    between atoms: O_6  and  C_20 
REMARK    5  A    between atoms: O_7  and  C_22 
REMARK    6  A    between atoms: C_10  and  C_11 
ROOT
HETATM    1  O   UNK     0      40.428  27.937  69.751  0.00  0.00    -0.306 OA
HETATM    2  O   UNK     0      39.565  24.914  72.344  0.00  0.00    -0.284 OA
HETATM    3  C   UNK     0      39.348  25.804  70.171  0.00  0.00     0.084 A 
HETATM    4  C   UNK     0      39.676  26.869  69.335  0.00  0.00     0.096 A 
HETATM    5  C   UNK     0      40.892  27.950  71.057  0.00  0.00     0.123 A 
HETATM    6  C   UNK     0      40.639  26.990  71.966  0.00  0.00     0.152 A 
HETATM    7  C   UNK     0      39.826  25.818  71.562  0.00  0.00     0.223 A 
HETATM    8  C   UNK     0      38.576  24.743  69.691  0.00  0.00     0.085 A 
HETATM    9  C   UNK     0      39.232  26.880  68.012  0.00  0.00     0.075 A 
HETATM   10  C   UNK     0      38.462  25.822  67.530  0.00  0.00     0.071 A 
HETATM   11  C   UNK     0      38.135  24.756  68.368  0.00  0.00     0.074 A 
ENDROOT
BRANCH   5  12
HETATM   12  C   UNK     0      41.686  29.150  71.374  0.00  0.00     0.004 A 
HETATM   13  C   UNK     0      41.072  30.259  71.957  0.00  0.00     0.053 A 
HETATM   14  C   UNK     0      41.824  31.395  72.257  0.00  0.00     0.099 A 
HETATM   15  C   UNK     0      43.190  31.423  71.973  0.00  0.00     0.098 A 
HETATM   16  C   UNK     0      43.803  30.314  71.390  0.00  0.00     0.040 A 
HETATM   17  C   UNK     0      43.052  29.178  71.090  0.00  0.00     0.017 A 
BRANCH  14  18
HETATM   18  O   UNK     0      41.214  32.472  72.825  0.00  0.00    -0.358 OA
HETATM   19  H   UNK     0      40.602  32.176  73.517  0.00  0.00     0.217 HD
ENDBRANCH  14  18
BRANCH  15  20
HETATM   20  O   UNK     0      43.935  32.526  72.263  0.00  0.00    -0.358 OA
HETATM   21  H   UNK     0      44.877  32.293  72.268  0.00  0.00     0.217 HD
ENDBRANCH  15  20
ENDBRANCH   5  12
BRANCH   6  22
HETATM   22  O   UNK     0      41.089  27.049  73.268  0.00  0.00    -0.355 OA
HETATM   23  H   UNK     0      40.340  27.195  73.869  0.00  0.00     0.218 HD
ENDBRANCH   6  22
BRANCH   8  24
HETATM   24  O   UNK     0      38.227  23.678  70.467  0.00  0.00    -0.360 OA
HETATM   25  H   UNK     0      38.496  22.848  70.046  0.00  0.00     0.217 HD
ENDBRANCH   8  24
BRANCH  10  26
HETATM   26  O   UNK     0      38.029  25.831  66.239  0.00  0.00    -0.361 OA
HETATM   27  H   UNK     0      37.921  24.912  65.937  0.00  0.00     0.217 HD
ENDBRANCH  10  26
TORSDOF 6
ENDMDL
MODEL 9
REMARK VINA RESULT:      -8.4     13.920     14.865
REMARK  6 active torsions:
REMARK  status: ('A' for Active; 'I' for Inactive)
REMARK    1  A    between atoms: O_2  and  C_12 
REMARK    2  A    between atoms: O_3  and  C_14 
REMARK    3  A    between atoms: O_5  and  C_16 
REMARK    4  A    between atoms: O_6  and  C_20 
REMARK    5  A    between atoms: O_7  and  C_22 
REMARK    6  A    between atoms: C_10  and  C_11 
ROOT
HETATM    1  O   UNK     0      17.510  37.135 100.877  0.00  0.00    -0.306 OA
HETATM    2  O   UNK     0      19.327  40.754 101.332  0.00  0.00    -0.284 OA
HETATM    3  C   UNK     0      17.588  39.502 100.347  0.00  0.00     0.084 A 
HETATM    4  C   UNK     0      17.014  38.237 100.232  0.00  0.00     0.096 A 
HETATM    5  C   UNK     0      18.623  37.288 101.690  0.00  0.00     0.123 A 
HETATM    6  C   UNK     0      19.275  38.450 101.879  0.00  0.00     0.152 A 
HETATM    7  C   UNK     0      18.777  39.669 101.197  0.00  0.00     0.223 A 
HETATM    8  C   UNK     0      17.039  40.590  99.664  0.00  0.00     0.085 A 
HETATM    9  C   UNK     0      15.887  38.053  99.429  0.00  0.00     0.075 A 
HETATM   10  C   UNK     0      15.337  39.138  98.746  0.00  0.00     0.071 A 
HETATM   11  C   UNK     0      15.913  40.403  98.863  0.00  0.00     0.074 A 
ENDROOT
BRANCH   5  12
HETATM   12  C   UNK     0      19.051  36.029 102.322  0.00  0.00     0.004 A 
HETATM   13  C   UNK     0      18.788  35.801 103.673  0.00  0.00     0.053 A 
HETATM   14  C   UNK     0      19.194  34.608 104.272  0.00  0.00     0.099 A 
HETATM   15  C   UNK     0      19.862  33.642 103.519  0.00  0.00     0.098 A 
HETATM   16  C   UNK     0      20.124  33.869 102.168  0.00  0.00     0.040 A 
HETATM   17  C   UNK     0      19.719  35.062 101.569  0.00  0.00     0.017 A 
BRANCH  14  18
HETATM   18  O   UNK     0      18.934  34.398 105.592  0.00  0.00    -0.358 OA
HETATM   19  H   UNK     0      18.027  34.069 105.700  0.00  0.00     0.217 HD
ENDBRANCH  14  18
BRANCH  15  20
HETATM   20  O   UNK     0      20.261  32.472 104.092  0.00  0.00    -0.358 OA
HETATM   21  H   UNK     0      20.730  31.930 103.438  0.00  0.00     0.217 HD
ENDBRANCH  15  20
ENDBRANCH   5  12
BRANCH   6  22
HETATM   22  O   UNK     0      20.399  38.563 102.668  0.00  0.00    -0.355 OA
HETATM   23  H   UNK     0      20.170  38.991 103.509  0.00  0.00     0.218 HD
ENDBRANCH   6  22
BRANCH   8  24
HETATM   24  O   UNK     0      17.562  41.846  99.742  0.00  0.00    -0.360 OA
HETATM   25  H   UNK     0      17.659  42.117 100.668  0.00  0.00     0.217 HD
ENDBRANCH   8  24
BRANCH  10  26
HETATM   26  O   UNK     0      14.237  38.959  97.963  0.00  0.00    -0.361 OA
HETATM   27  H   UNK     0      13.741  38.189  98.290  0.00  0.00     0.217 HD
ENDBRANCH  10  26
TORSDOF 6
ENDMDL
