MODEL 1
REMARK VINA RESULT:      -9.7      0.000      0.000
REMARK  6 active torsions:
REMARK  status: ('A' for Active; 'I' for Inactive)
REMARK    1  A    between atoms: O_2  and  C_12 
REMARK    2  A    between atoms: O_3  and  C_14 
REMARK    3  A    between atoms: O_5  and  C_16 
REMARK    4  A    between atoms: O_6  and  C_20 
REMARK    5  A    between atoms: O_7  and  C_22 
REMARK    6  A    between atoms: C_10  and  C_11 
ROOT
HETATM    1  O   UNK     0      27.913  22.045  24.850  0.00  0.00    -0.306 OA
HETATM    2  O   UNK     0      25.182  20.708  22.137  0.00  0.00    -0.284 OA
HETATM    3  C   UNK     0      27.311  20.453  23.121  0.00  0.00     0.084 A 
HETATM    4  C   UNK     0      28.201  20.959  24.066  0.00  0.00     0.096 A 
HETATM    5  C   UNK     0      26.677  22.656  24.707  0.00  0.00     0.123 A 
HETATM    6  C   UNK     0      25.734  22.272  23.828  0.00  0.00     0.152 A 
HETATM    7  C   UNK     0      26.003  21.105  22.954  0.00  0.00     0.223 A 
HETATM    8  C   UNK     0      27.660  19.343  22.347  0.00  0.00     0.085 A 
HETATM    9  C   UNK     0      29.449  20.359  24.240  0.00  0.00     0.075 A 
HETATM   10  C   UNK     0      29.800  19.251  23.469  0.00  0.00     0.071 A 
HETATM   11  C   UNK     0      28.907  18.745  22.525  0.00  0.00     0.074 A 
ENDROOT
BRANCH   5  12
HETATM   12  C   UNK     0      26.497  23.808  25.609  0.00  0.00     0.004 A 
HETATM   13  C   UNK     0      26.755  25.100  25.152  0.00  0.00     0.053 A 
HETATM   14  C   UNK     0      26.584  26.189  26.006  0.00  0.00     0.099 A 
HETATM   15  C   UNK     0      26.154  25.986  27.317  0.00  0.00     0.098 A 
HETATM   16  C   UNK     0      25.894  24.694  27.774  0.00  0.00     0.040 A 
HETATM   17  C   UNK     0      26.066  23.605  26.920  0.00  0.00     0.017 A 
BRANCH  14  18
HETATM   18  O   UNK     0      26.841  27.446  25.549  0.00  0.00    -0.358 OA
HETATM   19  H   UNK     0      27.508  27.870  26.113  0.00  0.00     0.217 HD
ENDBRANCH  14  18
BRANCH  15  20
HETATM   20  O   UNK     0      25.980  27.043  28.160  0.00  0.00    -0.358 OA
HETATM   21  H   UNK     0      26.415  26.860  29.008  0.00  0.00     0.217 HD
ENDBRANCH  15  20
ENDBRANCH   5  12
BRANCH   6  22
HETATM   22  O   UNK     0      24.527  22.922  23.687  0.00  0.00    -0.355 OA
HETATM   23  H   UNK     0      23.907  22.621  24.372  0.00  0.00     0.218 HD
ENDBRANCH   6  22
BRANCH   8  24
HETATM   24  O   UNK     0      26.827  18.809  21.410  0.00  0.00    -0.360 OA
HETATM   25  H   UNK     0      26.224  19.485  21.065  0.00  0.00     0.217 HD
ENDBRANCH   8  24
BRANCH  10  26
HETATM   26  O   UNK     0      31.017  18.664  23.640  0.00  0.00    -0.361 OA
HETATM   27  H   UNK     0      31.633  19.019  22.976  0.00  0.00     0.217 HD
ENDBRANCH  10  26
TORSDOF 6
ENDMDL
MODEL 2
REMARK VINA RESULT:      -9.7     15.883     17.443
REMARK  6 active torsions:
REMARK  status: ('A' for Active; 'I' for Inactive)
REMARK    1  A    between atoms: O_2  and  C_12 
REMARK    2  A    between atoms: O_3  and  C_14 
REMARK    3  A    between atoms: O_5  and  C_16 
REMARK    4  A    between atoms: O_6  and  C_20 
REMARK    5  A    between atoms: O_7  and  C_22 
REMARK    6  A    between atoms: C_10  and  C_11 
ROOT
HETATM    1  O   UNK     0      23.250  33.883  13.554  0.00  0.00    -0.306 OA
HETATM    2  O   UNK     0      23.303  34.252   9.496  0.00  0.00    -0.284 OA
HETATM    3  C   UNK     0      23.059  32.841  11.370  0.00  0.00     0.084 A 
HETATM    4  C   UNK     0      23.054  32.781  12.762  0.00  0.00     0.096 A 
HETATM    5  C   UNK     0      23.449  35.111  12.942  0.00  0.00     0.123 A 
HETATM    6  C   UNK     0      23.485  35.302  11.610  0.00  0.00     0.152 A 
HETATM    7  C   UNK     0      23.283  34.138  10.714  0.00  0.00     0.223 A 
HETATM    8  C   UNK     0      22.854  31.684  10.614  0.00  0.00     0.085 A 
HETATM    9  C   UNK     0      22.846  31.562  13.408  0.00  0.00     0.075 A 
HETATM   10  C   UNK     0      22.641  30.405  12.656  0.00  0.00     0.071 A 
HETATM   11  C   UNK     0      22.646  30.466  11.262  0.00  0.00     0.074 A 
ENDROOT
BRANCH   5  12
HETATM   12  C   UNK     0      23.646  36.208  13.905  0.00  0.00     0.004 A 
HETATM   13  C   UNK     0      22.684  37.210  14.028  0.00  0.00     0.053 A 
HETATM   14  C   UNK     0      22.871  38.249  14.940  0.00  0.00     0.099 A 
HETATM   15  C   UNK     0      24.021  38.285  15.729  0.00  0.00     0.098 A 
HETATM   16  C   UNK     0      24.982  37.283  15.608  0.00  0.00     0.040 A 
HETATM   17  C   UNK     0      24.796  36.244  14.695  0.00  0.00     0.017 A 
BRANCH  14  18
HETATM   18  O   UNK     0      21.926  39.224  15.049  0.00  0.00    -0.358 OA
HETATM   19  H   UNK     0      21.813  39.669  14.194  0.00  0.00     0.217 HD
ENDBRANCH  14  18
BRANCH  15  20
HETATM   20  O   UNK     0      24.213  39.293  16.626  0.00  0.00    -0.358 OA
HETATM   21  H   UNK     0      24.604  40.060  16.177  0.00  0.00     0.217 HD
ENDBRANCH  15  20
ENDBRANCH   5  12
BRANCH   6  22
HETATM   22  O   UNK     0      23.718  36.532  11.033  0.00  0.00    -0.355 OA
HETATM   23  H   UNK     0      24.253  36.423  10.230  0.00  0.00     0.218 HD
ENDBRANCH   6  22
BRANCH   8  24
HETATM   24  O   UNK     0      22.850  31.688   9.252  0.00  0.00    -0.360 OA
HETATM   25  H   UNK     0      22.383  32.468   8.915  0.00  0.00     0.217 HD
ENDBRANCH   8  24
BRANCH  10  26
HETATM   26  O   UNK     0      22.438  29.214  13.285  0.00  0.00    -0.361 OA
HETATM   27  H   UNK     0      21.655  29.290  13.857  0.00  0.00     0.217 HD
ENDBRANCH  10  26
TORSDOF 6
ENDMDL
MODEL 3
REMARK VINA RESULT:      -9.5     16.164     18.550
REMARK  6 active torsions:
REMARK  status: ('A' for Active; 'I' for Inactive)
REMARK    1  A    between atoms: O_2  and  C_12 
REMARK    2  A    between atoms: O_3  and  C_14 
REMARK    3  A    between atoms: O_5  and  C_16 
REMARK    4  A    between atoms: O_6  and  C_20 
REMARK    5  A    between atoms: O_7  and  C_22 
REMARK    6  A    between atoms: C_10  and  C_11 
ROOT
HETATM    1  O   UNK     0      22.987  33.193  10.676  0.00  0.00    -0.306 OA
HETATM    2  O   UNK     0      23.116  34.356  14.579  0.00  0.00    -0.284 OA
HETATM    3  C   UNK     0      23.232  34.974  12.306  0.00  0.00     0.084 A 
HETATM    4  C   UNK     0      23.179  34.512  10.992  0.00  0.00     0.096 A 
HETATM    5  C   UNK     0      22.825  32.281  11.707  0.00  0.00     0.123 A 
HETATM    6  C   UNK     0      22.863  32.596  13.015  0.00  0.00     0.152 A 
HETATM    7  C   UNK     0      23.074  34.010  13.406  0.00  0.00     0.223 A 
HETATM    8  C   UNK     0      23.432  36.332  12.568  0.00  0.00     0.085 A 
HETATM    9  C   UNK     0      23.329  35.407   9.931  0.00  0.00     0.075 A 
HETATM   10  C   UNK     0      23.529  36.763  10.190  0.00  0.00     0.071 A 
HETATM   11  C   UNK     0      23.581  37.224  11.506  0.00  0.00     0.074 A 
ENDROOT
BRANCH   5  12
HETATM   12  C   UNK     0      22.626  30.902  11.230  0.00  0.00     0.004 A 
HETATM   13  C   UNK     0      22.554  30.639   9.863  0.00  0.00     0.053 A 
HETATM   14  C   UNK     0      22.366  29.333   9.411  0.00  0.00     0.099 A 
HETATM   15  C   UNK     0      22.251  28.288  10.329  0.00  0.00     0.098 A 
HETATM   16  C   UNK     0      22.324  28.550  11.697  0.00  0.00     0.040 A 
HETATM   17  C   UNK     0      22.512  29.857  12.148  0.00  0.00     0.017 A 
BRANCH  14  18
HETATM   18  O   UNK     0      22.295  29.089   8.073  0.00  0.00    -0.358 OA
HETATM   19  H   UNK     0      21.992  28.179   7.921  0.00  0.00     0.217 HD
ENDBRANCH  14  18
BRANCH  15  20
HETATM   20  O   UNK     0      22.069  27.007   9.900  0.00  0.00    -0.358 OA
HETATM   21  H   UNK     0      22.391  26.388  10.574  0.00  0.00     0.217 HD
ENDBRANCH  15  20
ENDBRANCH   5  12
BRANCH   6  22
HETATM   22  O   UNK     0      22.731  31.660  14.018  0.00  0.00    -0.355 OA
HETATM   23  H   UNK     0      22.239  30.890  13.689  0.00  0.00     0.218 HD
ENDBRANCH   6  22
BRANCH   8  24
HETATM   24  O   UNK     0      23.492  36.834  13.833  0.00  0.00    -0.360 OA
HETATM   25  H   UNK     0      24.125  37.567  13.879  0.00  0.00     0.217 HD
ENDBRANCH   8  24
BRANCH  10  26
HETATM   26  O   UNK     0      23.675  37.637   9.156  0.00  0.00    -0.361 OA
HETATM   27  H   UNK     0      23.006  37.437   8.478  0.00  0.00     0.217 HD
ENDBRANCH  10  26
TORSDOF 6
ENDMDL
MODEL 4
REMARK VINA RESULT:      -9.5     15.834     18.300
REMARK  6 active torsions:
REMARK  status: ('A' for Active; 'I' for Inactive)
REMARK    1  A    between atoms: O_2  and  C_12 
REMARK    2  A    between atoms: O_3  and  C_14 
REMARK    3  A    between atoms: O_5  and  C_16 
REMARK    4  A    between atoms: O_6  and  C_20 
REMARK    5  A    between atoms: O_7  and  C_22 
REMARK    6  A    between atoms: C_10  and  C_11 
ROOT
HETATM    1  O   UNK     0      22.881  33.461  12.972  0.00  0.00    -0.306 OA
HETATM    2  O   UNK     0      23.681  36.026   9.908  0.00  0.00    -0.284 OA
HETATM    3  C   UNK     0      23.339  35.724  12.222  0.00  0.00     0.084 A 
HETATM    4  C   UNK     0      23.063  34.796  13.224  0.00  0.00     0.096 A 
HETATM    5  C   UNK     0      22.992  33.014  11.665  0.00  0.00     0.123 A 
HETATM    6  C   UNK     0      23.247  33.805  10.607  0.00  0.00     0.152 A 
HETATM    7  C   UNK     0      23.445  35.258  10.831  0.00  0.00     0.223 A 
HETATM    8  C   UNK     0      23.513  37.073  12.539  0.00  0.00     0.085 A 
HETATM    9  C   UNK     0      22.955  35.214  14.551  0.00  0.00     0.075 A 
HETATM   10  C   UNK     0      23.128  36.561  14.871  0.00  0.00     0.071 A 
HETATM   11  C   UNK     0      23.406  37.488  13.866  0.00  0.00     0.074 A 
ENDROOT
BRANCH   5  12
HETATM   12  C   UNK     0      22.776  31.562  11.533  0.00  0.00     0.004 A 
HETATM   13  C   UNK     0      22.953  30.727  12.636  0.00  0.00     0.053 A 
HETATM   14  C   UNK     0      22.748  29.353  12.512  0.00  0.00     0.099 A 
HETATM   15  C   UNK     0      22.366  28.814  11.283  0.00  0.00     0.098 A 
HETATM   16  C   UNK     0      22.188  29.649  10.180  0.00  0.00     0.040 A 
HETATM   17  C   UNK     0      22.393  31.023  10.304  0.00  0.00     0.017 A 
BRANCH  14  18
HETATM   18  O   UNK     0      22.926  28.547  13.595  0.00  0.00    -0.358 OA
HETATM   19  H   UNK     0      22.898  27.616  13.319  0.00  0.00     0.217 HD
ENDBRANCH  14  18
BRANCH  15  20
HETATM   20  O   UNK     0      22.160  27.474  11.149  0.00  0.00    -0.358 OA
HETATM   21  H   UNK     0      22.556  27.005  11.900  0.00  0.00     0.217 HD
ENDBRANCH  15  20
ENDBRANCH   5  12
BRANCH   6  22
HETATM   22  O   UNK     0      23.318  33.334   9.314  0.00  0.00    -0.355 OA
HETATM   23  H   UNK     0      22.439  33.043   9.019  0.00  0.00     0.218 HD
ENDBRANCH   6  22
BRANCH   8  24
HETATM   24  O   UNK     0      23.785  38.020  11.597  0.00  0.00    -0.360 OA
HETATM   25  H   UNK     0      23.115  38.006  10.897  0.00  0.00     0.217 HD
ENDBRANCH   8  24
BRANCH  10  26
HETATM   26  O   UNK     0      23.024  36.970  16.166  0.00  0.00    -0.361 OA
HETATM   27  H   UNK     0      22.516  37.799  16.194  0.00  0.00     0.217 HD
ENDBRANCH  10  26
TORSDOF 6
ENDMDL
MODEL 5
REMARK VINA RESULT:      -9.5     14.409     16.586
REMARK  6 active torsions:
REMARK  status: ('A' for Active; 'I' for Inactive)
REMARK    1  A    between atoms: O_2  and  C_12 
REMARK    2  A    between atoms: O_3  and  C_14 
REMARK    3  A    between atoms: O_5  and  C_16 
REMARK    4  A    between atoms: O_6  and  C_20 
REMARK    5  A    between atoms: O_7  and  C_22 
REMARK    6  A    between atoms: C_10  and  C_11 
ROOT
HETATM    1  O   UNK     0      22.046  29.534  12.522  0.00  0.00    -0.306 OA
HETATM    2  O   UNK     0      22.515  30.825   8.686  0.00  0.00    -0.284 OA
HETATM    3  C   UNK     0      22.581  31.336  10.987  0.00  0.00     0.084 A 
HETATM    4  C   UNK     0      22.403  30.833  12.275  0.00  0.00     0.096 A 
HETATM    5  C   UNK     0      21.866  28.680  11.445  0.00  0.00     0.123 A 
HETATM    6  C   UNK     0      21.998  29.041  10.155  0.00  0.00     0.152 A 
HETATM    7  C   UNK     0      22.379  30.439   9.839  0.00  0.00     0.223 A 
HETATM    8  C   UNK     0      22.944  32.671  10.796  0.00  0.00     0.085 A 
HETATM    9  C   UNK     0      22.587  31.665  13.380  0.00  0.00     0.075 A 
HETATM   10  C   UNK     0      22.950  32.999  13.192  0.00  0.00     0.071 A 
HETATM   11  C   UNK     0      23.128  33.500  11.902  0.00  0.00     0.074 A 
ENDROOT
BRANCH   5  12
HETATM   12  C   UNK     0      21.485  27.316  11.850  0.00  0.00     0.004 A 
HETATM   13  C   UNK     0      20.491  27.124  12.809  0.00  0.00     0.053 A 
HETATM   14  C   UNK     0      20.130  25.832  13.192  0.00  0.00     0.099 A 
HETATM   15  C   UNK     0      20.764  24.731  12.614  0.00  0.00     0.098 A 
HETATM   16  C   UNK     0      21.758  24.923  11.654  0.00  0.00     0.040 A 
HETATM   17  C   UNK     0      22.118  26.215  11.272  0.00  0.00     0.017 A 
BRANCH  14  18
HETATM   18  O   UNK     0      19.160  25.656  14.131  0.00  0.00    -0.358 OA
HETATM   19  H   UNK     0      18.747  24.785  14.018  0.00  0.00     0.217 HD
ENDBRANCH  14  18
BRANCH  15  20
HETATM   20  O   UNK     0      20.419  23.464  12.978  0.00  0.00    -0.358 OA
HETATM   21  H   UNK     0      20.640  23.320  13.912  0.00  0.00     0.217 HD
ENDBRANCH  15  20
ENDBRANCH   5  12
BRANCH   6  22
HETATM   22  O   UNK     0      21.780  28.176   9.105  0.00  0.00    -0.355 OA
HETATM   23  H   UNK     0      22.284  27.357   9.242  0.00  0.00     0.218 HD
ENDBRANCH   6  22
BRANCH   8  24
HETATM   24  O   UNK     0      23.130  33.212   9.559  0.00  0.00    -0.360 OA
HETATM   25  H   UNK     0      22.375  33.767   9.313  0.00  0.00     0.217 HD
ENDBRANCH   8  24
BRANCH  10  26
HETATM   26  O   UNK     0      23.130  33.812  14.270  0.00  0.00    -0.361 OA
HETATM   27  H   UNK     0      23.703  33.359  14.913  0.00  0.00     0.217 HD
ENDBRANCH  10  26
TORSDOF 6
ENDMDL
MODEL 6
REMARK VINA RESULT:      -9.5     14.912     16.131
REMARK  6 active torsions:
REMARK  status: ('A' for Active; 'I' for Inactive)
REMARK    1  A    between atoms: O_2  and  C_12 
REMARK    2  A    between atoms: O_3  and  C_14 
REMARK    3  A    between atoms: O_5  and  C_16 
REMARK    4  A    between atoms: O_6  and  C_20 
REMARK    5  A    between atoms: O_7  and  C_22 
REMARK    6  A    between atoms: C_10  and  C_11 
ROOT
HETATM    1  O   UNK     0      22.648  30.223  12.394  0.00  0.00    -0.306 OA
HETATM    2  O   UNK     0      22.218  29.098   8.501  0.00  0.00    -0.284 OA
HETATM    3  C   UNK     0      22.313  28.453  10.768  0.00  0.00     0.084 A 
HETATM    4  C   UNK     0      22.467  28.902  12.078  0.00  0.00     0.096 A 
HETATM    5  C   UNK     0      22.665  31.154  11.367  0.00  0.00     0.123 A 
HETATM    6  C   UNK     0      22.536  30.851  10.062  0.00  0.00     0.152 A 
HETATM    7  C   UNK     0      22.343  29.434   9.672  0.00  0.00     0.223 A 
HETATM    8  C   UNK     0      22.133  27.093  10.506  0.00  0.00     0.085 A 
HETATM    9  C   UNK     0      22.444  27.991  13.135  0.00  0.00     0.075 A 
HETATM   10  C   UNK     0      22.265  26.633  12.876  0.00  0.00     0.071 A 
HETATM   11  C   UNK     0      22.109  26.185  11.564  0.00  0.00     0.074 A 
ENDROOT
BRANCH   5  12
HETATM   12  C   UNK     0      22.866  32.533  11.843  0.00  0.00     0.004 A 
HETATM   13  C   UNK     0      22.592  32.860  13.171  0.00  0.00     0.053 A 
HETATM   14  C   UNK     0      22.783  34.167  13.622  0.00  0.00     0.099 A 
HETATM   15  C   UNK     0      23.248  35.146  12.743  0.00  0.00     0.098 A 
HETATM   16  C   UNK     0      23.522  34.819  11.416  0.00  0.00     0.040 A 
HETATM   17  C   UNK     0      23.332  33.513  10.965  0.00  0.00     0.017 A 
BRANCH  14  18
HETATM   18  O   UNK     0      22.510  34.475  14.920  0.00  0.00    -0.358 OA
HETATM   19  H   UNK     0      23.175  34.071  15.500  0.00  0.00     0.217 HD
ENDBRANCH  14  18
BRANCH  15  20
HETATM   20  O   UNK     0      23.440  36.425  13.172  0.00  0.00    -0.358 OA
HETATM   21  H   UNK     0      22.902  36.590  13.963  0.00  0.00     0.217 HD
ENDBRANCH  15  20
ENDBRANCH   5  12
BRANCH   6  22
HETATM   22  O   UNK     0      22.590  31.797   9.061  0.00  0.00    -0.355 OA
HETATM   23  H   UNK     0      21.798  31.732   8.502  0.00  0.00     0.218 HD
ENDBRANCH   6  22
BRANCH   8  24
HETATM   24  O   UNK     0      21.977  26.603   9.244  0.00  0.00    -0.360 OA
HETATM   25  H   UNK     0      21.037  26.522   9.023  0.00  0.00     0.217 HD
ENDBRANCH   8  24
BRANCH  10  26
HETATM   26  O   UNK     0      22.242  25.743  13.907  0.00  0.00    -0.361 OA
HETATM   27  H   UNK     0      23.134  25.375  14.025  0.00  0.00     0.217 HD
ENDBRANCH  10  26
TORSDOF 6
ENDMDL
MODEL 7
REMARK VINA RESULT:      -8.8     17.189     19.059
REMARK  6 active torsions:
REMARK  status: ('A' for Active; 'I' for Inactive)
REMARK    1  A    between atoms: O_2  and  C_12 
REMARK    2  A    between atoms: O_3  and  C_14 
REMARK    3  A    between atoms: O_5  and  C_16 
REMARK    4  A    between atoms: O_6  and  C_20 
REMARK    5  A    between atoms: O_7  and  C_22 
REMARK    6  A    between atoms: C_10  and  C_11 
ROOT
HETATM    1  O   UNK     0      23.153  36.284  13.619  0.00  0.00    -0.306 OA
HETATM    2  O   UNK     0      23.654  36.133   9.578  0.00  0.00    -0.284 OA
HETATM    3  C   UNK     0      23.279  34.960  11.589  0.00  0.00     0.084 A 
HETATM    4  C   UNK     0      23.116  35.079  12.968  0.00  0.00     0.096 A 
HETATM    5  C   UNK     0      23.348  37.435  12.872  0.00  0.00     0.123 A 
HETATM    6  C   UNK     0      23.526  37.457  11.538  0.00  0.00     0.152 A 
HETATM    7  C   UNK     0      23.499  36.176  10.791  0.00  0.00     0.223 A 
HETATM    8  C   UNK     0      23.233  33.704  10.980  0.00  0.00     0.085 A 
HETATM    9  C   UNK     0      22.908  33.940  13.747  0.00  0.00     0.075 A 
HETATM   10  C   UNK     0      22.861  32.684  13.141  0.00  0.00     0.071 A 
HETATM   11  C   UNK     0      23.024  32.567  11.760  0.00  0.00     0.074 A 
ENDROOT
BRANCH   5  12
HETATM   12  C   UNK     0      23.367  38.658  13.693  0.00  0.00     0.004 A 
HETATM   13  C   UNK     0      24.554  39.079  14.291  0.00  0.00     0.053 A 
HETATM   14  C   UNK     0      24.571  40.238  15.068  0.00  0.00     0.099 A 
HETATM   15  C   UNK     0      23.400  40.975  15.246  0.00  0.00     0.098 A 
HETATM   16  C   UNK     0      22.213  40.555  14.647  0.00  0.00     0.040 A 
HETATM   17  C   UNK     0      22.196  39.396  13.870  0.00  0.00     0.017 A 
BRANCH  14  18
HETATM   18  O   UNK     0      25.735  40.638  15.650  0.00  0.00    -0.358 OA
HETATM   19  H   UNK     0      25.586  40.822  16.592  0.00  0.00     0.217 HD
ENDBRANCH  14  18
BRANCH  15  20
HETATM   20  O   UNK     0      23.405  42.110  16.001  0.00  0.00    -0.358 OA
HETATM   21  H   UNK     0      23.630  42.872  15.445  0.00  0.00     0.217 HD
ENDBRANCH  15  20
ENDBRANCH   5  12
BRANCH   6  22
HETATM   22  O   UNK     0      23.751  38.616  10.828  0.00  0.00    -0.355 OA
HETATM   23  H   UNK     0      23.348  38.547   9.947  0.00  0.00     0.218 HD
ENDBRANCH   6  22
BRANCH   8  24
HETATM   24  O   UNK     0      23.385  33.533   9.636  0.00  0.00    -0.360 OA
HETATM   25  H   UNK     0      23.176  34.352   9.163  0.00  0.00     0.217 HD
ENDBRANCH   8  24
BRANCH  10  26
HETATM   26  O   UNK     0      22.658  31.572  13.900  0.00  0.00    -0.361 OA
HETATM   27  H   UNK     0      21.777  31.210  13.699  0.00  0.00     0.217 HD
ENDBRANCH  10  26
TORSDOF 6
ENDMDL
MODEL 8
REMARK VINA RESULT:      -8.8     15.540     16.860
REMARK  6 active torsions:
REMARK  status: ('A' for Active; 'I' for Inactive)
REMARK    1  A    between atoms: O_2  and  C_12 
REMARK    2  A    between atoms: O_3  and  C_14 
REMARK    3  A    between atoms: O_5  and  C_16 
REMARK    4  A    between atoms: O_6  and  C_20 
REMARK    5  A    between atoms: O_7  and  C_22 
REMARK    6  A    between atoms: C_10  and  C_11 
ROOT
HETATM    1  O   UNK     0      22.709  31.335  10.298  0.00  0.00    -0.306 OA
HETATM    2  O   UNK     0      22.319  28.702  13.384  0.00  0.00    -0.284 OA
HETATM    3  C   UNK     0      22.358  29.055  11.052  0.00  0.00     0.084 A 
HETATM    4  C   UNK     0      22.499  30.005  10.042  0.00  0.00     0.096 A 
HETATM    5  C   UNK     0      22.799  31.750  11.617  0.00  0.00     0.123 A 
HETATM    6  C   UNK     0      22.673  30.936  12.682  0.00  0.00     0.152 A 
HETATM    7  C   UNK     0      22.439  29.490  12.455  0.00  0.00     0.223 A 
HETATM    8  C   UNK     0      22.144  27.712  10.731  0.00  0.00     0.085 A 
HETATM    9  C   UNK     0      22.423  29.618   8.704  0.00  0.00     0.075 A 
HETATM   10  C   UNK     0      22.209  28.277   8.381  0.00  0.00     0.071 A 
HETATM   11  C   UNK     0      22.069  27.327   9.393  0.00  0.00     0.074 A 
ENDROOT
BRANCH   5  12
HETATM   12  C   UNK     0      23.026  33.199  11.751  0.00  0.00     0.004 A 
HETATM   13  C   UNK     0      22.992  33.798  13.010  0.00  0.00     0.053 A 
HETATM   14  C   UNK     0      23.208  35.170  13.136  0.00  0.00     0.099 A 
HETATM   15  C   UNK     0      23.458  35.944  12.002  0.00  0.00     0.098 A 
HETATM   16  C   UNK     0      23.493  35.345  10.743  0.00  0.00     0.040 A 
HETATM   17  C   UNK     0      23.277  33.973  10.617  0.00  0.00     0.017 A 
BRANCH  14  18
HETATM   18  O   UNK     0      23.170  35.745  14.370  0.00  0.00    -0.358 OA
HETATM   19  H   UNK     0      22.309  35.574  14.786  0.00  0.00     0.217 HD
ENDBRANCH  14  18
BRANCH  15  20
HETATM   20  O   UNK     0      23.672  37.285  12.113  0.00  0.00    -0.358 OA
HETATM   21  H   UNK     0      23.671  37.541  13.049  0.00  0.00     0.217 HD
ENDBRANCH  15  20
ENDBRANCH   5  12
BRANCH   6  22
HETATM   22  O   UNK     0      22.735  31.386  13.984  0.00  0.00    -0.355 OA
HETATM   23  H   UNK     0      22.773  30.630  14.592  0.00  0.00     0.218 HD
ENDBRANCH   6  22
BRANCH   8  24
HETATM   24  O   UNK     0      22.000  26.744  11.680  0.00  0.00    -0.360 OA
HETATM   25  H   UNK     0      21.662  27.124  12.505  0.00  0.00     0.217 HD
ENDBRANCH   8  24
BRANCH  10  26
HETATM   26  O   UNK     0      22.136  27.898   7.075  0.00  0.00    -0.361 OA
HETATM   27  H   UNK     0      22.146  26.926   7.029  0.00  0.00     0.217 HD
ENDBRANCH  10  26
TORSDOF 6
ENDMDL
MODEL 9
REMARK VINA RESULT:      -8.8     16.393     18.901
REMARK  6 active torsions:
REMARK  status: ('A' for Active; 'I' for Inactive)
REMARK    1  A    between atoms: O_2  and  C_12 
REMARK    2  A    between atoms: O_3  and  C_14 
REMARK    3  A    between atoms: O_5  and  C_16 
REMARK    4  A    between atoms: O_6  and  C_20 
REMARK    5  A    between atoms: O_7  and  C_22 
REMARK    6  A    between atoms: C_10  and  C_11 
ROOT
HETATM    1  O   UNK     0      24.724  36.399  14.853  0.00  0.00    -0.306 OA
HETATM    2  O   UNK     0      22.757  39.963  14.693  0.00  0.00    -0.284 OA
HETATM    3  C   UNK     0      24.490  38.680  15.646  0.00  0.00     0.084 A 
HETATM    4  C   UNK     0      25.120  37.437  15.654  0.00  0.00     0.096 A 
HETATM    5  C   UNK     0      23.660  36.599  13.987  0.00  0.00     0.123 A 
HETATM    6  C   UNK     0      22.963  37.746  13.888  0.00  0.00     0.152 A 
HETATM    7  C   UNK     0      23.352  38.895  14.740  0.00  0.00     0.223 A 
HETATM    8  C   UNK     0      24.937  39.702  16.488  0.00  0.00     0.085 A 
HETATM    9  C   UNK     0      26.201  37.208  16.507  0.00  0.00     0.075 A 
HETATM   10  C   UNK     0      26.649  38.226  17.348  0.00  0.00     0.071 A 
HETATM   11  C   UNK     0      26.018  39.471  17.339  0.00  0.00     0.074 A 
ENDROOT
BRANCH   5  12
HETATM   12  C   UNK     0      23.339  35.406  13.184  0.00  0.00     0.004 A 
HETATM   13  C   UNK     0      22.720  34.308  13.782  0.00  0.00     0.053 A 
HETATM   14  C   UNK     0      22.416  33.179  13.021  0.00  0.00     0.099 A 
HETATM   15  C   UNK     0      22.732  33.148  11.662  0.00  0.00     0.098 A 
HETATM   16  C   UNK     0      23.350  34.246  11.065  0.00  0.00     0.040 A 
HETATM   17  C   UNK     0      23.654  35.375  11.825  0.00  0.00     0.017 A 
BRANCH  14  18
HETATM   18  O   UNK     0      21.813  32.112  13.615  0.00  0.00    -0.358 OA
HETATM   19  H   UNK     0      21.039  31.840  13.095  0.00  0.00     0.217 HD
ENDBRANCH  14  18
BRANCH  15  20
HETATM   20  O   UNK     0      22.437  32.052  10.909  0.00  0.00    -0.358 OA
HETATM   21  H   UNK     0      22.006  32.327  10.084  0.00  0.00     0.217 HD
ENDBRANCH  15  20
ENDBRANCH   5  12
BRANCH   6  22
HETATM   22  O   UNK     0      21.888  37.902  13.040  0.00  0.00    -0.355 OA
HETATM   23  H   UNK     0      21.771  37.101  12.504  0.00  0.00     0.218 HD
ENDBRANCH   6  22
BRANCH   8  24
HETATM   24  O   UNK     0      24.357  40.935  16.519  0.00  0.00    -0.360 OA
HETATM   25  H   UNK     0      23.581  40.931  17.099  0.00  0.00     0.217 HD
ENDBRANCH   8  24
BRANCH  10  26
HETATM   26  O   UNK     0      27.704  38.004  18.181  0.00  0.00    -0.361 OA
HETATM   27  H   UNK     0      28.227  38.821  18.252  0.00  0.00     0.217 HD
ENDBRANCH  10  26
TORSDOF 6
ENDMDL
