MODEL 1
REMARK VINA RESULT:      -3.8      0.000      0.000
REMARK  6 active torsions:
REMARK  status: ('A' for Active; 'I' for Inactive)
REMARK    1  A    between atoms: O_2  and  C_12 
REMARK    2  A    between atoms: O_3  and  C_14 
REMARK    3  A    between atoms: O_5  and  C_16 
REMARK    4  A    between atoms: O_6  and  C_20 
REMARK    5  A    between atoms: O_7  and  C_22 
REMARK    6  A    between atoms: C_10  and  C_11 
ROOT
HETATM    1  O   UNK     0     -12.045   4.945   3.646  0.00  0.00    -0.306 OA
HETATM    2  O   UNK     0     -10.966   4.337   7.528  0.00  0.00    -0.284 OA
HETATM    3  C   UNK     0     -12.632   5.010   6.000  0.00  0.00     0.084 A 
HETATM    4  C   UNK     0     -12.938   5.199   4.654  0.00  0.00     0.096 A 
HETATM    5  C   UNK     0     -10.787   4.468   3.981  0.00  0.00     0.123 A 
HETATM    6  C   UNK     0     -10.364   4.251   5.240  0.00  0.00     0.152 A 
HETATM    7  C   UNK     0     -11.295   4.517   6.363  0.00  0.00     0.223 A 
HETATM    8  C   UNK     0     -13.583   5.288   6.985  0.00  0.00     0.085 A 
HETATM    9  C   UNK     0     -14.199   5.669   4.285  0.00  0.00     0.075 A 
HETATM   10  C   UNK     0     -15.151   5.946   5.266  0.00  0.00     0.071 A 
HETATM   11  C   UNK     0     -14.843   5.756   6.613  0.00  0.00     0.074 A 
ENDROOT
BRANCH   5  12
HETATM   12  C   UNK     0      -9.928   4.236   2.806  0.00  0.00     0.004 A 
HETATM   13  C   UNK     0      -9.194   5.289   2.261  0.00  0.00     0.053 A 
HETATM   14  C   UNK     0      -8.380   5.070   1.149  0.00  0.00     0.099 A 
HETATM   15  C   UNK     0      -8.302   3.797   0.583  0.00  0.00     0.098 A 
HETATM   16  C   UNK     0      -9.035   2.744   1.129  0.00  0.00     0.040 A 
HETATM   17  C   UNK     0      -9.849   2.963   2.241  0.00  0.00     0.017 A 
BRANCH  14  18
HETATM   18  O   UNK     0      -7.670   6.105   0.623  0.00  0.00    -0.358 OA
HETATM   19  H   UNK     0      -8.258   6.677   0.104  0.00  0.00     0.217 HD
ENDBRANCH  14  18
BRANCH  15  20
HETATM   20  O   UNK     0      -7.509   3.570  -0.502  0.00  0.00    -0.358 OA
HETATM   21  H   UNK     0      -6.610   3.351  -0.210  0.00  0.00     0.217 HD
ENDBRANCH  15  20
ENDBRANCH   5  12
BRANCH   6  22
HETATM   22  O   UNK     0      -9.095   3.807   5.541  0.00  0.00    -0.355 OA
HETATM   23  H   UNK     0      -9.028   3.619   6.491  0.00  0.00     0.218 HD
ENDBRANCH   6  22
BRANCH   8  24
HETATM   24  O   UNK     0     -13.334   5.121   8.315  0.00  0.00    -0.360 OA
HETATM   25  H   UNK     0     -14.059   5.485   8.845  0.00  0.00     0.217 HD
ENDBRANCH   8  24
BRANCH  10  26
HETATM   26  O   UNK     0     -16.382   6.404   4.907  0.00  0.00    -0.361 OA
HETATM   27  H   UNK     0     -16.404   7.370   5.019  0.00  0.00     0.217 HD
ENDBRANCH  10  26
TORSDOF 6
ENDMDL
MODEL 2
REMARK VINA RESULT:      -3.8     12.198     13.655
REMARK  6 active torsions:
REMARK  status: ('A' for Active; 'I' for Inactive)
REMARK    1  A    between atoms: O_2  and  C_12 
REMARK    2  A    between atoms: O_3  and  C_14 
REMARK    3  A    between atoms: O_5  and  C_16 
REMARK    4  A    between atoms: O_6  and  C_20 
REMARK    5  A    between atoms: O_7  and  C_22 
REMARK    6  A    between atoms: C_10  and  C_11 
ROOT
HETATM    1  O   UNK     0      -3.221  12.222  11.765  0.00  0.00    -0.306 OA
HETATM    2  O   UNK     0      -5.116  15.597  10.490  0.00  0.00    -0.284 OA
HETATM    3  C   UNK     0      -3.677  14.587  12.062  0.00  0.00     0.084 A 
HETATM    4  C   UNK     0      -3.059  13.399  12.447  0.00  0.00     0.096 A 
HETATM    5  C   UNK     0      -4.026  12.217  10.636  0.00  0.00     0.123 A 
HETATM    6  C   UNK     0      -4.684  13.291  10.164  0.00  0.00     0.152 A 
HETATM    7  C   UNK     0      -4.543  14.586  10.873  0.00  0.00     0.223 A 
HETATM    8  C   UNK     0      -3.476  15.758  12.798  0.00  0.00     0.085 A 
HETATM    9  C   UNK     0      -2.235  13.375  13.574  0.00  0.00     0.075 A 
HETATM   10  C   UNK     0      -2.032  14.542  14.310  0.00  0.00     0.071 A 
HETATM   11  C   UNK     0      -2.651  15.730  13.923  0.00  0.00     0.074 A 
ENDROOT
BRANCH   5  12
HETATM   12  C   UNK     0      -4.114  10.891   9.999  0.00  0.00     0.004 A 
HETATM   13  C   UNK     0      -4.839   9.869  10.612  0.00  0.00     0.053 A 
HETATM   14  C   UNK     0      -4.923   8.614  10.008  0.00  0.00     0.099 A 
HETATM   15  C   UNK     0      -4.282   8.382   8.791  0.00  0.00     0.098 A 
HETATM   16  C   UNK     0      -3.558   9.404   8.177  0.00  0.00     0.040 A 
HETATM   17  C   UNK     0      -3.474  10.659   8.781  0.00  0.00     0.017 A 
BRANCH  14  18
HETATM   18  O   UNK     0      -5.631   7.623  10.616  0.00  0.00    -0.358 OA
HETATM   19  H   UNK     0      -5.023   6.955  10.972  0.00  0.00     0.217 HD
ENDBRANCH  14  18
BRANCH  15  20
HETATM   20  O   UNK     0      -4.358   7.162   8.190  0.00  0.00    -0.358 OA
HETATM   21  H   UNK     0      -3.465   6.824   8.019  0.00  0.00     0.217 HD
ENDBRANCH  15  20
ENDBRANCH   5  12
BRANCH   6  22
HETATM   22  O   UNK     0      -5.503  13.245   9.057  0.00  0.00    -0.355 OA
HETATM   23  H   UNK     0      -5.520  14.114   8.623  0.00  0.00     0.218 HD
ENDBRANCH   6  22
BRANCH   8  24
HETATM   24  O   UNK     0      -4.056  16.944  12.465  0.00  0.00    -0.360 OA
HETATM   25  H   UNK     0      -4.816  17.124  13.038  0.00  0.00     0.217 HD
ENDBRANCH   8  24
BRANCH  10  26
HETATM   26  O   UNK     0      -1.228  14.519  15.409  0.00  0.00    -0.361 OA
HETATM   27  H   UNK     0      -1.624  15.077  16.100  0.00  0.00     0.217 HD
ENDBRANCH  10  26
TORSDOF 6
ENDMDL
MODEL 3
REMARK VINA RESULT:      -3.7     11.560     14.792
REMARK  6 active torsions:
REMARK  status: ('A' for Active; 'I' for Inactive)
REMARK    1  A    between atoms: O_2  and  C_12 
REMARK    2  A    between atoms: O_3  and  C_14 
REMARK    3  A    between atoms: O_5  and  C_16 
REMARK    4  A    between atoms: O_6  and  C_20 
REMARK    5  A    between atoms: O_7  and  C_22 
REMARK    6  A    between atoms: C_10  and  C_11 
ROOT
HETATM    1  O   UNK     0     -15.456  12.176  15.873  0.00  0.00    -0.306 OA
HETATM    2  O   UNK     0     -15.217  15.061  13.005  0.00  0.00    -0.284 OA
HETATM    3  C   UNK     0     -14.870  14.449  15.256  0.00  0.00     0.084 A 
HETATM    4  C   UNK     0     -14.978  13.421  16.190  0.00  0.00     0.096 A 
HETATM    5  C   UNK     0     -15.837  11.927  14.564  0.00  0.00     0.123 A 
HETATM    6  C   UNK     0     -15.790  12.834  13.570  0.00  0.00     0.152 A 
HETATM    7  C   UNK     0     -15.284  14.196  13.868  0.00  0.00     0.223 A 
HETATM    8  C   UNK     0     -14.376  15.699  15.637  0.00  0.00     0.085 A 
HETATM    9  C   UNK     0     -14.593  13.637  17.514  0.00  0.00     0.075 A 
HETATM   10  C   UNK     0     -14.100  14.884  17.898  0.00  0.00     0.071 A 
HETATM   11  C   UNK     0     -13.991  15.913  16.961  0.00  0.00     0.074 A 
ENDROOT
BRANCH   5  12
HETATM   12  C   UNK     0     -16.330  10.554  14.359  0.00  0.00     0.004 A 
HETATM   13  C   UNK     0     -15.462   9.560  13.908  0.00  0.00     0.053 A 
HETATM   14  C   UNK     0     -15.930   8.260  13.715  0.00  0.00     0.099 A 
HETATM   15  C   UNK     0     -17.267   7.954  13.973  0.00  0.00     0.098 A 
HETATM   16  C   UNK     0     -18.135   8.948  14.425  0.00  0.00     0.040 A 
HETATM   17  C   UNK     0     -17.667  10.248  14.618  0.00  0.00     0.017 A 
BRANCH  14  18
HETATM   18  O   UNK     0     -15.074   7.298  13.273  0.00  0.00    -0.358 OA
HETATM   19  H   UNK     0     -14.310   7.712  12.839  0.00  0.00     0.217 HD
ENDBRANCH  14  18
BRANCH  15  20
HETATM   20  O   UNK     0     -17.735   6.688  13.791  0.00  0.00    -0.358 OA
HETATM   21  H   UNK     0     -16.992   6.064  13.769  0.00  0.00     0.217 HD
ENDBRANCH  15  20
ENDBRANCH   5  12
BRANCH   6  22
HETATM   22  O   UNK     0     -16.207  12.564  12.285  0.00  0.00    -0.355 OA
HETATM   23  H   UNK     0     -16.764  13.290  11.959  0.00  0.00     0.218 HD
ENDBRANCH   6  22
BRANCH   8  24
HETATM   24  O   UNK     0     -14.250  16.737  14.764  0.00  0.00    -0.360 OA
HETATM   25  H   UNK     0     -13.941  17.533  15.223  0.00  0.00     0.217 HD
ENDBRANCH   8  24
BRANCH  10  26
HETATM   26  O   UNK     0     -13.724  15.097  19.189  0.00  0.00    -0.361 OA
HETATM   27  H   UNK     0     -12.901  15.617  19.196  0.00  0.00     0.217 HD
ENDBRANCH  10  26
TORSDOF 6
ENDMDL
MODEL 4
REMARK VINA RESULT:      -3.7      1.956      2.252
REMARK  6 active torsions:
REMARK  status: ('A' for Active; 'I' for Inactive)
REMARK    1  A    between atoms: O_2  and  C_12 
REMARK    2  A    between atoms: O_3  and  C_14 
REMARK    3  A    between atoms: O_5  and  C_16 
REMARK    4  A    between atoms: O_6  and  C_20 
REMARK    5  A    between atoms: O_7  and  C_22 
REMARK    6  A    between atoms: C_10  and  C_11 
ROOT
HETATM    1  O   UNK     0     -12.240   5.106   3.311  0.00  0.00    -0.306 OA
HETATM    2  O   UNK     0      -9.303   3.875   5.853  0.00  0.00    -0.284 OA
HETATM    3  C   UNK     0     -11.524   4.621   5.578  0.00  0.00     0.084 A 
HETATM    4  C   UNK     0     -12.484   5.035   4.657  0.00  0.00     0.096 A 
HETATM    5  C   UNK     0     -10.988   4.738   2.845  0.00  0.00     0.123 A 
HETATM    6  C   UNK     0      -9.972   4.329   3.628  0.00  0.00     0.152 A 
HETATM    7  C   UNK     0     -10.189   4.241   5.092  0.00  0.00     0.223 A 
HETATM    8  C   UNK     0     -11.830   4.569   6.940  0.00  0.00     0.085 A 
HETATM    9  C   UNK     0     -13.757   5.402   5.094  0.00  0.00     0.075 A 
HETATM   10  C   UNK     0     -14.066   5.352   6.454  0.00  0.00     0.071 A 
HETATM   11  C   UNK     0     -13.103   4.936   7.375  0.00  0.00     0.074 A 
ENDROOT
BRANCH   5  12
HETATM   12  C   UNK     0     -10.859   4.860   1.382  0.00  0.00     0.004 A 
HETATM   13  C   UNK     0     -10.418   6.057   0.818  0.00  0.00     0.053 A 
HETATM   14  C   UNK     0     -10.296   6.172  -0.567  0.00  0.00     0.099 A 
HETATM   15  C   UNK     0     -10.616   5.090  -1.388  0.00  0.00     0.098 A 
HETATM   16  C   UNK     0     -11.056   3.893  -0.824  0.00  0.00     0.040 A 
HETATM   17  C   UNK     0     -11.178   3.777   0.561  0.00  0.00     0.017 A 
BRANCH  14  18
HETATM   18  O   UNK     0      -9.867   7.346  -1.107  0.00  0.00    -0.358 OA
HETATM   19  H   UNK     0      -9.495   7.185  -1.990  0.00  0.00     0.217 HD
ENDBRANCH  14  18
BRANCH  15  20
HETATM   20  O   UNK     0     -10.499   5.190  -2.742  0.00  0.00    -0.358 OA
HETATM   21  H   UNK     0     -11.099   4.560  -3.170  0.00  0.00     0.217 HD
ENDBRANCH  15  20
ENDBRANCH   5  12
BRANCH   6  22
HETATM   22  O   UNK     0      -8.728   4.001   3.136  0.00  0.00    -0.355 OA
HETATM   23  H   UNK     0      -8.757   3.957   2.166  0.00  0.00     0.218 HD
ENDBRANCH   6  22
BRANCH   8  24
HETATM   24  O   UNK     0     -10.927   4.172   7.881  0.00  0.00    -0.360 OA
HETATM   25  H   UNK     0     -10.487   4.940   8.276  0.00  0.00     0.217 HD
ENDBRANCH   8  24
BRANCH  10  26
HETATM   26  O   UNK     0     -15.308   5.709   6.882  0.00  0.00    -0.361 OA
HETATM   27  H   UNK     0     -15.672   6.373   6.271  0.00  0.00     0.217 HD
ENDBRANCH  10  26
TORSDOF 6
ENDMDL
MODEL 5
REMARK VINA RESULT:      -3.7     13.804     17.350
REMARK  6 active torsions:
REMARK  status: ('A' for Active; 'I' for Inactive)
REMARK    1  A    between atoms: O_2  and  C_12 
REMARK    2  A    between atoms: O_3  and  C_14 
REMARK    3  A    between atoms: O_5  and  C_16 
REMARK    4  A    between atoms: O_6  and  C_20 
REMARK    5  A    between atoms: O_7  and  C_22 
REMARK    6  A    between atoms: C_10  and  C_11 
ROOT
HETATM    1  O   UNK     0     -14.294  14.025  17.350  0.00  0.00    -0.306 OA
HETATM    2  O   UNK     0     -15.124  14.795  13.435  0.00  0.00    -0.284 OA
HETATM    3  C   UNK     0     -15.178  13.258  15.224  0.00  0.00     0.084 A 
HETATM    4  C   UNK     0     -14.869  13.058  16.568  0.00  0.00     0.096 A 
HETATM    5  C   UNK     0     -14.022  15.260  16.782  0.00  0.00     0.123 A 
HETATM    6  C   UNK     0     -14.263  15.579  15.497  0.00  0.00     0.152 A 
HETATM    7  C   UNK     0     -14.879  14.562  14.612  0.00  0.00     0.223 A 
HETATM    8  C   UNK     0     -15.762  12.234  14.475  0.00  0.00     0.085 A 
HETATM    9  C   UNK     0     -15.140  11.829  17.171  0.00  0.00     0.075 A 
HETATM   10  C   UNK     0     -15.724  10.804  16.425  0.00  0.00     0.071 A 
HETATM   11  C   UNK     0     -16.033  11.007  15.080  0.00  0.00     0.074 A 
ENDROOT
BRANCH   5  12
HETATM   12  C   UNK     0     -13.407  16.206  17.730  0.00  0.00     0.004 A 
HETATM   13  C   UNK     0     -12.025  16.207  17.918  0.00  0.00     0.053 A 
HETATM   14  C   UNK     0     -11.443  17.103  18.815  0.00  0.00     0.099 A 
HETATM   15  C   UNK     0     -12.245  17.998  19.525  0.00  0.00     0.098 A 
HETATM   16  C   UNK     0     -13.626  17.998  19.337  0.00  0.00     0.040 A 
HETATM   17  C   UNK     0     -14.208  17.102  18.439  0.00  0.00     0.017 A 
BRANCH  14  18
HETATM   18  O   UNK     0     -10.093  17.094  18.992  0.00  0.00    -0.358 OA
HETATM   19  H   UNK     0      -9.788  16.185  19.145  0.00  0.00     0.217 HD
ENDBRANCH  14  18
BRANCH  15  20
HETATM   20  O   UNK     0     -11.688  18.880  20.402  0.00  0.00    -0.358 OA
HETATM   21  H   UNK     0     -12.386  19.315  20.916  0.00  0.00     0.217 HD
ENDBRANCH  15  20
ENDBRANCH   5  12
BRANCH   6  22
HETATM   22  O   UNK     0     -13.950  16.806  14.955  0.00  0.00    -0.355 OA
HETATM   23  H   UNK     0     -13.773  16.712  14.005  0.00  0.00     0.218 HD
ENDBRANCH   6  22
BRANCH   8  24
HETATM   24  O   UNK     0     -16.084  12.378  13.159  0.00  0.00    -0.360 OA
HETATM   25  H   UNK     0     -17.024  12.596  13.060  0.00  0.00     0.217 HD
ENDBRANCH   8  24
BRANCH  10  26
HETATM   26  O   UNK     0     -15.989   9.605  17.012  0.00  0.00    -0.361 OA
HETATM   27  H   UNK     0     -16.717   9.720  17.648  0.00  0.00     0.217 HD
ENDBRANCH  10  26
TORSDOF 6
ENDMDL
MODEL 6
REMARK VINA RESULT:      -3.7     11.095     13.552
REMARK  6 active torsions:
REMARK  status: ('A' for Active; 'I' for Inactive)
REMARK    1  A    between atoms: O_2  and  C_12 
REMARK    2  A    between atoms: O_3  and  C_14 
REMARK    3  A    between atoms: O_5  and  C_16 
REMARK    4  A    between atoms: O_6  and  C_20 
REMARK    5  A    between atoms: O_7  and  C_22 
REMARK    6  A    between atoms: C_10  and  C_11 
ROOT
HETATM    1  O   UNK     0      -3.168  10.446  10.295  0.00  0.00    -0.306 OA
HETATM    2  O   UNK     0      -5.292  13.625   8.883  0.00  0.00    -0.284 OA
HETATM    3  C   UNK     0      -4.036  11.688   8.399  0.00  0.00     0.084 A 
HETATM    4  C   UNK     0      -3.322  10.623   8.945  0.00  0.00     0.096 A 
HETATM    5  C   UNK     0      -3.761  11.359  11.154  0.00  0.00     0.123 A 
HETATM    6  C   UNK     0      -4.469  12.432  10.756  0.00  0.00     0.152 A 
HETATM    7  C   UNK     0      -4.657  12.667   9.304  0.00  0.00     0.223 A 
HETATM    8  C   UNK     0      -4.159  11.818   7.013  0.00  0.00     0.085 A 
HETATM    9  C   UNK     0      -2.722   9.683   8.106  0.00  0.00     0.075 A 
HETATM   10  C   UNK     0      -2.843   9.810   6.722  0.00  0.00     0.071 A 
HETATM   11  C   UNK     0      -3.559  10.876   6.178  0.00  0.00     0.074 A 
ENDROOT
BRANCH   5  12
HETATM   12  C   UNK     0      -3.520  11.052  12.575  0.00  0.00     0.004 A 
HETATM   13  C   UNK     0      -4.317  10.116  13.232  0.00  0.00     0.053 A 
HETATM   14  C   UNK     0      -4.088   9.826  14.577  0.00  0.00     0.099 A 
HETATM   15  C   UNK     0      -3.061  10.473  15.265  0.00  0.00     0.098 A 
HETATM   16  C   UNK     0      -2.262  11.408  14.607  0.00  0.00     0.040 A 
HETATM   17  C   UNK     0      -2.491  11.698  13.262  0.00  0.00     0.017 A 
BRANCH  14  18
HETATM   18  O   UNK     0      -4.875   8.912  15.210  0.00  0.00    -0.358 OA
HETATM   19  H   UNK     0      -5.802   9.041  14.951  0.00  0.00     0.217 HD
ENDBRANCH  14  18
BRANCH  15  20
HETATM   20  O   UNK     0      -2.826  10.196  16.578  0.00  0.00    -0.358 OA
HETATM   21  H   UNK     0      -3.611  10.414  17.104  0.00  0.00     0.217 HD
ENDBRANCH  15  20
ENDBRANCH   5  12
BRANCH   6  22
HETATM   22  O   UNK     0      -5.018  13.340  11.636  0.00  0.00    -0.355 OA
HETATM   23  H   UNK     0      -4.331  13.677  12.233  0.00  0.00     0.218 HD
ENDBRANCH   6  22
BRANCH   8  24
HETATM   24  O   UNK     0      -4.846  12.840   6.429  0.00  0.00    -0.360 OA
HETATM   25  H   UNK     0      -5.437  12.501   5.740  0.00  0.00     0.217 HD
ENDBRANCH   8  24
BRANCH  10  26
HETATM   26  O   UNK     0      -2.258   8.893   5.903  0.00  0.00    -0.361 OA
HETATM   27  H   UNK     0      -1.959   8.138   6.439  0.00  0.00     0.217 HD
ENDBRANCH  10  26
TORSDOF 6
ENDMDL
MODEL 7
REMARK VINA RESULT:      -3.6      2.143      7.283
REMARK  6 active torsions:
REMARK  status: ('A' for Active; 'I' for Inactive)
REMARK    1  A    between atoms: O_2  and  C_12 
REMARK    2  A    between atoms: O_3  and  C_14 
REMARK    3  A    between atoms: O_5  and  C_16 
REMARK    4  A    between atoms: O_6  and  C_20 
REMARK    5  A    between atoms: O_7  and  C_22 
REMARK    6  A    between atoms: C_10  and  C_11 
ROOT
HETATM    1  O   UNK     0     -13.627   5.337   5.444  0.00  0.00    -0.306 OA
HETATM    2  O   UNK     0     -10.569   4.028   7.797  0.00  0.00    -0.284 OA
HETATM    3  C   UNK     0     -11.381   4.435   5.621  0.00  0.00     0.084 A 
HETATM    4  C   UNK     0     -12.463   4.894   4.872  0.00  0.00     0.096 A 
HETATM    5  C   UNK     0     -13.726   5.340   6.826  0.00  0.00     0.123 A 
HETATM    6  C   UNK     0     -12.760   4.917   7.661  0.00  0.00     0.152 A 
HETATM    7  C   UNK     0     -11.484   4.424   7.088  0.00  0.00     0.223 A 
HETATM    8  C   UNK     0     -10.219   3.995   4.982  0.00  0.00     0.085 A 
HETATM    9  C   UNK     0     -12.390   4.912   3.479  0.00  0.00     0.075 A 
HETATM   10  C   UNK     0     -11.231   4.473   2.839  0.00  0.00     0.071 A 
HETATM   11  C   UNK     0     -10.148   4.015   3.590  0.00  0.00     0.074 A 
ENDROOT
BRANCH   5  12
HETATM   12  C   UNK     0     -15.026   5.839   7.309  0.00  0.00     0.004 A 
HETATM   13  C   UNK     0     -15.165   7.175   7.683  0.00  0.00     0.053 A 
HETATM   14  C   UNK     0     -16.396   7.648   8.140  0.00  0.00     0.099 A 
HETATM   15  C   UNK     0     -17.488   6.783   8.222  0.00  0.00     0.098 A 
HETATM   16  C   UNK     0     -17.349   5.447   7.846  0.00  0.00     0.040 A 
HETATM   17  C   UNK     0     -16.118   4.974   7.390  0.00  0.00     0.017 A 
BRANCH  14  18
HETATM   18  O   UNK     0     -16.520   8.954   8.505  0.00  0.00    -0.358 OA
HETATM   19  H   UNK     0     -16.469   9.521   7.718  0.00  0.00     0.217 HD
ENDBRANCH  14  18
BRANCH  15  20
HETATM   20  O   UNK     0     -18.696   7.233   8.664  0.00  0.00    -0.358 OA
HETATM   21  H   UNK     0     -18.752   8.193   8.540  0.00  0.00     0.217 HD
ENDBRANCH  15  20
ENDBRANCH   5  12
BRANCH   6  22
HETATM   22  O   UNK     0     -12.902   4.902   9.032  0.00  0.00    -0.355 OA
HETATM   23  H   UNK     0     -13.707   4.416   9.275  0.00  0.00     0.218 HD
ENDBRANCH   6  22
BRANCH   8  24
HETATM   24  O   UNK     0      -9.133   3.537   5.667  0.00  0.00    -0.360 OA
HETATM   25  H   UNK     0      -9.348   2.717   6.136  0.00  0.00     0.217 HD
ENDBRANCH   8  24
BRANCH  10  26
HETATM   26  O   UNK     0     -11.158   4.491   1.479  0.00  0.00    -0.361 OA
HETATM   27  H   UNK     0     -10.289   4.837   1.215  0.00  0.00     0.217 HD
ENDBRANCH  10  26
TORSDOF 6
ENDMDL
MODEL 8
REMARK VINA RESULT:      -3.6     10.005     11.724
REMARK  6 active torsions:
REMARK  status: ('A' for Active; 'I' for Inactive)
REMARK    1  A    between atoms: O_2  and  C_12 
REMARK    2  A    between atoms: O_3  and  C_14 
REMARK    3  A    between atoms: O_5  and  C_16 
REMARK    4  A    between atoms: O_6  and  C_20 
REMARK    5  A    between atoms: O_7  and  C_22 
REMARK    6  A    between atoms: C_10  and  C_11 
ROOT
HETATM    1  O   UNK     0      -4.151  10.730   8.585  0.00  0.00    -0.306 OA
HETATM    2  O   UNK     0      -4.988  13.534  11.420  0.00  0.00    -0.284 OA
HETATM    3  C   UNK     0      -4.550  13.055   9.153  0.00  0.00     0.084 A 
HETATM    4  C   UNK     0      -4.264  12.049   8.232  0.00  0.00     0.096 A 
HETATM    5  C   UNK     0      -4.341  10.381   9.913  0.00  0.00     0.123 A 
HETATM    6  C   UNK     0      -4.613  11.255  10.899  0.00  0.00     0.152 A 
HETATM    7  C   UNK     0      -4.740  12.694  10.566  0.00  0.00     0.223 A 
HETATM    8  C   UNK     0      -4.652  14.385   8.735  0.00  0.00     0.085 A 
HETATM    9  C   UNK     0      -4.076  12.367   6.886  0.00  0.00     0.075 A 
HETATM   10  C   UNK     0      -4.178  13.694   6.466  0.00  0.00     0.071 A 
HETATM   11  C   UNK     0      -4.465  14.700   7.389  0.00  0.00     0.074 A 
ENDROOT
BRANCH   5  12
HETATM   12  C   UNK     0      -4.192   8.935  10.155  0.00  0.00     0.004 A 
HETATM   13  C   UNK     0      -5.300   8.093  10.058  0.00  0.00     0.053 A 
HETATM   14  C   UNK     0      -5.158   6.724  10.287  0.00  0.00     0.099 A 
HETATM   15  C   UNK     0      -3.908   6.198  10.613  0.00  0.00     0.098 A 
HETATM   16  C   UNK     0      -2.800   7.039  10.708  0.00  0.00     0.040 A 
HETATM   17  C   UNK     0      -2.942   8.408  10.479  0.00  0.00     0.017 A 
BRANCH  14  18
HETATM   18  O   UNK     0      -6.247   5.912  10.193  0.00  0.00    -0.358 OA
HETATM   19  H   UNK     0      -7.051   6.449  10.107  0.00  0.00     0.217 HD
ENDBRANCH  14  18
BRANCH  15  20
HETATM   20  O   UNK     0      -3.756   4.862  10.836  0.00  0.00    -0.358 OA
HETATM   21  H   UNK     0      -4.627   4.439  10.894  0.00  0.00     0.217 HD
ENDBRANCH  15  20
ENDBRANCH   5  12
BRANCH   6  22
HETATM   22  O   UNK     0      -4.765  10.879  12.216  0.00  0.00    -0.355 OA
HETATM   23  H   UNK     0      -5.366  10.118  12.276  0.00  0.00     0.218 HD
ENDBRANCH   6  22
BRANCH   8  24
HETATM   24  O   UNK     0      -4.929  15.405   9.594  0.00  0.00    -0.360 OA
HETATM   25  H   UNK     0      -4.588  15.207  10.479  0.00  0.00     0.217 HD
ENDBRANCH   8  24
BRANCH  10  26
HETATM   26  O   UNK     0      -3.996  14.006   5.153  0.00  0.00    -0.361 OA
HETATM   27  H   UNK     0      -4.348  14.898   4.990  0.00  0.00     0.217 HD
ENDBRANCH  10  26
TORSDOF 6
ENDMDL
MODEL 9
REMARK VINA RESULT:      -3.6     11.637     15.238
REMARK  6 active torsions:
REMARK  status: ('A' for Active; 'I' for Inactive)
REMARK    1  A    between atoms: O_2  and  C_12 
REMARK    2  A    between atoms: O_3  and  C_14 
REMARK    3  A    between atoms: O_5  and  C_16 
REMARK    4  A    between atoms: O_6  and  C_20 
REMARK    5  A    between atoms: O_7  and  C_22 
REMARK    6  A    between atoms: C_10  and  C_11 
ROOT
HETATM    1  O   UNK     0     -15.635  12.533  16.175  0.00  0.00    -0.306 OA
HETATM    2  O   UNK     0     -14.009  15.957  14.678  0.00  0.00    -0.284 OA
HETATM    3  C   UNK     0     -14.482  14.632  16.571  0.00  0.00     0.084 A 
HETATM    4  C   UNK     0     -15.056  13.444  17.019  0.00  0.00     0.096 A 
HETATM    5  C   UNK     0     -15.638  12.800  14.815  0.00  0.00     0.123 A 
HETATM    6  C   UNK     0     -15.125  13.911  14.255  0.00  0.00     0.152 A 
HETATM    7  C   UNK     0     -14.493  14.928  15.130  0.00  0.00     0.223 A 
HETATM    8  C   UNK     0     -13.907  15.524  17.479  0.00  0.00     0.085 A 
HETATM    9  C   UNK     0     -15.060  13.142  18.382  0.00  0.00     0.075 A 
HETATM   10  C   UNK     0     -14.487  14.031  19.291  0.00  0.00     0.071 A 
HETATM   11  C   UNK     0     -13.912  15.219  18.840  0.00  0.00     0.074 A 
ENDROOT
BRANCH   5  12
HETATM   12  C   UNK     0     -16.289  11.742  14.022  0.00  0.00     0.004 A 
HETATM   13  C   UNK     0     -15.570  10.607  13.649  0.00  0.00     0.053 A 
HETATM   14  C   UNK     0     -16.187   9.606  12.898  0.00  0.00     0.099 A 
HETATM   15  C   UNK     0     -17.524   9.741  12.521  0.00  0.00     0.098 A 
HETATM   16  C   UNK     0     -18.243  10.875  12.895  0.00  0.00     0.040 A 
HETATM   17  C   UNK     0     -17.626  11.877  13.645  0.00  0.00     0.017 A 
BRANCH  14  18
HETATM   18  O   UNK     0     -15.475   8.503  12.537  0.00  0.00    -0.358 OA
HETATM   19  H   UNK     0     -15.611   7.796  13.190  0.00  0.00     0.217 HD
ENDBRANCH  14  18
BRANCH  15  20
HETATM   20  O   UNK     0     -18.138   8.768  11.790  0.00  0.00    -0.358 OA
HETATM   21  H   UNK     0     -18.405   8.040  12.373  0.00  0.00     0.217 HD
ENDBRANCH  15  20
ENDBRANCH   5  12
BRANCH   6  22
HETATM   22  O   UNK     0     -15.173  14.162  12.900  0.00  0.00    -0.355 OA
HETATM   23  H   UNK     0     -14.439  14.745  12.647  0.00  0.00     0.218 HD
ENDBRANCH   6  22
BRANCH   8  24
HETATM   24  O   UNK     0     -13.334  16.698  17.093  0.00  0.00    -0.360 OA
HETATM   25  H   UNK     0     -13.347  16.782  16.128  0.00  0.00     0.217 HD
ENDBRANCH   8  24
BRANCH  10  26
HETATM   26  O   UNK     0     -14.490  13.737  20.621  0.00  0.00    -0.361 OA
HETATM   27  H   UNK     0     -15.035  12.944  20.767  0.00  0.00     0.217 HD
ENDBRANCH  10  26
TORSDOF 6
ENDMDL
MODEL 10
REMARK VINA RESULT:      -3.6      2.323      7.036
REMARK  6 active torsions:
REMARK  status: ('A' for Active; 'I' for Inactive)
REMARK    1  A    between atoms: O_2  and  C_12 
REMARK    2  A    between atoms: O_3  and  C_14 
REMARK    3  A    between atoms: O_5  and  C_16 
REMARK    4  A    between atoms: O_6  and  C_20 
REMARK    5  A    between atoms: O_7  and  C_22 
REMARK    6  A    between atoms: C_10  and  C_11 
ROOT
HETATM    1  O   UNK     0     -13.891   4.689   5.075  0.00  0.00    -0.306 OA
HETATM    2  O   UNK     0      -9.830   4.556   5.386  0.00  0.00    -0.284 OA
HETATM    3  C   UNK     0     -11.738   4.304   4.023  0.00  0.00     0.084 A 
HETATM    4  C   UNK     0     -13.130   4.366   3.983  0.00  0.00     0.096 A 
HETATM    5  C   UNK     0     -13.247   4.979   6.268  0.00  0.00     0.123 A 
HETATM    6  C   UNK     0     -11.913   4.948   6.442  0.00  0.00     0.152 A 
HETATM    7  C   UNK     0     -11.049   4.599   5.289  0.00  0.00     0.223 A 
HETATM    8  C   UNK     0     -11.014   3.967   2.877  0.00  0.00     0.085 A 
HETATM    9  C   UNK     0     -13.806   4.088   2.794  0.00  0.00     0.075 A 
HETATM   10  C   UNK     0     -13.086   3.752   1.648  0.00  0.00     0.071 A 
HETATM   11  C   UNK     0     -11.693   3.692   1.690  0.00  0.00     0.074 A 
ENDROOT
BRANCH   5  12
HETATM   12  C   UNK     0     -14.180   5.310   7.360  0.00  0.00     0.004 A 
HETATM   13  C   UNK     0     -14.592   6.629   7.550  0.00  0.00     0.053 A 
HETATM   14  C   UNK     0     -15.476   6.942   8.583  0.00  0.00     0.099 A 
HETATM   15  C   UNK     0     -15.946   5.935   9.427  0.00  0.00     0.098 A 
HETATM   16  C   UNK     0     -15.535   4.616   9.236  0.00  0.00     0.040 A 
HETATM   17  C   UNK     0     -14.651   4.303   8.203  0.00  0.00     0.017 A 
BRANCH  14  18
HETATM   18  O   UNK     0     -15.870   8.233   8.761  0.00  0.00    -0.358 OA
HETATM   19  H   UNK     0     -15.644   8.757   7.975  0.00  0.00     0.217 HD
ENDBRANCH  14  18
BRANCH  15  20
HETATM   20  O   UNK     0     -16.811   6.228  10.438  0.00  0.00    -0.358 OA
HETATM   21  H   UNK     0     -16.375   6.802  11.086  0.00  0.00     0.217 HD
ENDBRANCH  15  20
ENDBRANCH   5  12
BRANCH   6  22
HETATM   22  O   UNK     0     -11.305   5.211   7.650  0.00  0.00    -0.355 OA
HETATM   23  H   UNK     0     -11.798   5.900   8.125  0.00  0.00     0.218 HD
ENDBRANCH   6  22
BRANCH   8  24
HETATM   24  O   UNK     0      -9.653   3.894   2.862  0.00  0.00    -0.360 OA
HETATM   25  H   UNK     0      -9.326   3.492   3.681  0.00  0.00     0.217 HD
ENDBRANCH   8  24
BRANCH  10  26
HETATM   26  O   UNK     0     -13.745   3.481   0.487  0.00  0.00    -0.361 OA
HETATM   27  H   UNK     0     -13.657   4.244  -0.110  0.00  0.00     0.217 HD
ENDBRANCH  10  26
TORSDOF 6
ENDMDL
