MODEL 1
REMARK VINA RESULT:      -8.1      0.000      0.000
REMARK  13 active torsions:
REMARK  status: ('A' for Active; 'I' for Inactive)
REMARK    1  A    between atoms: C_2  and  O_12 
REMARK    2  A    between atoms: C_3  and  O_10 
REMARK    3  A    between atoms: C_4  and  O_8 
REMARK    4  A    between atoms: C_5  and  O_6 
REMARK    5  A    between atoms: C_22  and  C_23 
REMARK    6  A    between atoms: O_12  and  C_13 
REMARK    7  A    between atoms: C_13  and  C_14 
REMARK    8  A    between atoms: C_15  and  C_16 
REMARK    9  A    between atoms: C_23  and  O_24 
REMARK   10  A    between atoms: O_24  and  C_25 
REMARK   11  A    between atoms: C_26  and  O_34 
REMARK   12  A    between atoms: C_27  and  O_32 
REMARK   13  A    between atoms: C_28  and  O_30 
ROOT
ATOM      1  O   LIG     1     152.868 155.511 151.640  0.00  0.00    -0.341 OA
ATOM      2  C   LIG     1     153.195 154.160 151.955  0.00  0.00     0.282 C 
ATOM      3  C   LIG     1     154.660 153.872 151.622  0.00  0.00     0.201 C 
ATOM      4  C   LIG     1     155.592 154.879 152.293  0.00  0.00     0.179 C 
ATOM      5  C   LIG     1     155.116 156.313 152.064  0.00  0.00     0.177 C 
ATOM      6  C   LIG     1     153.629 156.452 152.399  0.00  0.00     0.178 C 
ENDROOT
BRANCH   6   7
ATOM      7  C   LIG     1     153.102 157.845 152.068  0.00  0.00     0.197 C 
BRANCH   7   8
ATOM      8  O   LIG     1     154.074 158.520 151.290  0.00  0.00    -0.346 OA
BRANCH   8   9
ATOM      9  C   LIG     1     153.559 158.904 150.019  0.00  0.00     0.281 C 
ATOM     10  O   LIG     1     153.815 157.915 149.016  0.00  0.00    -0.346 OA
ATOM     11  C   LIG     1     155.197 157.759 148.701  0.00  0.00     0.197 C 
ATOM     12  C   LIG     1     155.777 159.063 148.169  0.00  0.00     0.171 C 
ATOM     13  C   LIG     1     155.592 160.190 149.187  0.00  0.00     0.178 C 
ATOM     14  C   LIG     1     154.124 160.276 149.619  0.00  0.00     0.201 C 
BRANCH  12  15
ATOM     15  O   LIG     1     157.157 158.906 147.869  0.00  0.00    -0.387 OA
ATOM     16  H   LIG     1     157.656 159.485 148.470  0.00  0.00     0.210 HD
ENDBRANCH  12  15
BRANCH  13  17
ATOM     17  O   LIG     1     156.411 159.935 150.327  0.00  0.00    -0.386 OA
ATOM     18  H   LIG     1     155.864 160.078 151.118  0.00  0.00     0.210 HD
ENDBRANCH  13  17
BRANCH  14  19
ATOM     19  O   LIG     1     153.342 160.776 148.537  0.00  0.00    -0.384 OA
ATOM     20  H   LIG     1     153.931 160.941 147.782  0.00  0.00     0.210 HD
ENDBRANCH  14  19
ENDBRANCH   8   9
ENDBRANCH   7   8
ENDBRANCH   6   7
BRANCH   5  21
ATOM     21  O   LIG     1     155.870 157.198 152.888  0.00  0.00    -0.386 OA
ATOM     22  H   LIG     1     156.097 157.981 152.357  0.00  0.00     0.210 HD
ENDBRANCH   5  21
BRANCH   2  23
ATOM     23  O   LIG     1     152.385 153.275 151.185  0.00  0.00    -0.345 OA
BRANCH  23  24
ATOM     24  C   LIG     1     152.346 153.665 149.821  0.00  0.00     0.190 C 
BRANCH  24  25
ATOM     25  C   LIG     1     152.470 152.444 148.967  0.00  0.00     0.001 C 
ATOM     26  C   LIG     1     151.599 152.135 147.994  0.00  0.00     0.006 C 
BRANCH  26  27
ATOM     27  C   LIG     1     151.689 150.953 147.119  0.00  0.00    -0.025 A 
ATOM     28  C   LIG     1     150.538 150.456 146.529  0.00  0.00     0.008 A 
ATOM     29  C   LIG     1     150.623 149.337 145.700  0.00  0.00     0.001 A 
ATOM     30  C   LIG     1     151.857 148.729 145.474  0.00  0.00     0.000 A 
ATOM     31  C   LIG     1     153.008 149.240 146.075  0.00  0.00     0.001 A 
ATOM     32  C   LIG     1     152.922 150.359 146.903  0.00  0.00     0.008 A 
ENDBRANCH  26  27
ENDBRANCH  24  25
ENDBRANCH  23  24
ENDBRANCH   2  23
BRANCH   4  33
ATOM     33  O   LIG     1     156.904 154.755 151.739  0.00  0.00    -0.386 OA
ATOM     34  H   LIG     1     157.062 155.541 151.189  0.00  0.00     0.210 HD
ENDBRANCH   4  33
BRANCH   3  35
ATOM     35  O   LIG     1     154.972 152.557 152.080  0.00  0.00    -0.384 OA
ATOM     36  H   LIG     1     154.248 152.258 152.656  0.00  0.00     0.210 HD
ENDBRANCH   3  35
TORSDOF 13
ENDMDL
MODEL 2
REMARK VINA RESULT:      -8.1      1.598      2.261
REMARK  13 active torsions:
REMARK  status: ('A' for Active; 'I' for Inactive)
REMARK    1  A    between atoms: C_2  and  O_12 
REMARK    2  A    between atoms: C_3  and  O_10 
REMARK    3  A    between atoms: C_4  and  O_8 
REMARK    4  A    between atoms: C_5  and  O_6 
REMARK    5  A    between atoms: C_22  and  C_23 
REMARK    6  A    between atoms: O_12  and  C_13 
REMARK    7  A    between atoms: C_13  and  C_14 
REMARK    8  A    between atoms: C_15  and  C_16 
REMARK    9  A    between atoms: C_23  and  O_24 
REMARK   10  A    between atoms: O_24  and  C_25 
REMARK   11  A    between atoms: C_26  and  O_34 
REMARK   12  A    between atoms: C_27  and  O_32 
REMARK   13  A    between atoms: C_28  and  O_30 
ROOT
ATOM      1  O   LIG     1     153.613 155.621 150.342  0.00  0.00    -0.341 OA
ATOM      2  C   LIG     1     153.981 154.260 150.552  0.00  0.00     0.282 C 
ATOM      3  C   LIG     1     155.209 154.171 151.459  0.00  0.00     0.201 C 
ATOM      4  C   LIG     1     154.993 154.934 152.765  0.00  0.00     0.179 C 
ATOM      5  C   LIG     1     154.446 156.337 152.503  0.00  0.00     0.177 C 
ATOM      6  C   LIG     1     153.247 156.283 151.553  0.00  0.00     0.178 C 
ENDROOT
BRANCH   6   7
ATOM      7  C   LIG     1     152.755 157.680 151.184  0.00  0.00     0.197 C 
BRANCH   7   8
ATOM      8  O   LIG     1     153.511 158.147 150.082  0.00  0.00    -0.346 OA
BRANCH   8   9
ATOM      9  C   LIG     1     154.393 159.201 150.455  0.00  0.00     0.281 C 
ATOM     10  O   LIG     1     154.017 160.450 149.865  0.00  0.00    -0.346 OA
ATOM     11  C   LIG     1     154.157 160.482 148.447  0.00  0.00     0.197 C 
ATOM     12  C   LIG     1     155.607 160.243 148.045  0.00  0.00     0.171 C 
ATOM     13  C   LIG     1     156.106 158.905 148.594  0.00  0.00     0.178 C 
ATOM     14  C   LIG     1     155.840 158.821 150.101  0.00  0.00     0.201 C 
BRANCH  12  15
ATOM     15  O   LIG     1     155.740 160.263 146.631  0.00  0.00    -0.387 OA
ATOM     16  H   LIG     1     155.021 160.814 146.276  0.00  0.00     0.210 HD
ENDBRANCH  12  15
BRANCH  13  17
ATOM     17  O   LIG     1     155.427 157.841 147.930  0.00  0.00    -0.386 OA
ATOM     18  H   LIG     1     154.524 158.146 147.734  0.00  0.00     0.210 HD
ENDBRANCH  13  17
BRANCH  14  19
ATOM     19  O   LIG     1     156.710 159.720 150.785  0.00  0.00    -0.384 OA
ATOM     20  H   LIG     1     157.341 159.198 151.308  0.00  0.00     0.210 HD
ENDBRANCH  14  19
ENDBRANCH   8   9
ENDBRANCH   7   8
ENDBRANCH   6   7
BRANCH   5  21
ATOM     21  O   LIG     1     154.044 156.925 153.737  0.00  0.00    -0.386 OA
ATOM     22  H   LIG     1     154.525 156.475 154.454  0.00  0.00     0.210 HD
ENDBRANCH   5  21
BRANCH   2  23
ATOM     23  O   LIG     1     154.309 153.651 149.305  0.00  0.00    -0.345 OA
BRANCH  23  24
ATOM     24  C   LIG     1     153.251 152.831 148.836  0.00  0.00     0.190 C 
BRANCH  24  25
ATOM     25  C   LIG     1     153.676 152.178 147.560  0.00  0.00     0.001 C 
ATOM     26  C   LIG     1     153.216 150.986 147.152  0.00  0.00     0.006 C 
BRANCH  26  27
ATOM     27  C   LIG     1     153.594 150.312 145.898  0.00  0.00    -0.025 A 
ATOM     28  C   LIG     1     153.997 151.074 144.813  0.00  0.00     0.008 A 
ATOM     29  C   LIG     1     154.356 150.436 143.626  0.00  0.00     0.001 A 
ATOM     30  C   LIG     1     154.306 149.045 143.539  0.00  0.00     0.000 A 
ATOM     31  C   LIG     1     153.899 148.291 144.639  0.00  0.00     0.001 A 
ATOM     32  C   LIG     1     153.540 148.929 145.827  0.00  0.00     0.008 A 
ENDBRANCH  26  27
ENDBRANCH  24  25
ENDBRANCH  23  24
ENDBRANCH   2  23
BRANCH   4  33
ATOM     33  O   LIG     1     156.240 155.068 153.450  0.00  0.00    -0.386 OA
ATOM     34  H   LIG     1     156.666 155.878 153.123  0.00  0.00     0.210 HD
ENDBRANCH   4  33
BRANCH   3  35
ATOM     35  O   LIG     1     155.453 152.795 151.748  0.00  0.00    -0.384 OA
ATOM     36  H   LIG     1     154.664 152.435 152.186  0.00  0.00     0.210 HD
ENDBRANCH   3  35
TORSDOF 13
ENDMDL
MODEL 3
REMARK VINA RESULT:      -8.0      2.904      4.200
REMARK  13 active torsions:
REMARK  status: ('A' for Active; 'I' for Inactive)
REMARK    1  A    between atoms: C_2  and  O_12 
REMARK    2  A    between atoms: C_3  and  O_10 
REMARK    3  A    between atoms: C_4  and  O_8 
REMARK    4  A    between atoms: C_5  and  O_6 
REMARK    5  A    between atoms: C_22  and  C_23 
REMARK    6  A    between atoms: O_12  and  C_13 
REMARK    7  A    between atoms: C_13  and  C_14 
REMARK    8  A    between atoms: C_15  and  C_16 
REMARK    9  A    between atoms: C_23  and  O_24 
REMARK   10  A    between atoms: O_24  and  C_25 
REMARK   11  A    between atoms: C_26  and  O_34 
REMARK   12  A    between atoms: C_27  and  O_32 
REMARK   13  A    between atoms: C_28  and  O_30 
ROOT
ATOM      1  O   LIG     1     152.931 155.905 151.246  0.00  0.00    -0.341 OA
ATOM      2  C   LIG     1     153.146 154.516 151.487  0.00  0.00     0.282 C 
ATOM      3  C   LIG     1     154.625 154.166 151.320  0.00  0.00     0.201 C 
ATOM      4  C   LIG     1     155.510 155.060 152.187  0.00  0.00     0.179 C 
ATOM      5  C   LIG     1     155.141 156.534 152.020  0.00  0.00     0.177 C 
ATOM      6  C   LIG     1     153.631 156.737 152.173  0.00  0.00     0.178 C 
ENDROOT
BRANCH   6   7
ATOM      7  C   LIG     1     153.224 158.181 151.894  0.00  0.00     0.197 C 
BRANCH   7   8
ATOM      8  O   LIG     1     154.207 158.774 151.065  0.00  0.00    -0.346 OA
BRANCH   8   9
ATOM      9  C   LIG     1     153.690 159.089 149.776  0.00  0.00     0.281 C 
ATOM     10  O   LIG     1     153.994 158.074 148.813  0.00  0.00    -0.346 OA
ATOM     11  C   LIG     1     155.384 157.961 148.516  0.00  0.00     0.197 C 
ATOM     12  C   LIG     1     155.917 159.266 147.940  0.00  0.00     0.171 C 
ATOM     13  C   LIG     1     155.678 160.422 148.912  0.00  0.00     0.178 C 
ATOM     14  C   LIG     1     154.204 160.466 149.329  0.00  0.00     0.201 C 
BRANCH  12  15
ATOM     15  O   LIG     1     157.305 159.152 147.657  0.00  0.00    -0.387 OA
ATOM     16  H   LIG     1     157.430 158.354 147.116  0.00  0.00     0.210 HD
ENDBRANCH  12  15
BRANCH  13  17
ATOM     17  O   LIG     1     156.496 160.243 150.067  0.00  0.00    -0.386 OA
ATOM     18  H   LIG     1     156.498 159.294 150.280  0.00  0.00     0.210 HD
ENDBRANCH  13  17
BRANCH  14  19
ATOM     19  O   LIG     1     153.414 160.893 148.222  0.00  0.00    -0.384 OA
ATOM     20  H   LIG     1     153.896 161.593 147.751  0.00  0.00     0.210 HD
ENDBRANCH  14  19
ENDBRANCH   8   9
ENDBRANCH   7   8
ENDBRANCH   6   7
BRANCH   5  21
ATOM     21  O   LIG     1     155.823 157.306 153.005  0.00  0.00    -0.386 OA
ATOM     22  H   LIG     1     155.970 158.195 152.639  0.00  0.00     0.210 HD
ENDBRANCH   5  21
BRANCH   2  23
ATOM     23  O   LIG     1     152.401 153.744 150.547  0.00  0.00    -0.345 OA
BRANCH  23  24
ATOM     24  C   LIG     1     151.134 153.377 151.068  0.00  0.00     0.190 C 
BRANCH  24  25
ATOM     25  C   LIG     1     150.088 154.246 150.448  0.00  0.00     0.001 C 
ATOM     26  C   LIG     1     148.945 154.579 151.067  0.00  0.00     0.006 C 
BRANCH  26  27
ATOM     27  C   LIG     1     147.894 155.443 150.501  0.00  0.00    -0.025 A 
ATOM     28  C   LIG     1     146.716 154.871 150.046  0.00  0.00     0.008 A 
ATOM     29  C   LIG     1     145.722 155.689 149.512  0.00  0.00     0.001 A 
ATOM     30  C   LIG     1     145.917 157.068 149.437  0.00  0.00     0.000 A 
ATOM     31  C   LIG     1     147.107 157.630 149.898  0.00  0.00     0.001 A 
ATOM     32  C   LIG     1     148.102 156.811 150.434  0.00  0.00     0.008 A 
ENDBRANCH  26  27
ENDBRANCH  24  25
ENDBRANCH  23  24
ENDBRANCH   2  23
BRANCH   4  33
ATOM     33  O   LIG     1     156.875 154.900 151.798  0.00  0.00    -0.386 OA
ATOM     34  H   LIG     1     156.887 154.334 151.007  0.00  0.00     0.210 HD
ENDBRANCH   4  33
BRANCH   3  35
ATOM     35  O   LIG     1     154.807 152.803 151.704  0.00  0.00    -0.384 OA
ATOM     36  H   LIG     1     154.501 152.241 150.972  0.00  0.00     0.210 HD
ENDBRANCH   3  35
TORSDOF 13
ENDMDL
MODEL 4
REMARK VINA RESULT:      -8.0      4.584      7.982
REMARK  13 active torsions:
REMARK  status: ('A' for Active; 'I' for Inactive)
REMARK    1  A    between atoms: C_2  and  O_12 
REMARK    2  A    between atoms: C_3  and  O_10 
REMARK    3  A    between atoms: C_4  and  O_8 
REMARK    4  A    between atoms: C_5  and  O_6 
REMARK    5  A    between atoms: C_22  and  C_23 
REMARK    6  A    between atoms: O_12  and  C_13 
REMARK    7  A    between atoms: C_13  and  C_14 
REMARK    8  A    between atoms: C_15  and  C_16 
REMARK    9  A    between atoms: C_23  and  O_24 
REMARK   10  A    between atoms: O_24  and  C_25 
REMARK   11  A    between atoms: C_26  and  O_34 
REMARK   12  A    between atoms: C_27  and  O_32 
REMARK   13  A    between atoms: C_28  and  O_30 
ROOT
ATOM      1  O   LIG     1     152.864 149.537 146.274  0.00  0.00    -0.341 OA
ATOM      2  C   LIG     1     153.874 148.886 145.508  0.00  0.00     0.282 C 
ATOM      3  C   LIG     1     153.932 149.467 144.094  0.00  0.00     0.201 C 
ATOM      4  C   LIG     1     154.097 150.986 144.123  0.00  0.00     0.179 C 
ATOM      5  C   LIG     1     153.097 151.634 145.080  0.00  0.00     0.177 C 
ATOM      6  C   LIG     1     153.116 150.934 146.441  0.00  0.00     0.178 C 
ENDROOT
BRANCH   6   7
ATOM      7  C   LIG     1     152.044 151.487 147.376  0.00  0.00     0.197 C 
BRANCH   7   8
ATOM      8  O   LIG     1     152.654 151.833 148.606  0.00  0.00    -0.346 OA
BRANCH   8   9
ATOM      9  C   LIG     1     151.907 152.822 149.306  0.00  0.00     0.281 C 
ATOM     10  O   LIG     1     152.604 154.072 149.376  0.00  0.00    -0.346 OA
ATOM     11  C   LIG     1     153.787 154.027 150.170  0.00  0.00     0.197 C 
ATOM     12  C   LIG     1     153.454 153.646 151.607  0.00  0.00     0.171 C 
ATOM     13  C   LIG     1     152.736 152.296 151.655  0.00  0.00     0.178 C 
ATOM     14  C   LIG     1     151.535 152.304 150.703  0.00  0.00     0.201 C 
BRANCH  12  15
ATOM     15  O   LIG     1     154.638 153.591 152.391  0.00  0.00    -0.387 OA
ATOM     16  H   LIG     1     154.637 154.366 152.979  0.00  0.00     0.210 HD
ENDBRANCH  12  15
BRANCH  13  17
ATOM     17  O   LIG     1     153.644 151.265 151.269  0.00  0.00    -0.386 OA
ATOM     18  H   LIG     1     154.098 151.562 150.461  0.00  0.00     0.210 HD
ENDBRANCH  13  17
BRANCH  14  19
ATOM     19  O   LIG     1     150.519 153.153 151.232  0.00  0.00    -0.384 OA
ATOM     20  H   LIG     1     150.745 153.367 152.153  0.00  0.00     0.210 HD
ENDBRANCH  14  19
ENDBRANCH   8   9
ENDBRANCH   7   8
ENDBRANCH   6   7
BRANCH   5  21
ATOM     21  O   LIG     1     153.432 153.009 145.252  0.00  0.00    -0.386 OA
ATOM     22  H   LIG     1     152.894 153.528 144.629  0.00  0.00     0.210 HD
ENDBRANCH   5  21
BRANCH   2  23
ATOM     23  O   LIG     1     153.577 147.495 145.401  0.00  0.00    -0.345 OA
BRANCH  23  24
ATOM     24  C   LIG     1     152.192 147.247 145.580  0.00  0.00     0.190 C 
BRANCH  24  25
ATOM     25  C   LIG     1     151.822 146.013 144.823  0.00  0.00     0.001 C 
ATOM     26  C   LIG     1     152.247 145.758 143.576  0.00  0.00     0.006 C 
BRANCH  26  27
ATOM     27  C   LIG     1     151.920 144.551 142.797  0.00  0.00    -0.025 A 
ATOM     28  C   LIG     1     151.083 144.657 141.698  0.00  0.00     0.008 A 
ATOM     29  C   LIG     1     150.774 143.514 140.962  0.00  0.00     0.001 A 
ATOM     30  C   LIG     1     151.305 142.279 141.334  0.00  0.00     0.000 A 
ATOM     31  C   LIG     1     152.146 142.187 142.442  0.00  0.00     0.001 A 
ATOM     32  C   LIG     1     152.455 143.331 143.179  0.00  0.00     0.008 A 
ENDBRANCH  26  27
ENDBRANCH  24  25
ENDBRANCH  23  24
ENDBRANCH   2  23
BRANCH   4  33
ATOM     33  O   LIG     1     153.864 151.514 142.816  0.00  0.00    -0.386 OA
ATOM     34  H   LIG     1     153.997 150.790 142.181  0.00  0.00     0.210 HD
ENDBRANCH   4  33
BRANCH   3  35
ATOM     35  O   LIG     1     155.043 148.882 143.416  0.00  0.00    -0.384 OA
ATOM     36  H   LIG     1     154.856 148.898 142.462  0.00  0.00     0.210 HD
ENDBRANCH   3  35
TORSDOF 13
ENDMDL
MODEL 5
REMARK VINA RESULT:      -7.9      3.432      6.188
REMARK  13 active torsions:
REMARK  status: ('A' for Active; 'I' for Inactive)
REMARK    1  A    between atoms: C_2  and  O_12 
REMARK    2  A    between atoms: C_3  and  O_10 
REMARK    3  A    between atoms: C_4  and  O_8 
REMARK    4  A    between atoms: C_5  and  O_6 
REMARK    5  A    between atoms: C_22  and  C_23 
REMARK    6  A    between atoms: O_12  and  C_13 
REMARK    7  A    between atoms: C_13  and  C_14 
REMARK    8  A    between atoms: C_15  and  C_16 
REMARK    9  A    between atoms: C_23  and  O_24 
REMARK   10  A    between atoms: O_24  and  C_25 
REMARK   11  A    between atoms: C_26  and  O_34 
REMARK   12  A    between atoms: C_27  and  O_32 
REMARK   13  A    between atoms: C_28  and  O_30 
ROOT
ATOM      1  O   LIG     1     150.955 152.433 147.687  0.00  0.00    -0.341 OA
ATOM      2  C   LIG     1     150.930 151.063 147.292  0.00  0.00     0.282 C 
ATOM      3  C   LIG     1     152.113 150.748 146.377  0.00  0.00     0.201 C 
ATOM      4  C   LIG     1     153.438 151.154 147.021  0.00  0.00     0.179 C 
ATOM      5  C   LIG     1     153.372 152.577 147.574  0.00  0.00     0.177 C 
ATOM      6  C   LIG     1     152.123 152.766 148.439  0.00  0.00     0.178 C 
ENDROOT
BRANCH   6   7
ATOM      7  C   LIG     1     151.973 154.210 148.908  0.00  0.00     0.197 C 
BRANCH   7   8
ATOM      8  O   LIG     1     153.086 154.537 149.721  0.00  0.00    -0.346 OA
BRANCH   8   9
ATOM      9  C   LIG     1     152.854 154.214 151.088  0.00  0.00     0.281 C 
ATOM     10  O   LIG     1     152.652 155.383 151.890  0.00  0.00    -0.346 OA
ATOM     11  C   LIG     1     153.811 156.206 152.008  0.00  0.00     0.197 C 
ATOM     12  C   LIG     1     154.951 155.435 152.662  0.00  0.00     0.171 C 
ATOM     13  C   LIG     1     155.280 154.175 151.859  0.00  0.00     0.178 C 
ATOM     14  C   LIG     1     154.008 153.353 151.625  0.00  0.00     0.201 C 
BRANCH  12  15
ATOM     15  O   LIG     1     156.107 156.255 152.767  0.00  0.00    -0.387 OA
ATOM     16  H   LIG     1     155.812 157.150 153.006  0.00  0.00     0.210 HD
ENDBRANCH  12  15
BRANCH  13  17
ATOM     17  O   LIG     1     155.845 154.549 150.604  0.00  0.00    -0.386 OA
ATOM     18  H   LIG     1     155.409 155.372 150.321  0.00  0.00     0.210 HD
ENDBRANCH  13  17
BRANCH  14  19
ATOM     19  O   LIG     1     153.588 152.771 152.856  0.00  0.00    -0.384 OA
ATOM     20  H   LIG     1     152.750 152.303 152.706  0.00  0.00     0.210 HD
ENDBRANCH  14  19
ENDBRANCH   8   9
ENDBRANCH   7   8
ENDBRANCH   6   7
BRANCH   5  21
ATOM     21  O   LIG     1     154.533 152.832 148.361  0.00  0.00    -0.386 OA
ATOM     22  H   LIG     1     155.267 152.314 147.988  0.00  0.00     0.210 HD
ENDBRANCH   5  21
BRANCH   2  23
ATOM     23  O   LIG     1     149.730 150.791 146.571  0.00  0.00    -0.345 OA
BRANCH  23  24
ATOM     24  C   LIG     1     149.503 151.761 145.560  0.00  0.00     0.190 C 
BRANCH  24  25
ATOM     25  C   LIG     1     149.088 151.062 144.306  0.00  0.00     0.001 C 
ATOM     26  C   LIG     1     148.018 150.255 144.232  0.00  0.00     0.006 C 
BRANCH  26  27
ATOM     27  C   LIG     1     147.563 149.558 143.016  0.00  0.00    -0.025 A 
ATOM     28  C   LIG     1     148.425 148.686 142.371  0.00  0.00     0.008 A 
ATOM     29  C   LIG     1     147.993 148.026 141.221  0.00  0.00     0.001 A 
ATOM     30  C   LIG     1     146.707 148.247 140.730  0.00  0.00     0.000 A 
ATOM     31  C   LIG     1     145.851 149.128 141.390  0.00  0.00     0.001 A 
ATOM     32  C   LIG     1     146.282 149.788 142.541  0.00  0.00     0.008 A 
ENDBRANCH  26  27
ENDBRANCH  24  25
ENDBRANCH  23  24
ENDBRANCH   2  23
BRANCH   4  33
ATOM     33  O   LIG     1     154.477 151.110 146.040  0.00  0.00    -0.386 OA
ATOM     34  H   LIG     1     155.230 151.614 146.392  0.00  0.00     0.210 HD
ENDBRANCH   4  33
BRANCH   3  35
ATOM     35  O   LIG     1     152.120 149.344 146.123  0.00  0.00    -0.384 OA
ATOM     36  H   LIG     1     151.731 149.195 145.245  0.00  0.00     0.210 HD
ENDBRANCH   3  35
TORSDOF 13
ENDMDL
MODEL 6
REMARK VINA RESULT:      -7.9      3.618      6.761
REMARK  13 active torsions:
REMARK  status: ('A' for Active; 'I' for Inactive)
REMARK    1  A    between atoms: C_2  and  O_12 
REMARK    2  A    between atoms: C_3  and  O_10 
REMARK    3  A    between atoms: C_4  and  O_8 
REMARK    4  A    between atoms: C_5  and  O_6 
REMARK    5  A    between atoms: C_22  and  C_23 
REMARK    6  A    between atoms: O_12  and  C_13 
REMARK    7  A    between atoms: C_13  and  C_14 
REMARK    8  A    between atoms: C_15  and  C_16 
REMARK    9  A    between atoms: C_23  and  O_24 
REMARK   10  A    between atoms: O_24  and  C_25 
REMARK   11  A    between atoms: C_26  and  O_34 
REMARK   12  A    between atoms: C_27  and  O_32 
REMARK   13  A    between atoms: C_28  and  O_30 
ROOT
ATOM      1  O   LIG     1     153.109 156.396 150.864  0.00  0.00    -0.341 OA
ATOM      2  C   LIG     1     153.268 157.716 150.349  0.00  0.00     0.282 C 
ATOM      3  C   LIG     1     153.821 158.648 151.428  0.00  0.00     0.201 C 
ATOM      4  C   LIG     1     155.106 158.092 152.040  0.00  0.00     0.179 C 
ATOM      5  C   LIG     1     154.942 156.625 152.433  0.00  0.00     0.177 C 
ATOM      6  C   LIG     1     154.347 155.815 151.278  0.00  0.00     0.178 C 
ENDROOT
BRANCH   6   7
ATOM      7  C   LIG     1     154.066 154.372 151.685  0.00  0.00     0.197 C 
BRANCH   7   8
ATOM      8  O   LIG     1     153.863 153.605 150.513  0.00  0.00    -0.346 OA
BRANCH   8   9
ATOM      9  C   LIG     1     152.865 152.607 150.701  0.00  0.00     0.281 C 
ATOM     10  O   LIG     1     152.914 151.600 149.683  0.00  0.00    -0.346 OA
ATOM     11  C   LIG     1     152.565 152.077 148.386  0.00  0.00     0.197 C 
ATOM     12  C   LIG     1     151.142 152.619 148.378  0.00  0.00     0.171 C 
ATOM     13  C   LIG     1     150.985 153.738 149.410  0.00  0.00     0.178 C 
ATOM     14  C   LIG     1     151.478 153.263 150.781  0.00  0.00     0.201 C 
BRANCH  12  15
ATOM     15  O   LIG     1     150.803 153.104 147.086  0.00  0.00    -0.387 OA
ATOM     16  H   LIG     1     150.822 154.076 147.122  0.00  0.00     0.210 HD
ENDBRANCH  12  15
BRANCH  13  17
ATOM     17  O   LIG     1     151.745 154.871 148.995  0.00  0.00    -0.386 OA
ATOM     18  H   LIG     1     151.236 155.328 148.303  0.00  0.00     0.210 HD
ENDBRANCH  13  17
BRANCH  14  19
ATOM     19  O   LIG     1     150.565 152.301 151.304  0.00  0.00    -0.384 OA
ATOM     20  H   LIG     1     149.796 152.253 150.712  0.00  0.00     0.210 HD
ENDBRANCH  14  19
ENDBRANCH   8   9
ENDBRANCH   7   8
ENDBRANCH   6   7
BRANCH   5  21
ATOM     21  O   LIG     1     156.215 156.084 152.781  0.00  0.00    -0.386 OA
ATOM     22  H   LIG     1     156.226 155.149 152.514  0.00  0.00     0.210 HD
ENDBRANCH   5  21
BRANCH   2  23
ATOM     23  O   LIG     1     152.004 158.226 149.931  0.00  0.00    -0.345 OA
BRANCH  23  24
ATOM     24  C   LIG     1     151.076 158.250 151.003  0.00  0.00     0.190 C 
BRANCH  24  25
ATOM     25  C   LIG     1     149.693 158.130 150.447  0.00  0.00     0.001 C 
ATOM     26  C   LIG     1     148.923 157.044 150.612  0.00  0.00     0.006 C 
BRANCH  26  27
ATOM     27  C   LIG     1     147.553 156.888 150.095  0.00  0.00    -0.025 A 
ATOM     28  C   LIG     1     147.036 155.614 149.915  0.00  0.00     0.008 A 
ATOM     29  C   LIG     1     145.738 155.467 149.426  0.00  0.00     0.001 A 
ATOM     30  C   LIG     1     144.975 156.594 149.122  0.00  0.00     0.000 A 
ATOM     31  C   LIG     1     145.508 157.869 149.308  0.00  0.00     0.001 A 
ATOM     32  C   LIG     1     146.806 158.016 149.797  0.00  0.00     0.008 A 
ENDBRANCH  26  27
ENDBRANCH  24  25
ENDBRANCH  23  24
ENDBRANCH   2  23
BRANCH   4  33
ATOM     33  O   LIG     1     155.431 158.832 153.218  0.00  0.00    -0.386 OA
ATOM     34  H   LIG     1     154.697 158.717 153.845  0.00  0.00     0.210 HD
ENDBRANCH   4  33
BRANCH   3  35
ATOM     35  O   LIG     1     154.090 159.915 150.829  0.00  0.00    -0.384 OA
ATOM     36  H   LIG     1     153.538 159.995 150.033  0.00  0.00     0.210 HD
ENDBRANCH   3  35
TORSDOF 13
ENDMDL
MODEL 7
REMARK VINA RESULT:      -7.9      4.213      7.387
REMARK  13 active torsions:
REMARK  status: ('A' for Active; 'I' for Inactive)
REMARK    1  A    between atoms: C_2  and  O_12 
REMARK    2  A    between atoms: C_3  and  O_10 
REMARK    3  A    between atoms: C_4  and  O_8 
REMARK    4  A    between atoms: C_5  and  O_6 
REMARK    5  A    between atoms: C_22  and  C_23 
REMARK    6  A    between atoms: O_12  and  C_13 
REMARK    7  A    between atoms: C_13  and  C_14 
REMARK    8  A    between atoms: C_15  and  C_16 
REMARK    9  A    between atoms: C_23  and  O_24 
REMARK   10  A    between atoms: O_24  and  C_25 
REMARK   11  A    between atoms: C_26  and  O_34 
REMARK   12  A    between atoms: C_27  and  O_32 
REMARK   13  A    between atoms: C_28  and  O_30 
ROOT
ATOM      1  O   LIG     1     150.472 151.799 146.331  0.00  0.00    -0.341 OA
ATOM      2  C   LIG     1     150.357 150.601 145.568  0.00  0.00     0.282 C 
ATOM      3  C   LIG     1     151.723 150.180 145.025  0.00  0.00     0.201 C 
ATOM      4  C   LIG     1     152.758 150.072 146.144  0.00  0.00     0.179 C 
ATOM      5  C   LIG     1     152.739 151.311 147.038  0.00  0.00     0.177 C 
ATOM      6  C   LIG     1     151.310 151.642 147.477  0.00  0.00     0.178 C 
ENDROOT
BRANCH   6   7
ATOM      7  C   LIG     1     151.250 152.942 148.274  0.00  0.00     0.197 C 
BRANCH   7   8
ATOM      8  O   LIG     1     151.777 152.703 149.566  0.00  0.00    -0.346 OA
BRANCH   8   9
ATOM      9  C   LIG     1     151.955 153.912 150.296  0.00  0.00     0.281 C 
ATOM     10  O   LIG     1     153.067 154.673 149.811  0.00  0.00    -0.346 OA
ATOM     11  C   LIG     1     154.330 154.049 150.029  0.00  0.00     0.197 C 
ATOM     12  C   LIG     1     154.576 153.840 151.518  0.00  0.00     0.171 C 
ATOM     13  C   LIG     1     153.458 152.998 152.136  0.00  0.00     0.178 C 
ATOM     14  C   LIG     1     152.092 153.603 151.795  0.00  0.00     0.201 C 
BRANCH  12  15
ATOM     15  O   LIG     1     155.830 153.207 151.729  0.00  0.00    -0.387 OA
ATOM     16  H   LIG     1     156.379 153.810 152.259  0.00  0.00     0.210 HD
ENDBRANCH  12  15
BRANCH  13  17
ATOM     17  O   LIG     1     153.533 151.668 151.626  0.00  0.00    -0.386 OA
ATOM     18  H   LIG     1     153.978 151.711 150.761  0.00  0.00     0.210 HD
ENDBRANCH  13  17
BRANCH  14  19
ATOM     19  O   LIG     1     151.923 154.822 152.514  0.00  0.00    -0.384 OA
ATOM     20  H   LIG     1     151.874 155.552 151.875  0.00  0.00     0.210 HD
ENDBRANCH  14  19
ENDBRANCH   8   9
ENDBRANCH   7   8
ENDBRANCH   6   7
BRANCH   5  21
ATOM     21  O   LIG     1     153.544 151.076 148.190  0.00  0.00    -0.386 OA
ATOM     22  H   LIG     1     154.279 150.495 147.928  0.00  0.00     0.210 HD
ENDBRANCH   5  21
BRANCH   2  23
ATOM     23  O   LIG     1     149.490 150.818 144.457  0.00  0.00    -0.345 OA
BRANCH  23  24
ATOM     24  C   LIG     1     148.129 150.826 144.858  0.00  0.00     0.190 C 
BRANCH  24  25
ATOM     25  C   LIG     1     147.455 149.614 144.300  0.00  0.00     0.001 C 
ATOM     26  C   LIG     1     147.402 149.338 142.988  0.00  0.00     0.006 C 
BRANCH  26  27
ATOM     27  C   LIG     1     146.762 148.151 142.395  0.00  0.00    -0.025 A 
ATOM     28  C   LIG     1     146.666 146.987 143.142  0.00  0.00     0.008 A 
ATOM     29  C   LIG     1     146.061 145.863 142.580  0.00  0.00     0.001 A 
ATOM     30  C   LIG     1     145.561 145.917 141.279  0.00  0.00     0.000 A 
ATOM     31  C   LIG     1     145.665 147.095 140.539  0.00  0.00     0.001 A 
ATOM     32  C   LIG     1     146.270 148.219 141.102  0.00  0.00     0.008 A 
ENDBRANCH  26  27
ENDBRANCH  24  25
ENDBRANCH  23  24
ENDBRANCH   2  23
BRANCH   4  33
ATOM     33  O   LIG     1     154.064 149.958 145.576  0.00  0.00    -0.386 OA
ATOM     34  H   LIG     1     154.699 150.276 146.240  0.00  0.00     0.210 HD
ENDBRANCH   4  33
BRANCH   3  35
ATOM     35  O   LIG     1     151.579 148.910 144.388  0.00  0.00    -0.384 OA
ATOM     36  H   LIG     1     152.460 148.505 144.322  0.00  0.00     0.210 HD
ENDBRANCH   3  35
TORSDOF 13
ENDMDL
MODEL 8
REMARK VINA RESULT:      -7.9      3.895      5.567
REMARK  13 active torsions:
REMARK  status: ('A' for Active; 'I' for Inactive)
REMARK    1  A    between atoms: C_2  and  O_12 
REMARK    2  A    between atoms: C_3  and  O_10 
REMARK    3  A    between atoms: C_4  and  O_8 
REMARK    4  A    between atoms: C_5  and  O_6 
REMARK    5  A    between atoms: C_22  and  C_23 
REMARK    6  A    between atoms: O_12  and  C_13 
REMARK    7  A    between atoms: C_13  and  C_14 
REMARK    8  A    between atoms: C_15  and  C_16 
REMARK    9  A    between atoms: C_23  and  O_24 
REMARK   10  A    between atoms: O_24  and  C_25 
REMARK   11  A    between atoms: C_26  and  O_34 
REMARK   12  A    between atoms: C_27  and  O_32 
REMARK   13  A    between atoms: C_28  and  O_30 
ROOT
ATOM      1  O   LIG     1     152.607 156.793 151.482  0.00  0.00    -0.341 OA
ATOM      2  C   LIG     1     152.175 155.689 152.273  0.00  0.00     0.282 C 
ATOM      3  C   LIG     1     153.283 154.641 152.380  0.00  0.00     0.201 C 
ATOM      4  C   LIG     1     154.586 155.258 152.886  0.00  0.00     0.179 C 
ATOM      5  C   LIG     1     154.932 156.532 152.115  0.00  0.00     0.177 C 
ATOM      6  C   LIG     1     153.726 157.473 152.053  0.00  0.00     0.178 C 
ENDROOT
BRANCH   6   7
ATOM      7  C   LIG     1     154.010 158.699 151.190  0.00  0.00     0.197 C 
BRANCH   7   8
ATOM      8  O   LIG     1     153.179 159.759 151.626  0.00  0.00    -0.346 OA
BRANCH   8   9
ATOM      9  C   LIG     1     152.802 160.611 150.550  0.00  0.00     0.281 C 
ATOM     10  O   LIG     1     152.288 161.865 151.013  0.00  0.00    -0.346 OA
ATOM     11  C   LIG     1     151.048 161.757 151.708  0.00  0.00     0.197 C 
ATOM     12  C   LIG     1     149.974 161.168 150.803  0.00  0.00     0.171 C 
ATOM     13  C   LIG     1     150.405 159.797 150.277  0.00  0.00     0.178 C 
ATOM     14  C   LIG     1     151.796 159.890 149.640  0.00  0.00     0.201 C 
BRANCH  12  15
ATOM     15  O   LIG     1     148.744 161.051 151.503  0.00  0.00    -0.387 OA
ATOM     16  H   LIG     1     148.075 161.556 151.009  0.00  0.00     0.210 HD
ENDBRANCH  12  15
BRANCH  13  17
ATOM     17  O   LIG     1     150.436 158.867 151.358  0.00  0.00    -0.386 OA
ATOM     18  H   LIG     1     151.054 159.213 152.025  0.00  0.00     0.210 HD
ENDBRANCH  13  17
BRANCH  14  19
ATOM     19  O   LIG     1     151.707 160.617 148.417  0.00  0.00    -0.384 OA
ATOM     20  H   LIG     1     151.293 161.477 148.600  0.00  0.00     0.210 HD
ENDBRANCH  14  19
ENDBRANCH   8   9
ENDBRANCH   7   8
ENDBRANCH   6   7
BRANCH   5  21
ATOM     21  O   LIG     1     156.015 157.195 152.762  0.00  0.00    -0.386 OA
ATOM     22  H   LIG     1     156.623 156.516 153.102  0.00  0.00     0.210 HD
ENDBRANCH   5  21
BRANCH   2  23
ATOM     23  O   LIG     1     151.043 155.072 151.664  0.00  0.00    -0.345 OA
BRANCH  23  24
ATOM     24  C   LIG     1     151.096 155.177 150.250  0.00  0.00     0.190 C 
BRANCH  24  25
ATOM     25  C   LIG     1     149.745 155.569 149.745  0.00  0.00     0.001 C 
ATOM     26  C   LIG     1     148.776 156.057 150.534  0.00  0.00     0.006 C 
BRANCH  26  27
ATOM     27  C   LIG     1     147.437 156.470 150.079  0.00  0.00    -0.025 A 
ATOM     28  C   LIG     1     146.486 155.501 149.798  0.00  0.00     0.008 A 
ATOM     29  C   LIG     1     145.219 155.893 149.368  0.00  0.00     0.001 A 
ATOM     30  C   LIG     1     144.918 157.247 149.222  0.00  0.00     0.000 A 
ATOM     31  C   LIG     1     145.885 158.211 149.508  0.00  0.00     0.001 A 
ATOM     32  C   LIG     1     147.153 157.819 149.939  0.00  0.00     0.008 A 
ENDBRANCH  26  27
ENDBRANCH  24  25
ENDBRANCH  23  24
ENDBRANCH   2  23
BRANCH   4  33
ATOM     33  O   LIG     1     155.656 154.328 152.704  0.00  0.00    -0.386 OA
ATOM     34  H   LIG     1     156.237 154.685 152.011  0.00  0.00     0.210 HD
ENDBRANCH   4  33
BRANCH   3  35
ATOM     35  O   LIG     1     152.854 153.627 153.288  0.00  0.00    -0.384 OA
ATOM     36  H   LIG     1     153.536 153.528 153.973  0.00  0.00     0.210 HD
ENDBRANCH   3  35
TORSDOF 13
ENDMDL
MODEL 9
REMARK VINA RESULT:      -7.9      3.410      4.636
REMARK  13 active torsions:
REMARK  status: ('A' for Active; 'I' for Inactive)
REMARK    1  A    between atoms: C_2  and  O_12 
REMARK    2  A    between atoms: C_3  and  O_10 
REMARK    3  A    between atoms: C_4  and  O_8 
REMARK    4  A    between atoms: C_5  and  O_6 
REMARK    5  A    between atoms: C_22  and  C_23 
REMARK    6  A    between atoms: O_12  and  C_13 
REMARK    7  A    between atoms: C_13  and  C_14 
REMARK    8  A    between atoms: C_15  and  C_16 
REMARK    9  A    between atoms: C_23  and  O_24 
REMARK   10  A    between atoms: O_24  and  C_25 
REMARK   11  A    between atoms: C_26  and  O_34 
REMARK   12  A    between atoms: C_27  and  O_32 
REMARK   13  A    between atoms: C_28  and  O_30 
ROOT
ATOM      1  O   LIG     1     153.446 156.567 151.494  0.00  0.00    -0.341 OA
ATOM      2  C   LIG     1     152.645 155.394 151.614  0.00  0.00     0.282 C 
ATOM      3  C   LIG     1     153.479 154.144 151.331  0.00  0.00     0.201 C 
ATOM      4  C   LIG     1     154.730 154.099 152.208  0.00  0.00     0.179 C 
ATOM      5  C   LIG     1     155.476 155.432 152.177  0.00  0.00     0.177 C 
ATOM      6  C   LIG     1     154.519 156.598 152.437  0.00  0.00     0.178 C 
ENDROOT
BRANCH   6   7
ATOM      7  C   LIG     1     155.218 157.946 152.295  0.00  0.00     0.197 C 
BRANCH   7   8
ATOM      8  O   LIG     1     154.584 158.677 151.261  0.00  0.00    -0.346 OA
BRANCH   8   9
ATOM      9  C   LIG     1     155.521 159.161 150.305  0.00  0.00     0.281 C 
ATOM     10  O   LIG     1     155.144 160.441 149.785  0.00  0.00    -0.346 OA
ATOM     11  C   LIG     1     153.957 160.414 148.996  0.00  0.00     0.197 C 
ATOM     12  C   LIG     1     154.134 159.501 147.790  0.00  0.00     0.171 C 
ATOM     13  C   LIG     1     154.504 158.085 148.234  0.00  0.00     0.178 C 
ATOM     14  C   LIG     1     155.706 158.127 149.184  0.00  0.00     0.201 C 
BRANCH  12  15
ATOM     15  O   LIG     1     152.944 159.468 147.014  0.00  0.00    -0.387 OA
ATOM     16  H   LIG     1     152.619 160.381 146.936  0.00  0.00     0.210 HD
ENDBRANCH  12  15
BRANCH  13  17
ATOM     17  O   LIG     1     153.389 157.495 148.901  0.00  0.00    -0.386 OA
ATOM     18  H   LIG     1     153.591 157.479 149.853  0.00  0.00     0.210 HD
ENDBRANCH  13  17
BRANCH  14  19
ATOM     19  O   LIG     1     156.876 158.478 148.449  0.00  0.00    -0.384 OA
ATOM     20  H   LIG     1     156.602 158.858 147.597  0.00  0.00     0.210 HD
ENDBRANCH  14  19
ENDBRANCH   8   9
ENDBRANCH   7   8
ENDBRANCH   6   7
BRANCH   5  21
ATOM     21  O   LIG     1     156.494 155.427 153.174  0.00  0.00    -0.386 OA
ATOM     22  H   LIG     1     156.273 156.109 153.832  0.00  0.00     0.210 HD
ENDBRANCH   5  21
BRANCH   2  23
ATOM     23  O   LIG     1     151.581 155.438 150.666  0.00  0.00    -0.345 OA
BRANCH  23  24
ATOM     24  C   LIG     1     150.333 155.674 151.299  0.00  0.00     0.190 C 
BRANCH  24  25
ATOM     25  C   LIG     1     149.262 155.704 150.257  0.00  0.00     0.001 C 
ATOM     26  C   LIG     1     147.972 155.445 150.518  0.00  0.00     0.006 C 
BRANCH  26  27
ATOM     27  C   LIG     1     146.881 155.477 149.528  0.00  0.00    -0.025 A 
ATOM     28  C   LIG     1     146.848 154.524 148.523  0.00  0.00     0.008 A 
ATOM     29  C   LIG     1     145.816 154.555 147.586  0.00  0.00     0.001 A 
ATOM     30  C   LIG     1     144.830 155.538 147.665  0.00  0.00     0.000 A 
ATOM     31  C   LIG     1     144.877 156.492 148.682  0.00  0.00     0.001 A 
ATOM     32  C   LIG     1     145.909 156.461 149.620  0.00  0.00     0.008 A 
ENDBRANCH  26  27
ENDBRANCH  24  25
ENDBRANCH  23  24
ENDBRANCH   2  23
BRANCH   4  33
ATOM     33  O   LIG     1     155.613 153.086 151.725  0.00  0.00    -0.386 OA
ATOM     34  H   LIG     1     156.109 153.464 150.979  0.00  0.00     0.210 HD
ENDBRANCH   4  33
BRANCH   3  35
ATOM     35  O   LIG     1     152.671 152.998 151.598  0.00  0.00    -0.384 OA
ATOM     36  H   LIG     1     153.126 152.457 152.265  0.00  0.00     0.210 HD
ENDBRANCH   3  35
TORSDOF 13
ENDMDL
MODEL 10
REMARK VINA RESULT:      -7.9      2.397      4.616
REMARK  13 active torsions:
REMARK  status: ('A' for Active; 'I' for Inactive)
REMARK    1  A    between atoms: C_2  and  O_12 
REMARK    2  A    between atoms: C_3  and  O_10 
REMARK    3  A    between atoms: C_4  and  O_8 
REMARK    4  A    between atoms: C_5  and  O_6 
REMARK    5  A    between atoms: C_22  and  C_23 
REMARK    6  A    between atoms: O_12  and  C_13 
REMARK    7  A    between atoms: C_13  and  C_14 
REMARK    8  A    between atoms: C_15  and  C_16 
REMARK    9  A    between atoms: C_23  and  O_24 
REMARK   10  A    between atoms: O_24  and  C_25 
REMARK   11  A    between atoms: C_26  and  O_34 
REMARK   12  A    between atoms: C_27  and  O_32 
REMARK   13  A    between atoms: C_28  and  O_30 
ROOT
ATOM      1  O   LIG     1     152.611 154.844 148.138  0.00  0.00    -0.341 OA
ATOM      2  C   LIG     1     151.821 153.785 147.602  0.00  0.00     0.282 C 
ATOM      3  C   LIG     1     151.333 152.862 148.719  0.00  0.00     0.201 C 
ATOM      4  C   LIG     1     150.608 153.647 149.812  0.00  0.00     0.179 C 
ATOM      5  C   LIG     1     151.418 154.867 150.248  0.00  0.00     0.177 C 
ATOM      6  C   LIG     1     151.874 155.679 149.033  0.00  0.00     0.178 C 
ENDROOT
BRANCH   6   7
ATOM      7  C   LIG     1     152.782 156.837 149.435  0.00  0.00     0.197 C 
BRANCH   7   8
ATOM      8  O   LIG     1     153.121 156.689 150.802  0.00  0.00    -0.346 OA
BRANCH   8   9
ATOM      9  C   LIG     1     154.505 156.930 151.032  0.00  0.00     0.281 C 
ATOM     10  O   LIG     1     155.336 156.177 150.141  0.00  0.00    -0.346 OA
ATOM     11  C   LIG     1     155.277 154.768 150.352  0.00  0.00     0.197 C 
ATOM     12  C   LIG     1     155.739 154.417 151.761  0.00  0.00     0.171 C 
ATOM     13  C   LIG     1     154.887 155.142 152.804  0.00  0.00     0.178 C 
ATOM     14  C   LIG     1     154.849 156.644 152.502  0.00  0.00     0.201 C 
BRANCH  12  15
ATOM     15  O   LIG     1     155.667 153.013 151.970  0.00  0.00    -0.387 OA
ATOM     16  H   LIG     1     154.995 152.659 151.362  0.00  0.00     0.210 HD
ENDBRANCH  12  15
BRANCH  13  17
ATOM     17  O   LIG     1     153.561 154.616 152.778  0.00  0.00    -0.386 OA
ATOM     18  H   LIG     1     153.556 153.865 152.160  0.00  0.00     0.210 HD
ENDBRANCH  13  17
BRANCH  14  19
ATOM     19  O   LIG     1     156.128 157.213 152.774  0.00  0.00    -0.384 OA
ATOM     20  H   LIG     1     156.082 157.678 153.626  0.00  0.00     0.210 HD
ENDBRANCH  14  19
ENDBRANCH   8   9
ENDBRANCH   7   8
ENDBRANCH   6   7
BRANCH   5  21
ATOM     21  O   LIG     1     150.615 155.690 151.090  0.00  0.00    -0.386 OA
ATOM     22  H   LIG     1     151.101 156.518 151.252  0.00  0.00     0.210 HD
ENDBRANCH   5  21
BRANCH   2  23
ATOM     23  O   LIG     1     152.605 153.008 146.699  0.00  0.00    -0.345 OA
BRANCH  23  24
ATOM     24  C   LIG     1     153.510 152.165 147.395  0.00  0.00     0.190 C 
BRANCH  24  25
ATOM     25  C   LIG     1     153.510 150.818 146.747  0.00  0.00     0.001 C 
ATOM     26  C   LIG     1     153.858 150.616 145.467  0.00  0.00     0.006 C 
BRANCH  26  27
ATOM     27  C   LIG     1     153.886 149.307 144.791  0.00  0.00    -0.025 A 
ATOM     28  C   LIG     1     153.508 148.172 145.492  0.00  0.00     0.008 A 
ATOM     29  C   LIG     1     153.535 146.934 144.851  0.00  0.00     0.001 A 
ATOM     30  C   LIG     1     153.941 146.845 143.520  0.00  0.00     0.000 A 
ATOM     31  C   LIG     1     154.320 147.995 142.828  0.00  0.00     0.001 A 
ATOM     32  C   LIG     1     154.292 149.234 143.468  0.00  0.00     0.008 A 
ENDBRANCH  26  27
ENDBRANCH  24  25
ENDBRANCH  23  24
ENDBRANCH   2  23
BRANCH   4  33
ATOM     33  O   LIG     1     150.421 152.809 150.954  0.00  0.00    -0.386 OA
ATOM     34  H   LIG     1     149.499 152.913 151.243  0.00  0.00     0.210 HD
ENDBRANCH   4  33
BRANCH   3  35
ATOM     35  O   LIG     1     150.440 151.905 148.150  0.00  0.00    -0.384 OA
ATOM     36  H   LIG     1     150.014 151.421 148.877  0.00  0.00     0.210 HD
ENDBRANCH   3  35
TORSDOF 13
ENDMDL
