MODEL 1
REMARK VINA RESULT:      -8.0      0.000      0.000
REMARK  6 active torsions:
REMARK  status: ('A' for Active; 'I' for Inactive)
REMARK    1  A    between atoms: O_2  and  C_9 
REMARK    2  A    between atoms: O_4  and  C_14 
REMARK    3  A    between atoms: O_5  and  C_19 
REMARK    4  A    between atoms: O_6  and  C_20 
REMARK    5  A    between atoms: O_7  and  C_22 
REMARK    6  A    between atoms: C_8  and  C_10 
ROOT
HETATM    1  O   UNK     0     170.960 174.456 169.712  0.00  0.00    -0.337 OA
HETATM    2  O   UNK     0     167.098 173.077 169.892  0.00  0.00    -0.289 OA
HETATM    3  C   UNK     0     170.571 173.240 169.054  0.00  0.00     0.198 C 
HETATM    4  C   UNK     0     169.116 173.303 168.587  0.00  0.00     0.227 C 
HETATM    5  C   UNK     0     168.229 173.538 169.790  0.00  0.00     0.196 C 
HETATM    6  C   UNK     0     168.799 174.404 170.842  0.00  0.00     0.079 A 
HETATM    7  C   UNK     0     170.125 174.825 170.733  0.00  0.00     0.089 A 
HETATM    8  C   UNK     0     168.011 174.820 171.918  0.00  0.00     0.085 A 
HETATM    9  C   UNK     0     170.655 175.696 171.687  0.00  0.00     0.074 A 
HETATM   10  C   UNK     0     168.552 175.674 172.879  0.00  0.00     0.074 A 
HETATM   11  C   UNK     0     169.870 176.116 172.761  0.00  0.00     0.071 A 
ENDROOT
BRANCH   3  12
HETATM   12  C   UNK     0     171.526 173.032 167.894  0.00  0.00    -0.023 A 
HETATM   13  C   UNK     0     172.682 172.276 168.074  0.00  0.00     0.049 A 
HETATM   14  C   UNK     0     173.561 172.084 167.007  0.00  0.00     0.099 A 
HETATM   15  C   UNK     0     173.281 172.650 165.764  0.00  0.00     0.098 A 
HETATM   16  C   UNK     0     172.123 173.407 165.585  0.00  0.00     0.040 A 
HETATM   17  C   UNK     0     171.245 173.599 166.652  0.00  0.00     0.013 A 
BRANCH  14  18
HETATM   18  O   UNK     0     174.688 171.343 167.192  0.00  0.00    -0.358 OA
HETATM   19  H   UNK     0     174.931 170.938 166.342  0.00  0.00     0.217 HD
ENDBRANCH  14  18
BRANCH  15  20
HETATM   20  O   UNK     0     174.131 172.469 164.714  0.00  0.00    -0.358 OA
HETATM   21  H   UNK     0     174.984 172.889 164.921  0.00  0.00     0.217 HD
ENDBRANCH  15  20
ENDBRANCH   3  12
BRANCH   4  22
HETATM   22  O   UNK     0     168.739 172.071 167.995  0.00  0.00    -0.385 OA
HETATM   23  H   UNK     0     167.859 172.193 167.599  0.00  0.00     0.210 HD
ENDBRANCH   4  22
BRANCH   8  24
HETATM   24  O   UNK     0     166.713 174.435 172.074  0.00  0.00    -0.360 OA
HETATM   25  H   UNK     0     166.303 174.907 172.814  0.00  0.00     0.217 HD
ENDBRANCH   8  24
BRANCH  11  26
HETATM   26  O   UNK     0     170.391 176.956 173.697  0.00  0.00    -0.361 OA
HETATM   27  H   UNK     0     169.764 177.684 173.852  0.00  0.00     0.217 HD
ENDBRANCH  11  26
TORSDOF 6
ENDMDL
MODEL 2
REMARK VINA RESULT:      -7.8      1.291      2.922
REMARK  6 active torsions:
REMARK  status: ('A' for Active; 'I' for Inactive)
REMARK    1  A    between atoms: O_2  and  C_9 
REMARK    2  A    between atoms: O_4  and  C_14 
REMARK    3  A    between atoms: O_5  and  C_19 
REMARK    4  A    between atoms: O_6  and  C_20 
REMARK    5  A    between atoms: O_7  and  C_22 
REMARK    6  A    between atoms: C_8  and  C_10 
ROOT
HETATM    1  O   UNK     0     170.002 173.197 168.659  0.00  0.00    -0.337 OA
HETATM    2  O   UNK     0     171.567 175.066 171.960  0.00  0.00    -0.289 OA
HETATM    3  C   UNK     0     171.240 173.921 168.588  0.00  0.00     0.198 C 
HETATM    4  C   UNK     0     171.996 173.856 169.916  0.00  0.00     0.227 C 
HETATM    5  C   UNK     0     171.122 174.445 171.002  0.00  0.00     0.196 C 
HETATM    6  C   UNK     0     169.675 174.193 170.861  0.00  0.00     0.079 A 
HETATM    7  C   UNK     0     169.201 173.570 169.705  0.00  0.00     0.089 A 
HETATM    8  C   UNK     0     168.792 174.548 171.885  0.00  0.00     0.085 A 
HETATM    9  C   UNK     0     167.843 173.268 169.589  0.00  0.00     0.074 A 
HETATM   10  C   UNK     0     167.434 174.262 171.754  0.00  0.00     0.074 A 
HETATM   11  C   UNK     0     166.960 173.618 170.611  0.00  0.00     0.071 A 
ENDROOT
BRANCH   3  12
HETATM   12  C   UNK     0     172.047 173.321 167.452  0.00  0.00    -0.023 A 
HETATM   13  C   UNK     0     173.144 172.511 167.733  0.00  0.00     0.049 A 
HETATM   14  C   UNK     0     173.887 171.959 166.688  0.00  0.00     0.099 A 
HETATM   15  C   UNK     0     173.530 172.221 165.366  0.00  0.00     0.098 A 
HETATM   16  C   UNK     0     172.431 173.033 165.087  0.00  0.00     0.040 A 
HETATM   17  C   UNK     0     171.689 173.584 166.131  0.00  0.00     0.013 A 
BRANCH  14  18
HETATM   18  O   UNK     0     174.958 171.167 166.972  0.00  0.00    -0.358 OA
HETATM   19  H   UNK     0     175.757 171.595 166.620  0.00  0.00     0.217 HD
ENDBRANCH  14  18
BRANCH  15  20
HETATM   20  O   UNK     0     174.247 171.687 164.337  0.00  0.00    -0.358 OA
HETATM   21  H   UNK     0     174.183 172.278 163.567  0.00  0.00     0.217 HD
ENDBRANCH  15  20
ENDBRANCH   3  12
BRANCH   4  22
HETATM   22  O   UNK     0     173.184 174.626 169.840  0.00  0.00    -0.385 OA
HETATM   23  H   UNK     0     173.063 175.408 170.405  0.00  0.00     0.210 HD
ENDBRANCH   4  22
BRANCH   8  24
HETATM   24  O   UNK     0     169.201 175.161 173.031  0.00  0.00    -0.360 OA
HETATM   25  H   UNK     0     170.149 175.019 173.175  0.00  0.00     0.217 HD
ENDBRANCH   8  24
BRANCH  11  26
HETATM   26  O   UNK     0     165.634 173.333 170.491  0.00  0.00    -0.361 OA
HETATM   27  H   UNK     0     165.196 174.061 170.018  0.00  0.00     0.217 HD
ENDBRANCH  11  26
TORSDOF 6
ENDMDL
MODEL 3
REMARK VINA RESULT:      -7.7      2.016      2.377
REMARK  6 active torsions:
REMARK  status: ('A' for Active; 'I' for Inactive)
REMARK    1  A    between atoms: O_2  and  C_9 
REMARK    2  A    between atoms: O_4  and  C_14 
REMARK    3  A    between atoms: O_5  and  C_19 
REMARK    4  A    between atoms: O_6  and  C_20 
REMARK    5  A    between atoms: O_7  and  C_22 
REMARK    6  A    between atoms: C_8  and  C_10 
ROOT
HETATM    1  O   UNK     0     170.318 172.939 168.986  0.00  0.00    -0.337 OA
HETATM    2  O   UNK     0     166.878 174.904 167.915  0.00  0.00    -0.289 OA
HETATM    3  C   UNK     0     169.795 172.852 167.652  0.00  0.00     0.198 C 
HETATM    4  C   UNK     0     169.070 174.139 167.255  0.00  0.00     0.227 C 
HETATM    5  C   UNK     0     167.940 174.381 168.232  0.00  0.00     0.196 C 
HETATM    6  C   UNK     0     168.206 173.977 169.627  0.00  0.00     0.079 A 
HETATM    7  C   UNK     0     169.387 173.294 169.925  0.00  0.00     0.089 A 
HETATM    8  C   UNK     0     167.301 174.301 170.641  0.00  0.00     0.085 A 
HETATM    9  C   UNK     0     169.679 172.965 171.250  0.00  0.00     0.074 A 
HETATM   10  C   UNK     0     167.590 173.951 171.960  0.00  0.00     0.074 A 
HETATM   11  C   UNK     0     168.779 173.289 172.265  0.00  0.00     0.071 A 
ENDROOT
BRANCH   3  12
HETATM   12  C   UNK     0     170.963 172.557 166.730  0.00  0.00    -0.023 A 
HETATM   13  C   UNK     0     171.609 173.601 166.073  0.00  0.00     0.049 A 
HETATM   14  C   UNK     0     172.683 173.331 165.224  0.00  0.00     0.099 A 
HETATM   15  C   UNK     0     173.107 172.016 165.034  0.00  0.00     0.098 A 
HETATM   16  C   UNK     0     172.458 170.971 165.694  0.00  0.00     0.040 A 
HETATM   17  C   UNK     0     171.385 171.242 166.542  0.00  0.00     0.013 A 
BRANCH  14  18
HETATM   18  O   UNK     0     173.309 174.358 164.587  0.00  0.00    -0.358 OA
HETATM   19  H   UNK     0     174.077 173.999 164.109  0.00  0.00     0.217 HD
ENDBRANCH  14  18
BRANCH  15  20
HETATM   20  O   UNK     0     174.156 171.738 164.209  0.00  0.00    -0.358 OA
HETATM   21  H   UNK     0     173.888 171.907 163.289  0.00  0.00     0.217 HD
ENDBRANCH  15  20
ENDBRANCH   3  12
BRANCH   4  22
HETATM   22  O   UNK     0     168.512 174.006 165.959  0.00  0.00    -0.385 OA
HETATM   23  H   UNK     0     169.138 174.402 165.329  0.00  0.00     0.210 HD
ENDBRANCH   4  22
BRANCH   8  24
HETATM   24  O   UNK     0     166.134 174.962 170.404  0.00  0.00    -0.360 OA
HETATM   25  H   UNK     0     165.818 175.400 171.209  0.00  0.00     0.217 HD
ENDBRANCH   8  24
BRANCH  11  26
HETATM   26  O   UNK     0     169.061 172.957 173.555  0.00  0.00    -0.361 OA
HETATM   27  H   UNK     0     169.421 172.054 173.577  0.00  0.00     0.217 HD
ENDBRANCH  11  26
TORSDOF 6
ENDMDL
MODEL 4
REMARK VINA RESULT:      -7.5      2.099      3.831
REMARK  6 active torsions:
REMARK  status: ('A' for Active; 'I' for Inactive)
REMARK    1  A    between atoms: O_2  and  C_9 
REMARK    2  A    between atoms: O_4  and  C_14 
REMARK    3  A    between atoms: O_5  and  C_19 
REMARK    4  A    between atoms: O_6  and  C_20 
REMARK    5  A    between atoms: O_7  and  C_22 
REMARK    6  A    between atoms: C_8  and  C_10 
ROOT
HETATM    1  O   UNK     0     168.727 173.410 168.016  0.00  0.00    -0.337 OA
HETATM    2  O   UNK     0     167.814 174.329 171.910  0.00  0.00    -0.289 OA
HETATM    3  C   UNK     0     169.753 173.750 168.962  0.00  0.00     0.198 C 
HETATM    4  C   UNK     0     169.373 173.308 170.376  0.00  0.00     0.227 C 
HETATM    5  C   UNK     0     168.076 173.985 170.764  0.00  0.00     0.196 C 
HETATM    6  C   UNK     0     167.106 174.178 169.668  0.00  0.00     0.079 A 
HETATM    7  C   UNK     0     167.483 173.864 168.361  0.00  0.00     0.089 A 
HETATM    8  C   UNK     0     165.816 174.643 169.940  0.00  0.00     0.085 A 
HETATM    9  C   UNK     0     166.553 173.982 167.326  0.00  0.00     0.074 A 
HETATM   10  C   UNK     0     164.898 174.777 168.899  0.00  0.00     0.074 A 
HETATM   11  C   UNK     0     165.263 174.442 167.595  0.00  0.00     0.071 A 
ENDROOT
BRANCH   3  12
HETATM   12  C   UNK     0     171.035 173.089 168.492  0.00  0.00    -0.023 A 
HETATM   13  C   UNK     0     170.990 172.125 167.487  0.00  0.00     0.049 A 
HETATM   14  C   UNK     0     172.169 171.516 167.054  0.00  0.00     0.099 A 
HETATM   15  C   UNK     0     173.388 171.872 167.628  0.00  0.00     0.098 A 
HETATM   16  C   UNK     0     173.431 172.839 168.634  0.00  0.00     0.040 A 
HETATM   17  C   UNK     0     172.253 173.446 169.066  0.00  0.00     0.013 A 
BRANCH  14  18
HETATM   18  O   UNK     0     172.115 170.575 166.071  0.00  0.00    -0.358 OA
HETATM   19  H   UNK     0     172.341 169.713 166.460  0.00  0.00     0.217 HD
ENDBRANCH  14  18
BRANCH  15  20
HETATM   20  O   UNK     0     174.547 171.286 167.213  0.00  0.00    -0.358 OA
HETATM   21  H   UNK     0     175.289 171.888 167.396  0.00  0.00     0.217 HD
ENDBRANCH  15  20
ENDBRANCH   3  12
BRANCH   4  22
HETATM   22  O   UNK     0     170.372 173.707 171.298  0.00  0.00    -0.385 OA
HETATM   23  H   UNK     0     169.981 174.380 171.882  0.00  0.00     0.210 HD
ENDBRANCH   4  22
BRANCH   8  24
HETATM   24  O   UNK     0     165.399 174.966 171.196  0.00  0.00    -0.360 OA
HETATM   25  H   UNK     0     166.128 174.892 171.829  0.00  0.00     0.217 HD
ENDBRANCH   8  24
BRANCH  11  26
HETATM   26  O   UNK     0     164.362 174.567 166.583  0.00  0.00    -0.361 OA
HETATM   27  H   UNK     0     164.546 173.888 165.910  0.00  0.00     0.217 HD
ENDBRANCH  11  26
TORSDOF 6
ENDMDL
MODEL 5
REMARK VINA RESULT:      -7.4      8.435      9.891
REMARK  6 active torsions:
REMARK  status: ('A' for Active; 'I' for Inactive)
REMARK    1  A    between atoms: O_2  and  C_9 
REMARK    2  A    between atoms: O_4  and  C_14 
REMARK    3  A    between atoms: O_5  and  C_19 
REMARK    4  A    between atoms: O_6  and  C_20 
REMARK    5  A    between atoms: O_7  and  C_22 
REMARK    6  A    between atoms: C_8  and  C_10 
ROOT
HETATM    1  O   UNK     0     162.901 170.662 170.105  0.00  0.00    -0.337 OA
HETATM    2  O   UNK     0     163.972 167.500 167.718  0.00  0.00    -0.289 OA
HETATM    3  C   UNK     0     163.214 170.850 168.716  0.00  0.00     0.198 C 
HETATM    4  C   UNK     0     162.831 169.621 167.891  0.00  0.00     0.227 C 
HETATM    5  C   UNK     0     163.583 168.422 168.426  0.00  0.00     0.196 C 
HETATM    6  C   UNK     0     163.796 168.403 169.887  0.00  0.00     0.079 A 
HETATM    7  C   UNK     0     163.428 169.518 170.643  0.00  0.00     0.089 A 
HETATM    8  C   UNK     0     164.333 167.273 170.509  0.00  0.00     0.085 A 
HETATM    9  C   UNK     0     163.565 169.487 172.032  0.00  0.00     0.074 A 
HETATM   10  C   UNK     0     164.485 167.256 171.895  0.00  0.00     0.074 A 
HETATM   11  C   UNK     0     164.097 168.359 172.656  0.00  0.00     0.071 A 
ENDROOT
BRANCH   3  12
HETATM   12  C   UNK     0     162.476 172.091 168.253  0.00  0.00    -0.023 A 
HETATM   13  C   UNK     0     161.105 172.204 168.470  0.00  0.00     0.049 A 
HETATM   14  C   UNK     0     160.425 173.346 168.044  0.00  0.00     0.099 A 
HETATM   15  C   UNK     0     161.119 174.371 167.401  0.00  0.00     0.098 A 
HETATM   16  C   UNK     0     162.493 174.256 167.186  0.00  0.00     0.040 A 
HETATM   17  C   UNK     0     163.171 173.114 167.611  0.00  0.00     0.013 A 
BRANCH  14  18
HETATM   18  O   UNK     0     159.085 173.448 168.262  0.00  0.00    -0.358 OA
HETATM   19  H   UNK     0     158.871 172.975 169.084  0.00  0.00     0.217 HD
ENDBRANCH  14  18
BRANCH  15  20
HETATM   20  O   UNK     0     160.467 175.492 166.982  0.00  0.00    -0.358 OA
HETATM   21  H   UNK     0     161.009 176.271 167.194  0.00  0.00     0.217 HD
ENDBRANCH  15  20
ENDBRANCH   3  12
BRANCH   4  22
HETATM   22  O   UNK     0     163.204 169.806 166.536  0.00  0.00    -0.385 OA
HETATM   23  H   UNK     0     162.599 169.277 165.990  0.00  0.00     0.210 HD
ENDBRANCH   4  22
BRANCH   8  24
HETATM   24  O   UNK     0     164.711 166.161 169.818  0.00  0.00    -0.360 OA
HETATM   25  H   UNK     0     165.676 166.068 169.822  0.00  0.00     0.217 HD
ENDBRANCH   8  24
BRANCH  11  26
HETATM   26  O   UNK     0     164.240 168.335 174.010  0.00  0.00    -0.361 OA
HETATM   27  H   UNK     0     165.019 168.863 174.255  0.00  0.00     0.217 HD
ENDBRANCH  11  26
TORSDOF 6
ENDMDL
MODEL 6
REMARK VINA RESULT:      -7.4      1.342      2.900
REMARK  6 active torsions:
REMARK  status: ('A' for Active; 'I' for Inactive)
REMARK    1  A    between atoms: O_2  and  C_9 
REMARK    2  A    between atoms: O_4  and  C_14 
REMARK    3  A    between atoms: O_5  and  C_19 
REMARK    4  A    between atoms: O_6  and  C_20 
REMARK    5  A    between atoms: O_7  and  C_22 
REMARK    6  A    between atoms: C_8  and  C_10 
ROOT
HETATM    1  O   UNK     0     169.575 173.392 169.865  0.00  0.00    -0.337 OA
HETATM    2  O   UNK     0     170.629 176.778 171.932  0.00  0.00    -0.289 OA
HETATM    3  C   UNK     0     170.463 174.367 169.295  0.00  0.00     0.198 C 
HETATM    4  C   UNK     0     171.296 175.057 170.376  0.00  0.00     0.227 C 
HETATM    5  C   UNK     0     170.361 175.730 171.357  0.00  0.00     0.196 C 
HETATM    6  C   UNK     0     169.093 175.020 171.617  0.00  0.00     0.079 A 
HETATM    7  C   UNK     0     168.782 173.883 170.867  0.00  0.00     0.089 A 
HETATM    8  C   UNK     0     168.228 175.462 172.621  0.00  0.00     0.085 A 
HETATM    9  C   UNK     0     167.617 173.167 171.147  0.00  0.00     0.074 A 
HETATM   10  C   UNK     0     167.056 174.753 172.883  0.00  0.00     0.074 A 
HETATM   11  C   UNK     0     166.753 173.605 172.152  0.00  0.00     0.071 A 
ENDROOT
BRANCH   3  12
HETATM   12  C   UNK     0     171.336 173.645 168.287  0.00  0.00    -0.023 A 
HETATM   13  C   UNK     0     172.231 172.668 168.718  0.00  0.00     0.049 A 
HETATM   14  C   UNK     0     173.035 172.003 167.791  0.00  0.00     0.099 A 
HETATM   15  C   UNK     0     172.941 172.319 166.435  0.00  0.00     0.098 A 
HETATM   16  C   UNK     0     172.043 173.297 166.006  0.00  0.00     0.040 A 
HETATM   17  C   UNK     0     171.241 173.961 166.933  0.00  0.00     0.013 A 
BRANCH  14  18
HETATM   18  O   UNK     0     173.906 171.050 168.221  0.00  0.00    -0.358 OA
HETATM   19  H   UNK     0     174.149 171.250 169.141  0.00  0.00     0.217 HD
ENDBRANCH  14  18
BRANCH  15  20
HETATM   20  O   UNK     0     173.719 171.676 165.520  0.00  0.00    -0.358 OA
HETATM   21  H   UNK     0     173.243 171.635 164.672  0.00  0.00     0.217 HD
ENDBRANCH  15  20
ENDBRANCH   3  12
BRANCH   4  22
HETATM   22  O   UNK     0     172.120 176.054 169.797  0.00  0.00    -0.385 OA
HETATM   23  H   UNK     0     172.308 176.715 170.485  0.00  0.00     0.210 HD
ENDBRANCH   4  22
BRANCH   8  24
HETATM   24  O   UNK     0     168.482 176.566 173.379  0.00  0.00    -0.360 OA
HETATM   25  H   UNK     0     167.699 176.815 173.894  0.00  0.00     0.217 HD
ENDBRANCH   8  24
BRANCH  11  26
HETATM   26  O   UNK     0     165.612 172.911 172.417  0.00  0.00    -0.361 OA
HETATM   27  H   UNK     0     165.719 172.437 173.260  0.00  0.00     0.217 HD
ENDBRANCH  11  26
TORSDOF 6
ENDMDL
MODEL 7
REMARK VINA RESULT:      -7.4     16.355     18.734
REMARK  6 active torsions:
REMARK  status: ('A' for Active; 'I' for Inactive)
REMARK    1  A    between atoms: O_2  and  C_9 
REMARK    2  A    between atoms: O_4  and  C_14 
REMARK    3  A    between atoms: O_5  and  C_19 
REMARK    4  A    between atoms: O_6  and  C_20 
REMARK    5  A    between atoms: O_7  and  C_22 
REMARK    6  A    between atoms: C_8  and  C_10 
ROOT
HETATM    1  O   UNK     0     154.972 177.109 161.032  0.00  0.00    -0.337 OA
HETATM    2  O   UNK     0     152.884 180.548 161.841  0.00  0.00    -0.289 OA
HETATM    3  C   UNK     0     154.962 177.682 162.348  0.00  0.00     0.198 C 
HETATM    4  C   UNK     0     153.640 178.396 162.632  0.00  0.00     0.227 C 
HETATM    5  C   UNK     0     153.445 179.485 161.599  0.00  0.00     0.196 C 
HETATM    6  C   UNK     0     153.944 179.176 160.245  0.00  0.00     0.079 A 
HETATM    7  C   UNK     0     154.665 177.998 160.037  0.00  0.00     0.089 A 
HETATM    8  C   UNK     0     153.673 180.036 159.178  0.00  0.00     0.085 A 
HETATM    9  C   UNK     0     155.086 177.663 158.749  0.00  0.00     0.074 A 
HETATM   10  C   UNK     0     154.114 179.706 157.897  0.00  0.00     0.074 A 
HETATM   11  C   UNK     0     154.815 178.519 157.681  0.00  0.00     0.071 A 
ENDROOT
BRANCH   3  12
HETATM   12  C   UNK     0     155.215 176.555 163.331  0.00  0.00    -0.023 A 
HETATM   13  C   UNK     0     156.327 176.602 164.169  0.00  0.00     0.049 A 
HETATM   14  C   UNK     0     156.561 175.565 165.074  0.00  0.00     0.099 A 
HETATM   15  C   UNK     0     155.682 174.485 165.137  0.00  0.00     0.098 A 
HETATM   16  C   UNK     0     154.568 174.440 164.297  0.00  0.00     0.040 A 
HETATM   17  C   UNK     0     154.336 175.476 163.393  0.00  0.00     0.013 A 
BRANCH  14  18
HETATM   18  O   UNK     0     157.650 175.620 165.889  0.00  0.00    -0.358 OA
HETATM   19  H   UNK     0     157.657 174.821 166.444  0.00  0.00     0.217 HD
ENDBRANCH  14  18
BRANCH  15  20
HETATM   20  O   UNK     0     155.898 173.467 166.017  0.00  0.00    -0.358 OA
HETATM   21  H   UNK     0     156.842 173.446 166.251  0.00  0.00     0.217 HD
ENDBRANCH  15  20
ENDBRANCH   3  12
BRANCH   4  22
HETATM   22  O   UNK     0     153.677 179.004 163.912  0.00  0.00    -0.385 OA
HETATM   23  H   UNK     0     154.409 179.644 163.911  0.00  0.00     0.210 HD
ENDBRANCH   4  22
BRANCH   8  24
HETATM   24  O   UNK     0     152.978 181.199 159.327  0.00  0.00    -0.360 OA
HETATM   25  H   UNK     0     153.209 181.828 158.627  0.00  0.00     0.217 HD
ENDBRANCH   8  24
BRANCH  11  26
HETATM   26  O   UNK     0     155.236 178.197 156.427  0.00  0.00    -0.361 OA
HETATM   27  H   UNK     0     155.752 178.938 156.067  0.00  0.00     0.217 HD
ENDBRANCH  11  26
TORSDOF 6
ENDMDL
MODEL 8
REMARK VINA RESULT:      -7.4      1.842      3.408
REMARK  6 active torsions:
REMARK  status: ('A' for Active; 'I' for Inactive)
REMARK    1  A    between atoms: O_2  and  C_9 
REMARK    2  A    between atoms: O_4  and  C_14 
REMARK    3  A    between atoms: O_5  and  C_19 
REMARK    4  A    between atoms: O_6  and  C_20 
REMARK    5  A    between atoms: O_7  and  C_22 
REMARK    6  A    between atoms: C_8  and  C_10 
ROOT
HETATM    1  O   UNK     0     169.181 172.725 167.915  0.00  0.00    -0.337 OA
HETATM    2  O   UNK     0     170.318 174.178 171.582  0.00  0.00    -0.289 OA
HETATM    3  C   UNK     0     170.458 173.354 168.105  0.00  0.00     0.198 C 
HETATM    4  C   UNK     0     170.988 173.118 169.519  0.00  0.00     0.227 C 
HETATM    5  C   UNK     0     169.992 173.677 170.512  0.00  0.00     0.196 C 
HETATM    6  C   UNK     0     168.572 173.551 170.128  0.00  0.00     0.079 A 
HETATM    7  C   UNK     0     168.249 173.068 168.859  0.00  0.00     0.089 A 
HETATM    8  C   UNK     0     167.562 173.884 171.035  0.00  0.00     0.085 A 
HETATM    9  C   UNK     0     166.910 172.883 168.509  0.00  0.00     0.074 A 
HETATM   10  C   UNK     0     166.227 173.716 170.673  0.00  0.00     0.074 A 
HETATM   11  C   UNK     0     165.900 173.212 169.414  0.00  0.00     0.071 A 
ENDROOT
BRANCH   3  12
HETATM   12  C   UNK     0     171.395 172.794 167.052  0.00  0.00    -0.023 A 
HETATM   13  C   UNK     0     172.216 173.653 166.325  0.00  0.00     0.049 A 
HETATM   14  C   UNK     0     173.078 173.139 165.356  0.00  0.00     0.099 A 
HETATM   15  C   UNK     0     173.116 171.765 165.116  0.00  0.00     0.098 A 
HETATM   16  C   UNK     0     172.294 170.906 165.845  0.00  0.00     0.040 A 
HETATM   17  C   UNK     0     171.432 171.421 166.813  0.00  0.00     0.013 A 
BRANCH  14  18
HETATM   18  O   UNK     0     173.878 173.987 164.652  0.00  0.00    -0.358 OA
HETATM   19  H   UNK     0     173.982 174.806 165.165  0.00  0.00     0.217 HD
ENDBRANCH  14  18
BRANCH  15  20
HETATM   20  O   UNK     0     173.955 171.250 164.174  0.00  0.00    -0.358 OA
HETATM   21  H   UNK     0     174.811 171.708 164.228  0.00  0.00     0.217 HD
ENDBRANCH  15  20
ENDBRANCH   3  12
BRANCH   4  22
HETATM   22  O   UNK     0     172.220 173.797 169.700  0.00  0.00    -0.385 OA
HETATM   23  H   UNK     0     172.113 174.401 170.454  0.00  0.00     0.210 HD
ENDBRANCH   4  22
BRANCH   8  24
HETATM   24  O   UNK     0     167.823 174.363 172.284  0.00  0.00    -0.360 OA
HETATM   25  H   UNK     0     168.360 173.733 172.788  0.00  0.00     0.217 HD
ENDBRANCH   8  24
BRANCH  11  26
HETATM   26  O   UNK     0     164.595 173.042 169.067  0.00  0.00    -0.361 OA
HETATM   27  H   UNK     0     164.520 173.069 168.097  0.00  0.00     0.217 HD
ENDBRANCH  11  26
TORSDOF 6
ENDMDL
MODEL 9
REMARK VINA RESULT:      -7.4     16.690     18.856
REMARK  6 active torsions:
REMARK  status: ('A' for Active; 'I' for Inactive)
REMARK    1  A    between atoms: O_2  and  C_9 
REMARK    2  A    between atoms: O_4  and  C_14 
REMARK    3  A    between atoms: O_5  and  C_19 
REMARK    4  A    between atoms: O_6  and  C_20 
REMARK    5  A    between atoms: O_7  and  C_22 
REMARK    6  A    between atoms: C_8  and  C_10 
ROOT
HETATM    1  O   UNK     0     154.749 178.229 161.648  0.00  0.00    -0.337 OA
HETATM    2  O   UNK     0     153.441 176.819 158.023  0.00  0.00    -0.289 OA
HETATM    3  C   UNK     0     154.118 176.944 161.532  0.00  0.00     0.198 C 
HETATM    4  C   UNK     0     154.408 176.304 160.174  0.00  0.00     0.227 C 
HETATM    5  C   UNK     0     153.900 177.223 159.085  0.00  0.00     0.196 C 
HETATM    6  C   UNK     0     154.022 178.668 159.362  0.00  0.00     0.079 A 
HETATM    7  C   UNK     0     154.455 179.086 160.622  0.00  0.00     0.089 A 
HETATM    8  C   UNK     0     153.736 179.606 158.366  0.00  0.00     0.085 A 
HETATM    9  C   UNK     0     154.636 180.447 160.875  0.00  0.00     0.074 A 
HETATM   10  C   UNK     0     153.901 180.965 158.631  0.00  0.00     0.074 A 
HETATM   11  C   UNK     0     154.355 181.385 159.881  0.00  0.00     0.071 A 
ENDROOT
BRANCH   3  12
HETATM   12  C   UNK     0     154.625 176.089 162.677  0.00  0.00    -0.023 A 
HETATM   13  C   UNK     0     155.990 175.841 162.806  0.00  0.00     0.049 A 
HETATM   14  C   UNK     0     156.458 175.054 163.859  0.00  0.00     0.099 A 
HETATM   15  C   UNK     0     155.559 174.516 164.780  0.00  0.00     0.098 A 
HETATM   16  C   UNK     0     154.192 174.766 164.649  0.00  0.00     0.040 A 
HETATM   17  C   UNK     0     153.725 175.552 163.596  0.00  0.00     0.013 A 
BRANCH  14  18
HETATM   18  O   UNK     0     157.794 174.818 163.978  0.00  0.00    -0.358 OA
HETATM   19  H   UNK     0     158.249 175.674 164.067  0.00  0.00     0.217 HD
ENDBRANCH  14  18
BRANCH  15  20
HETATM   20  O   UNK     0     156.003 173.747 165.813  0.00  0.00    -0.358 OA
HETATM   21  H   UNK     0     156.172 174.318 166.583  0.00  0.00     0.217 HD
ENDBRANCH  15  20
ENDBRANCH   3  12
BRANCH   4  22
HETATM   22  O   UNK     0     153.726 175.067 160.060  0.00  0.00    -0.385 OA
HETATM   23  H   UNK     0     153.836 174.754 159.146  0.00  0.00     0.210 HD
ENDBRANCH   4  22
BRANCH   8  24
HETATM   24  O   UNK     0     153.308 179.252 157.122  0.00  0.00    -0.360 OA
HETATM   25  H   UNK     0     153.602 178.356 156.901  0.00  0.00     0.217 HD
ENDBRANCH   8  24
BRANCH  11  26
HETATM   26  O   UNK     0     154.522 182.713 160.133  0.00  0.00    -0.361 OA
HETATM   27  H   UNK     0     155.326 183.022 159.680  0.00  0.00     0.217 HD
ENDBRANCH  11  26
TORSDOF 6
ENDMDL
MODEL 10
REMARK VINA RESULT:      -7.2      1.869      7.249
REMARK  6 active torsions:
REMARK  status: ('A' for Active; 'I' for Inactive)
REMARK    1  A    between atoms: O_2  and  C_9 
REMARK    2  A    between atoms: O_4  and  C_14 
REMARK    3  A    between atoms: O_5  and  C_19 
REMARK    4  A    between atoms: O_6  and  C_20 
REMARK    5  A    between atoms: O_7  and  C_22 
REMARK    6  A    between atoms: C_8  and  C_10 
ROOT
HETATM    1  O   UNK     0     169.584 172.993 169.226  0.00  0.00    -0.337 OA
HETATM    2  O   UNK     0     173.440 174.135 170.046  0.00  0.00    -0.289 OA
HETATM    3  C   UNK     0     170.009 173.272 170.569  0.00  0.00     0.198 C 
HETATM    4  C   UNK     0     171.098 174.345 170.594  0.00  0.00     0.227 C 
HETATM    5  C   UNK     0     172.276 173.861 169.777  0.00  0.00     0.196 C 
HETATM    6  C   UNK     0     171.938 173.053 168.589  0.00  0.00     0.079 A 
HETATM    7  C   UNK     0     170.609 172.680 168.374  0.00  0.00     0.089 A 
HETATM    8  C   UNK     0     172.930 172.691 167.674  0.00  0.00     0.085 A 
HETATM    9  C   UNK     0     170.268 171.971 167.221  0.00  0.00     0.074 A 
HETATM   10  C   UNK     0     172.585 171.966 166.533  0.00  0.00     0.074 A 
HETATM   11  C   UNK     0     171.256 171.611 166.304  0.00  0.00     0.071 A 
ENDROOT
BRANCH   3  12
HETATM   12  C   UNK     0     168.780 173.700 171.349  0.00  0.00    -0.023 A 
HETATM   13  C   UNK     0     167.697 174.267 170.681  0.00  0.00     0.049 A 
HETATM   14  C   UNK     0     166.566 174.661 171.397  0.00  0.00     0.099 A 
HETATM   15  C   UNK     0     166.522 174.487 172.781  0.00  0.00     0.098 A 
HETATM   16  C   UNK     0     167.608 173.918 173.447  0.00  0.00     0.040 A 
HETATM   17  C   UNK     0     168.738 173.525 172.731  0.00  0.00     0.013 A 
BRANCH  14  18
HETATM   18  O   UNK     0     165.512 175.213 170.736  0.00  0.00    -0.358 OA
HETATM   19  H   UNK     0     165.215 174.586 170.054  0.00  0.00     0.217 HD
ENDBRANCH  14  18
BRANCH  15  20
HETATM   20  O   UNK     0     165.423 174.866 173.492  0.00  0.00    -0.358 OA
HETATM   21  H   UNK     0     165.388 174.352 174.317  0.00  0.00     0.217 HD
ENDBRANCH  15  20
ENDBRANCH   3  12
BRANCH   4  22
HETATM   22  O   UNK     0     171.542 174.560 171.923  0.00  0.00    -0.385 OA
HETATM   23  H   UNK     0     171.521 175.518 172.088  0.00  0.00     0.210 HD
ENDBRANCH   4  22
BRANCH   8  24
HETATM   24  O   UNK     0     174.241 173.026 167.837  0.00  0.00    -0.360 OA
HETATM   25  H   UNK     0     174.525 173.644 167.146  0.00  0.00     0.217 HD
ENDBRANCH   8  24
BRANCH  11  26
HETATM   26  O   UNK     0     170.923 170.911 165.185  0.00  0.00    -0.361 OA
HETATM   27  H   UNK     0     171.270 171.377 164.405  0.00  0.00     0.217 HD
ENDBRANCH  11  26
TORSDOF 6
ENDMDL
