MODEL 1
REMARK VINA RESULT:      -8.3      0.000      0.000
REMARK  Name = 5280445
REMARK  5 active torsions:
REMARK  status: ('A' for Active; 'I' for Inactive)
REMARK    1  A    between atoms: O_2  and  C_13
REMARK    2  A    between atoms: O_4  and  C_16
REMARK    3  A    between atoms: O_5  and  C_19
REMARK    4  A    between atoms: O_6  and  C_21
REMARK    5  A    between atoms: C_9  and  C_10
REMARK                            x       y       z     vdW  Elec       q    Type
REMARK                         _______ _______ _______ _____ _____    ______ ____
ROOT
ATOM      1  O   UNL     1     180.336 179.916 127.851  0.00  0.00    +0.000 OA
ATOM      3  O   UNL     1     179.063 176.046 127.935  0.00  0.00    +0.000 OA
ATOM      7  C   UNL     1     180.701 177.597 127.228  0.00  0.00    +0.000 A 
ATOM      8  C   UNL     1     181.079 178.938 127.238  0.00  0.00    +0.000 A 
ATOM      9  C   UNL     1     179.155 179.552 128.480  0.00  0.00    +0.000 A 
ATOM     11  C   UNL     1     179.454 177.205 127.902  0.00  0.00    +0.000 A 
ATOM     12  C   UNL     1     178.690 178.295 128.544  0.00  0.00    +0.000 A 
ATOM     13  C   UNL     1     181.497 176.644 126.588  0.00  0.00    +0.000 A 
ATOM     14  C   UNL     1     182.257 179.335 126.608  0.00  0.00    +0.000 A 
ATOM     16  C   UNL     1     183.055 178.387 125.968  0.00  0.00    +0.000 A 
ATOM     17  C   UNL     1     182.676 177.044 125.958  0.00  0.00    +0.000 A 
ENDROOT
BRANCH   9  10
ATOM     10  C   UNL     1     178.439 180.679 129.111  0.00  0.00    +0.000 A 
ATOM     15  C   UNL     1     177.184 180.477 129.688  0.00  0.00    +0.000 A 
ATOM     18  C   UNL     1     179.014 181.952 129.132  0.00  0.00    +0.000 A 
ATOM     19  C   UNL     1     176.507 181.541 130.284  0.00  0.00    +0.000 A 
ATOM     20  C   UNL     1     178.338 183.017 129.728  0.00  0.00    +0.000 A 
ATOM     21  C   UNL     1     177.085 182.811 130.304  0.00  0.00    +0.000 A 
BRANCH  19   5
ATOM      5  O   UNL     1     175.282 181.330 130.843  0.00  0.00    +0.000 OA
ATOM     24  H   UNL     1     175.239 181.824 131.679  0.00  0.00    +0.000 HD
ENDBRANCH  19   5
BRANCH  21   6
ATOM      6  O   UNL     1     176.434 183.858 130.883  0.00  0.00    +0.000 OA
ATOM     25  H   UNL     1     176.087 183.577 131.747  0.00  0.00    +0.000 HD
ENDBRANCH  21   6
ENDBRANCH   9  10
BRANCH  13   2
ATOM      2  O   UNL     1     181.172 175.322 126.551  0.00  0.00    +0.000 OA
ATOM     22  H   UNL     1     180.352 175.187 126.050  0.00  0.00    +0.000 HD
ENDBRANCH  13   2
BRANCH  16   4
ATOM      4  O   UNL     1     184.207 178.771 125.351  0.00  0.00    +0.000 OA
ATOM     23  H   UNL     1     184.744 179.287 125.978  0.00  0.00    +0.000 HD
ENDBRANCH  16   4
TORSDOF 5
ENDMDL
MODEL 2
REMARK VINA RESULT:      -8.2      1.188      2.815
REMARK  Name = 5280445
REMARK  5 active torsions:
REMARK  status: ('A' for Active; 'I' for Inactive)
REMARK    1  A    between atoms: O_2  and  C_13
REMARK    2  A    between atoms: O_4  and  C_16
REMARK    3  A    between atoms: O_5  and  C_19
REMARK    4  A    between atoms: O_6  and  C_21
REMARK    5  A    between atoms: C_9  and  C_10
REMARK                            x       y       z     vdW  Elec       q    Type
REMARK                         _______ _______ _______ _____ _____    ______ ____
ROOT
ATOM      1  O   UNL     1     179.414 179.729 128.521  0.00  0.00    +0.000 OA
ATOM      3  O   UNL     1     182.903 181.504 127.390  0.00  0.00    +0.000 OA
ATOM      7  C   UNL     1     181.606 179.532 127.494  0.00  0.00    +0.000 A 
ATOM      8  C   UNL     1     180.390 178.988 127.905  0.00  0.00    +0.000 A 
ATOM      9  C   UNL     1     179.653 181.076 128.750  0.00  0.00    +0.000 A 
ATOM     11  C   UNL     1     181.860 180.961 127.727  0.00  0.00    +0.000 A 
ATOM     12  C   UNL     1     180.779 181.715 128.396  0.00  0.00    +0.000 A 
ATOM     13  C   UNL     1     182.564 178.727 126.871  0.00  0.00    +0.000 A 
ATOM     14  C   UNL     1     180.124 177.636 127.694  0.00  0.00    +0.000 A 
ATOM     16  C   UNL     1     181.078 176.830 127.072  0.00  0.00    +0.000 A 
ATOM     17  C   UNL     1     182.294 177.374 126.662  0.00  0.00    +0.000 A 
ENDROOT
BRANCH   9  10
ATOM     10  C   UNL     1     178.536 181.780 129.412  0.00  0.00    +0.000 A 
ATOM     15  C   UNL     1     177.387 181.078 129.785  0.00  0.00    +0.000 A 
ATOM     18  C   UNL     1     178.624 183.150 129.668  0.00  0.00    +0.000 A 
ATOM     19  C   UNL     1     176.333 181.743 130.410  0.00  0.00    +0.000 A 
ATOM     20  C   UNL     1     177.569 183.815 130.293  0.00  0.00    +0.000 A 
ATOM     21  C   UNL     1     176.423 183.112 130.665  0.00  0.00    +0.000 A 
BRANCH  19   5
ATOM      5  O   UNL     1     175.217 181.046 130.768  0.00  0.00    +0.000 OA
ATOM     24  H   UNL     1     174.962 181.318 131.666  0.00  0.00    +0.000 HD
ENDBRANCH  19   5
BRANCH  21   6
ATOM      6  O   UNL     1     175.401 183.772 131.276  0.00  0.00    +0.000 OA
ATOM     25  H   UNL     1     174.885 183.139 131.803  0.00  0.00    +0.000 HD
ENDBRANCH  21   6
ENDBRANCH   9  10
BRANCH  13   2
ATOM      2  O   UNL     1     183.766 179.211 126.451  0.00  0.00    +0.000 OA
ATOM     22  H   UNL     1     184.492 178.697 126.838  0.00  0.00    +0.000 HD
ENDBRANCH  13   2
BRANCH  16   4
ATOM      4  O   UNL     1     180.820 175.508 126.865  0.00  0.00    +0.000 OA
ATOM     23  H   UNL     1     181.664 175.033 126.775  0.00  0.00    +0.000 HD
ENDBRANCH  16   4
TORSDOF 5
ENDMDL
MODEL 3
REMARK VINA RESULT:      -8.1     12.667     15.384
REMARK  Name = 5280445
REMARK  5 active torsions:
REMARK  status: ('A' for Active; 'I' for Inactive)
REMARK    1  A    between atoms: O_2  and  C_13
REMARK    2  A    between atoms: O_4  and  C_16
REMARK    3  A    between atoms: O_5  and  C_19
REMARK    4  A    between atoms: O_6  and  C_21
REMARK    5  A    between atoms: C_9  and  C_10
REMARK                            x       y       z     vdW  Elec       q    Type
REMARK                         _______ _______ _______ _____ _____    ______ ____
ROOT
ATOM      1  O   UNL     1     171.217 177.839 138.877  0.00  0.00    +0.000 OA
ATOM      3  O   UNL     1     168.914 175.089 140.811  0.00  0.00    +0.000 OA
ATOM      7  C   UNL     1     169.004 177.015 139.445  0.00  0.00    +0.000 A 
ATOM      8  C   UNL     1     169.849 177.922 138.807  0.00  0.00    +0.000 A 
ATOM      9  C   UNL     1     171.780 176.813 139.621  0.00  0.00    +0.000 A 
ATOM     11  C   UNL     1     169.596 175.921 140.228  0.00  0.00    +0.000 A 
ATOM     12  C   UNL     1     171.073 175.877 140.274  0.00  0.00    +0.000 A 
ATOM     13  C   UNL     1     167.617 177.149 139.339  0.00  0.00    +0.000 A 
ATOM     14  C   UNL     1     169.312 178.967 138.057  0.00  0.00    +0.000 A 
ATOM     16  C   UNL     1     167.928 179.103 137.948  0.00  0.00    +0.000 A 
ATOM     17  C   UNL     1     167.083 178.197 138.588  0.00  0.00    +0.000 A 
ENDROOT
BRANCH   9  10
ATOM     10  C   UNL     1     173.257 176.814 139.624  0.00  0.00    +0.000 A 
ATOM     15  C   UNL     1     173.959 175.629 139.395  0.00  0.00    +0.000 A 
ATOM     18  C   UNL     1     173.956 178.000 139.858  0.00  0.00    +0.000 A 
ATOM     19  C   UNL     1     175.354 175.630 139.398  0.00  0.00    +0.000 A 
ATOM     20  C   UNL     1     175.352 178.001 139.861  0.00  0.00    +0.000 A 
ATOM     21  C   UNL     1     176.050 176.817 139.631  0.00  0.00    +0.000 A 
BRANCH  19   5
ATOM      5  O   UNL     1     176.026 174.466 139.173  0.00  0.00    +0.000 OA
ATOM     24  H   UNL     1     176.965 174.612 139.379  0.00  0.00    +0.000 HD
ENDBRANCH  19   5
BRANCH  21   6
ATOM      6  O   UNL     1     177.412 176.830 139.636  0.00  0.00    +0.000 OA
ATOM     25  H   UNL     1     177.721 177.345 140.400  0.00  0.00    +0.000 HD
ENDBRANCH  21   6
ENDBRANCH   9  10
BRANCH  13   2
ATOM      2  O   UNL     1     166.749 176.290 139.943  0.00  0.00    +0.000 OA
ATOM     22  H   UNL     1     167.137 175.929 140.755  0.00  0.00    +0.000 HD
ENDBRANCH  13   2
BRANCH  16   4
ATOM      4  O   UNL     1     167.401 180.124 137.216  0.00  0.00    +0.000 OA
ATOM     23  H   UNL     1     167.498 180.953 137.714  0.00  0.00    +0.000 HD
ENDBRANCH  16   4
TORSDOF 5
ENDMDL
MODEL 4
REMARK VINA RESULT:      -8.1     35.558     37.061
REMARK  Name = 5280445
REMARK  5 active torsions:
REMARK  status: ('A' for Active; 'I' for Inactive)
REMARK    1  A    between atoms: O_2  and  C_13
REMARK    2  A    between atoms: O_4  and  C_16
REMARK    3  A    between atoms: O_5  and  C_19
REMARK    4  A    between atoms: O_6  and  C_21
REMARK    5  A    between atoms: C_9  and  C_10
REMARK                            x       y       z     vdW  Elec       q    Type
REMARK                         _______ _______ _______ _____ _____    ______ ____
ROOT
ATOM      1  O   UNL     1     189.602 182.784 164.265  0.00  0.00    +0.000 OA
ATOM      3  O   UNL     1     192.533 183.917 161.671  0.00  0.00    +0.000 OA
ATOM      7  C   UNL     1     191.952 182.767 163.653  0.00  0.00    +0.000 A 
ATOM      8  C   UNL     1     190.902 182.413 164.498  0.00  0.00    +0.000 A 
ATOM      9  C   UNL     1     189.324 183.551 163.144  0.00  0.00    +0.000 A 
ATOM     11  C   UNL     1     191.661 183.573 162.458  0.00  0.00    +0.000 A 
ATOM     12  C   UNL     1     190.247 183.949 162.254  0.00  0.00    +0.000 A 
ATOM     13  C   UNL     1     193.257 182.360 163.940  0.00  0.00    +0.000 A 
ATOM     14  C   UNL     1     191.151 181.648 165.637  0.00  0.00    +0.000 A 
ATOM     16  C   UNL     1     192.453 181.239 165.927  0.00  0.00    +0.000 A 
ATOM     17  C   UNL     1     193.503 181.594 165.080  0.00  0.00    +0.000 A 
ENDROOT
BRANCH   9  10
ATOM     10  C   UNL     1     187.895 183.890 162.987  0.00  0.00    +0.000 A 
ATOM     15  C   UNL     1     187.321 183.933 161.714  0.00  0.00    +0.000 A 
ATOM     18  C   UNL     1     187.113 184.169 164.110  0.00  0.00    +0.000 A 
ATOM     19  C   UNL     1     185.972 184.253 161.566  0.00  0.00    +0.000 A 
ATOM     20  C   UNL     1     185.763 184.488 163.961  0.00  0.00    +0.000 A 
ATOM     21  C   UNL     1     185.192 184.530 162.689  0.00  0.00    +0.000 A 
BRANCH  19   5
ATOM      5  O   UNL     1     185.425 184.292 160.318  0.00  0.00    +0.000 OA
ATOM     24  H   UNL     1     186.040 184.762 159.730  0.00  0.00    +0.000 HD
ENDBRANCH  19   5
BRANCH  21   6
ATOM      6  O   UNL     1     183.873 184.843 162.557  0.00  0.00    +0.000 OA
ATOM     25  H   UNL     1     183.695 185.671 163.033  0.00  0.00    +0.000 HD
ENDBRANCH  21   6
ENDBRANCH   9  10
BRANCH  13   2
ATOM      2  O   UNL     1     194.317 182.680 163.146  0.00  0.00    +0.000 OA
ATOM     22  H   UNL     1     194.179 182.349 162.245  0.00  0.00    +0.000 HD
ENDBRANCH  13   2
BRANCH  16   4
ATOM      4  O   UNL     1     192.700 180.491 167.038  0.00  0.00    +0.000 OA
ATOM     23  H   UNL     1     193.364 179.815 166.823  0.00  0.00    +0.000 HD
ENDBRANCH  16   4
TORSDOF 5
ENDMDL
MODEL 5
REMARK VINA RESULT:      -8.0      2.302      7.706
REMARK  Name = 5280445
REMARK  5 active torsions:
REMARK  status: ('A' for Active; 'I' for Inactive)
REMARK    1  A    between atoms: O_2  and  C_13
REMARK    2  A    between atoms: O_4  and  C_16
REMARK    3  A    between atoms: O_5  and  C_19
REMARK    4  A    between atoms: O_6  and  C_21
REMARK    5  A    between atoms: C_9  and  C_10
REMARK                            x       y       z     vdW  Elec       q    Type
REMARK                         _______ _______ _______ _____ _____    ______ ____
ROOT
ATOM      1  O   UNL     1     179.561 181.210 128.508  0.00  0.00    +0.000 OA
ATOM      3  O   UNL     1     180.058 185.188 129.239  0.00  0.00    +0.000 OA
ATOM      7  C   UNL     1     178.710 183.262 129.488  0.00  0.00    +0.000 A 
ATOM      8  C   UNL     1     178.603 181.901 129.205  0.00  0.00    +0.000 A 
ATOM      9  C   UNL     1     180.679 181.897 128.061  0.00  0.00    +0.000 A 
ATOM     11  C   UNL     1     179.898 183.994 129.023  0.00  0.00    +0.000 A 
ATOM     12  C   UNL     1     180.899 183.204 128.276  0.00  0.00    +0.000 A 
ATOM     13  C   UNL     1     177.702 183.915 130.202  0.00  0.00    +0.000 A 
ATOM     14  C   UNL     1     177.488 181.185 129.635  0.00  0.00    +0.000 A 
ATOM     16  C   UNL     1     176.480 181.834 130.349  0.00  0.00    +0.000 A 
ATOM     17  C   UNL     1     176.587 183.196 130.632  0.00  0.00    +0.000 A 
ENDROOT
BRANCH   9  10
ATOM     10  C   UNL     1     181.648 181.057 127.328  0.00  0.00    +0.000 A 
ATOM     15  C   UNL     1     182.344 181.579 126.236  0.00  0.00    +0.000 A 
ATOM     18  C   UNL     1     181.872 179.737 127.725  0.00  0.00    +0.000 A 
ATOM     19  C   UNL     1     183.259 180.785 125.544  0.00  0.00    +0.000 A 
ATOM     20  C   UNL     1     182.787 178.943 127.034  0.00  0.00    +0.000 A 
ATOM     21  C   UNL     1     183.481 179.467 125.943  0.00  0.00    +0.000 A 
BRANCH  19   5
ATOM      5  O   UNL     1     183.930 181.308 124.479  0.00  0.00    +0.000 OA
ATOM     24  H   UNL     1     183.296 181.799 123.929  0.00  0.00    +0.000 HD
ENDBRANCH  19   5
BRANCH  21   6
ATOM      6  O   UNL     1     184.373 178.683 125.277  0.00  0.00    +0.000 OA
ATOM     25  H   UNL     1     183.925 178.267 124.521  0.00  0.00    +0.000 HD
ENDBRANCH  21   6
ENDBRANCH   9  10
BRANCH  13   2
ATOM      2  O   UNL     1     177.760 185.243 130.504  0.00  0.00    +0.000 OA
ATOM     22  H   UNL     1     178.438 185.684 129.970  0.00  0.00    +0.000 HD
ENDBRANCH  13   2
BRANCH  16   4
ATOM      4  O   UNL     1     175.389 181.136 130.772  0.00  0.00    +0.000 OA
ATOM     23  H   UNL     1     175.556 180.186 130.653  0.00  0.00    +0.000 HD
ENDBRANCH  16   4
TORSDOF 5
ENDMDL
MODEL 6
REMARK VINA RESULT:      -7.8     13.786     16.396
REMARK  Name = 5280445
REMARK  5 active torsions:
REMARK  status: ('A' for Active; 'I' for Inactive)
REMARK    1  A    between atoms: O_2  and  C_13
REMARK    2  A    between atoms: O_4  and  C_16
REMARK    3  A    between atoms: O_5  and  C_19
REMARK    4  A    between atoms: O_6  and  C_21
REMARK    5  A    between atoms: C_9  and  C_10
REMARK                            x       y       z     vdW  Elec       q    Type
REMARK                         _______ _______ _______ _____ _____    ______ ____
ROOT
ATOM      1  O   UNL     1     169.211 176.358 139.365  0.00  0.00    +0.000 OA
ATOM      3  O   UNL     1     168.967 180.046 137.650  0.00  0.00    +0.000 OA
ATOM      7  C   UNL     1     167.828 178.168 138.521  0.00  0.00    +0.000 A 
ATOM      8  C   UNL     1     167.983 176.912 139.106  0.00  0.00    +0.000 A 
ATOM      9  C   UNL     1     170.346 177.077 139.021  0.00  0.00    +0.000 A 
ATOM     11  C   UNL     1     169.029 178.938 138.163  0.00  0.00    +0.000 A 
ATOM     12  C   UNL     1     170.327 178.296 138.460  0.00  0.00    +0.000 A 
ATOM     13  C   UNL     1     166.552 178.682 138.281  0.00  0.00    +0.000 A 
ATOM     14  C   UNL     1     166.860 176.163 139.456  0.00  0.00    +0.000 A 
ATOM     16  C   UNL     1     165.584 176.674 139.218  0.00  0.00    +0.000 A 
ATOM     17  C   UNL     1     165.430 177.930 138.632  0.00  0.00    +0.000 A 
ENDROOT
BRANCH   9  10
ATOM     10  C   UNL     1     171.613 176.391 139.348  0.00  0.00    +0.000 A 
ATOM     15  C   UNL     1     171.864 175.109 138.854  0.00  0.00    +0.000 A 
ATOM     18  C   UNL     1     172.564 177.022 140.153  0.00  0.00    +0.000 A 
ATOM     19  C   UNL     1     173.060 174.462 139.163  0.00  0.00    +0.000 A 
ATOM     20  C   UNL     1     173.761 176.375 140.462  0.00  0.00    +0.000 A 
ATOM     21  C   UNL     1     174.009 175.095 139.966  0.00  0.00    +0.000 A 
BRANCH  19   5
ATOM      5  O   UNL     1     173.292 173.211 138.675  0.00  0.00    +0.000 OA
ATOM     24  H   UNL     1     174.048 172.831 139.154  0.00  0.00    +0.000 HD
ENDBRANCH  19   5
BRANCH  21   6
ATOM      6  O   UNL     1     175.181 174.474 140.274  0.00  0.00    +0.000 OA
ATOM     25  H   UNL     1     175.611 174.952 141.003  0.00  0.00    +0.000 HD
ENDBRANCH  21   6
ENDBRANCH   9  10
BRANCH  13   2
ATOM      2  O   UNL     1     166.348 179.903 137.713  0.00  0.00    +0.000 OA
ATOM     22  H   UNL     1     165.488 179.931 137.266  0.00  0.00    +0.000 HD
ENDBRANCH  13   2
BRANCH  16   4
ATOM      4  O   UNL     1     164.485 175.944 139.559  0.00  0.00    +0.000 OA
ATOM     23  H   UNL     1     164.220 175.399 138.798  0.00  0.00    +0.000 HD
ENDBRANCH  16   4
TORSDOF 5
ENDMDL
MODEL 7
REMARK VINA RESULT:      -7.7      1.765      6.831
REMARK  Name = 5280445
REMARK  5 active torsions:
REMARK  status: ('A' for Active; 'I' for Inactive)
REMARK    1  A    between atoms: O_2  and  C_13
REMARK    2  A    between atoms: O_4  and  C_16
REMARK    3  A    between atoms: O_5  and  C_19
REMARK    4  A    between atoms: O_6  and  C_21
REMARK    5  A    between atoms: C_9  and  C_10
REMARK                            x       y       z     vdW  Elec       q    Type
REMARK                         _______ _______ _______ _____ _____    ______ ____
ROOT
ATOM      1  O   UNL     1     180.556 180.911 128.584  0.00  0.00    +0.000 OA
ATOM      3  O   UNL     1     176.688 180.884 129.865  0.00  0.00    +0.000 OA
ATOM      7  C   UNL     1     178.703 182.093 129.618  0.00  0.00    +0.000 A 
ATOM      8  C   UNL     1     180.018 182.035 129.158  0.00  0.00    +0.000 A 
ATOM      9  C   UNL     1     179.758 179.783 128.465  0.00  0.00    +0.000 A 
ATOM     11  C   UNL     1     177.851 180.902 129.485  0.00  0.00    +0.000 A 
ATOM     12  C   UNL     1     178.478 179.717 128.864  0.00  0.00    +0.000 A 
ATOM     13  C   UNL     1     178.208 183.266 130.194  0.00  0.00    +0.000 A 
ATOM     14  C   UNL     1     180.846 183.151 129.270  0.00  0.00    +0.000 A 
ATOM     16  C   UNL     1     180.355 184.324 129.844  0.00  0.00    +0.000 A 
ATOM     17  C   UNL     1     179.039 184.381 130.305  0.00  0.00    +0.000 A 
ENDROOT
BRANCH   9  10
ATOM     10  C   UNL     1     180.434 178.634 127.830  0.00  0.00    +0.000 A 
ATOM     15  C   UNL     1     180.629 178.612 126.447  0.00  0.00    +0.000 A 
ATOM     18  C   UNL     1     180.880 177.564 128.609  0.00  0.00    +0.000 A 
ATOM     19  C   UNL     1     181.267 177.526 125.847  0.00  0.00    +0.000 A 
ATOM     20  C   UNL     1     181.518 176.478 128.009  0.00  0.00    +0.000 A 
ATOM     21  C   UNL     1     181.712 176.459 126.628  0.00  0.00    +0.000 A 
BRANCH  19   5
ATOM      5  O   UNL     1     181.450 177.518 124.496  0.00  0.00    +0.000 OA
ATOM     24  H   UNL     1     182.245 176.994 124.299  0.00  0.00    +0.000 HD
ENDBRANCH  19   5
BRANCH  21   6
ATOM      6  O   UNL     1     182.337 175.395 126.054  0.00  0.00    +0.000 OA
ATOM     25  H   UNL     1     182.531 175.604 125.124  0.00  0.00    +0.000 HD
ENDBRANCH  21   6
ENDBRANCH   9  10
BRANCH  13   2
ATOM      2  O   UNL     1     176.932 183.373 130.658  0.00  0.00    +0.000 OA
ATOM     22  H   UNL     1     176.543 184.220 130.391  0.00  0.00    +0.000 HD
ENDBRANCH  13   2
BRANCH  16   4
ATOM      4  O   UNL     1     181.161 185.416 129.955  0.00  0.00    +0.000 OA
ATOM     23  H   UNL     1     182.053 185.125 130.210  0.00  0.00    +0.000 HD
ENDBRANCH  16   4
TORSDOF 5
ENDMDL
MODEL 8
REMARK VINA RESULT:      -7.7     12.847     14.737
REMARK  Name = 5280445
REMARK  5 active torsions:
REMARK  status: ('A' for Active; 'I' for Inactive)
REMARK    1  A    between atoms: O_2  and  C_13
REMARK    2  A    between atoms: O_4  and  C_16
REMARK    3  A    between atoms: O_5  and  C_19
REMARK    4  A    between atoms: O_6  and  C_21
REMARK    5  A    between atoms: C_9  and  C_10
REMARK                            x       y       z     vdW  Elec       q    Type
REMARK                         _______ _______ _______ _____ _____    ______ ____
ROOT
ATOM      1  O   UNL     1     170.731 176.697 139.910  0.00  0.00    +0.000 OA
ATOM      3  O   UNL     1     173.025 175.333 136.831  0.00  0.00    +0.000 OA
ATOM      7  C   UNL     1     172.741 175.555 139.167  0.00  0.00    +0.000 A 
ATOM      8  C   UNL     1     171.909 176.046 140.172  0.00  0.00    +0.000 A 
ATOM      9  C   UNL     1     170.357 176.881 138.587  0.00  0.00    +0.000 A 
ATOM     11  C   UNL     1     172.345 175.740 137.763  0.00  0.00    +0.000 A 
ATOM     12  C   UNL     1     171.069 176.450 137.534  0.00  0.00    +0.000 A 
ATOM     13  C   UNL     1     173.931 174.899 139.493  0.00  0.00    +0.000 A 
ATOM     14  C   UNL     1     172.262 175.882 141.510  0.00  0.00    +0.000 A 
ATOM     16  C   UNL     1     173.448 175.226 141.840  0.00  0.00    +0.000 A 
ATOM     17  C   UNL     1     174.281 174.736 140.834  0.00  0.00    +0.000 A 
ENDROOT
BRANCH   9  10
ATOM     10  C   UNL     1     169.071 177.588 138.419  0.00  0.00    +0.000 A 
ATOM     15  C   UNL     1     169.044 178.874 137.874  0.00  0.00    +0.000 A 
ATOM     18  C   UNL     1     167.878 176.974 138.805  0.00  0.00    +0.000 A 
ATOM     19  C   UNL     1     167.830 179.541 137.715  0.00  0.00    +0.000 A 
ATOM     20  C   UNL     1     166.663 177.641 138.646  0.00  0.00    +0.000 A 
ATOM     21  C   UNL     1     166.639 178.924 138.101  0.00  0.00    +0.000 A 
BRANCH  19   5
ATOM      5  O   UNL     1     167.818 180.795 137.182  0.00  0.00    +0.000 OA
ATOM     24  H   UNL     1     166.933 181.175 137.316  0.00  0.00    +0.000 HD
ENDBRANCH  19   5
BRANCH  21   6
ATOM      6  O   UNL     1     165.447 179.565 137.950  0.00  0.00    +0.000 OA
ATOM     25  H   UNL     1     165.013 179.241 137.142  0.00  0.00    +0.000 HD
ENDBRANCH  21   6
ENDBRANCH   9  10
BRANCH  13   2
ATOM      2  O   UNL     1     174.777 174.402 138.548  0.00  0.00    +0.000 OA
ATOM     22  H   UNL     1     175.585 174.935 138.501  0.00  0.00    +0.000 HD
ENDBRANCH  13   2
BRANCH  16   4
ATOM      4  O   UNL     1     173.795 175.064 143.147  0.00  0.00    +0.000 OA
ATOM     23  H   UNL     1     173.090 174.574 143.603  0.00  0.00    +0.000 HD
ENDBRANCH  16   4
TORSDOF 5
ENDMDL
MODEL 9
REMARK VINA RESULT:      -7.6     36.176     37.457
REMARK  Name = 5280445
REMARK  5 active torsions:
REMARK  status: ('A' for Active; 'I' for Inactive)
REMARK    1  A    between atoms: O_2  and  C_13
REMARK    2  A    between atoms: O_4  and  C_16
REMARK    3  A    between atoms: O_5  and  C_19
REMARK    4  A    between atoms: O_6  and  C_21
REMARK    5  A    between atoms: C_9  and  C_10
REMARK                            x       y       z     vdW  Elec       q    Type
REMARK                         _______ _______ _______ _____ _____    ______ ____
ROOT
ATOM      1  O   UNL     1     191.461 183.174 163.004  0.00  0.00    +0.000 OA
ATOM      3  O   UNL     1     191.535 181.035 166.471  0.00  0.00    +0.000 OA
ATOM      7  C   UNL     1     192.729 181.862 164.606  0.00  0.00    +0.000 A 
ATOM      8  C   UNL     1     192.634 182.606 163.432  0.00  0.00    +0.000 A 
ATOM      9  C   UNL     1     190.320 182.993 163.771  0.00  0.00    +0.000 A 
ATOM     11  C   UNL     1     191.523 181.674 165.428  0.00  0.00    +0.000 A 
ATOM     12  C   UNL     1     190.286 182.303 164.922  0.00  0.00    +0.000 A 
ATOM     13  C   UNL     1     193.951 181.306 164.993  0.00  0.00    +0.000 A 
ATOM     14  C   UNL     1     193.763 182.800 162.636  0.00  0.00    +0.000 A 
ATOM     16  C   UNL     1     194.985 182.247 163.020  0.00  0.00    +0.000 A 
ATOM     17  C   UNL     1     195.079 181.502 164.195  0.00  0.00    +0.000 A 
ENDROOT
BRANCH   9  10
ATOM     10  C   UNL     1     189.117 183.650 163.222  0.00  0.00    +0.000 A 
ATOM     15  C   UNL     1     187.870 183.440 163.816  0.00  0.00    +0.000 A 
ATOM     18  C   UNL     1     189.221 184.485 162.107  0.00  0.00    +0.000 A 
ATOM     19  C   UNL     1     186.734 184.061 163.298  0.00  0.00    +0.000 A 
ATOM     20  C   UNL     1     188.084 185.106 161.589  0.00  0.00    +0.000 A 
ATOM     21  C   UNL     1     186.841 184.895 162.185  0.00  0.00    +0.000 A 
BRANCH  19   5
ATOM      5  O   UNL     1     185.524 183.846 163.888  0.00  0.00    +0.000 OA
ATOM     24  H   UNL     1     185.264 184.657 164.356  0.00  0.00    +0.000 HD
ENDBRANCH  19   5
BRANCH  21   6
ATOM      6  O   UNL     1     185.739 185.507 161.670  0.00  0.00    +0.000 OA
ATOM     25  H   UNL     1     185.449 185.024 160.878  0.00  0.00    +0.000 HD
ENDBRANCH  21   6
ENDBRANCH   9  10
BRANCH  13   2
ATOM      2  O   UNL     1     194.095 180.571 166.131  0.00  0.00    +0.000 OA
ATOM     22  H   UNL     1     194.817 179.931 166.034  0.00  0.00    +0.000 HD
ENDBRANCH  13   2
BRANCH  16   4
ATOM      4  O   UNL     1     196.089 182.435 162.245  0.00  0.00    +0.000 OA
ATOM     23  H   UNL     1     195.891 182.149 161.337  0.00  0.00    +0.000 HD
ENDBRANCH  16   4
TORSDOF 5
ENDMDL
