MODEL 1
REMARK VINA RESULT:      -8.9      0.000      0.000
REMARK  5 active torsions:
REMARK  status: ('A' for Active; 'I' for Inactive)
REMARK    1  A    between atoms: O_2  and  C_13 
REMARK    2  A    between atoms: O_4  and  C_16 
REMARK    3  A    between atoms: O_5  and  C_19 
REMARK    4  A    between atoms: O_6  and  C_21 
REMARK    5  A    between atoms: C_9  and  C_10 
ROOT
HETATM    1  O   UNK     0     185.962 176.749 177.969  0.00  0.00    -0.309 OA
HETATM    2  O   UNK     0     184.709 177.724 181.721  0.00  0.00    -0.287 OA
HETATM    3  C   UNK     0     184.278 177.760 179.398  0.00  0.00     0.081 A 
HETATM    4  C   UNK     0     184.765 177.397 178.144  0.00  0.00     0.095 A 
HETATM    5  C   UNK     0     186.722 176.451 179.090  0.00  0.00     0.090 A 
HETATM    6  C   UNK     0     185.077 177.437 180.591  0.00  0.00     0.190 A 
HETATM    7  C   UNK     0     186.358 176.743 180.349  0.00  0.00     0.094 A 
HETATM    8  C   UNK     0     183.052 178.418 179.516  0.00  0.00     0.085 A 
HETATM    9  C   UNK     0     184.027 177.689 176.998  0.00  0.00     0.075 A 
HETATM   10  C   UNK     0     182.801 178.346 177.111  0.00  0.00     0.071 A 
HETATM   11  C   UNK     0     182.315 178.709 178.367  0.00  0.00     0.074 A 
ENDROOT
BRANCH   5  12
HETATM   12  C   UNK     0     187.986 175.750 178.789  0.00  0.00     0.001 A 
HETATM   13  C   UNK     0     188.123 174.392 179.085  0.00  0.00     0.053 A 
HETATM   14  C   UNK     0     189.317 173.730 178.801  0.00  0.00     0.099 A 
HETATM   15  C   UNK     0     190.379 174.424 178.220  0.00  0.00     0.098 A 
HETATM   16  C   UNK     0     190.246 175.781 177.924  0.00  0.00     0.040 A 
HETATM   17  C   UNK     0     189.051 176.443 178.209  0.00  0.00     0.017 A 
BRANCH  14  18
HETATM   18  O   UNK     0     189.436 172.405 179.095  0.00  0.00    -0.358 OA
HETATM   19  H   UNK     0     188.940 171.898 178.430  0.00  0.00     0.217 HD
ENDBRANCH  14  18
BRANCH  15  20
HETATM   20  O   UNK     0     191.550 173.789 177.937  0.00  0.00    -0.358 OA
HETATM   21  H   UNK     0     192.034 174.301 177.268  0.00  0.00     0.217 HD
ENDBRANCH  15  20
ENDBRANCH   5  12
BRANCH   8  22
HETATM   22  O   UNK     0     182.533 178.793 180.718  0.00  0.00    -0.360 OA
HETATM   23  H   UNK     0     181.575 178.639 180.738  0.00  0.00     0.217 HD
ENDBRANCH   8  22
BRANCH  10  24
HETATM   24  O   UNK     0     182.078 178.633 175.993  0.00  0.00    -0.361 OA
HETATM   25  H   UNK     0     182.316 179.523 175.683  0.00  0.00     0.217 HD
ENDBRANCH  10  24
TORSDOF 5
ENDMDL
MODEL 2
REMARK VINA RESULT:      -8.8      1.920      7.295
REMARK  5 active torsions:
REMARK  status: ('A' for Active; 'I' for Inactive)
REMARK    1  A    between atoms: O_2  and  C_13 
REMARK    2  A    between atoms: O_4  and  C_16 
REMARK    3  A    between atoms: O_5  and  C_19 
REMARK    4  A    between atoms: O_6  and  C_21 
REMARK    5  A    between atoms: C_9  and  C_10 
ROOT
HETATM    1  O   UNK     0     187.722 176.964 179.384  0.00  0.00    -0.309 OA
HETATM    2  O   UNK     0     188.709 173.852 176.947  0.00  0.00    -0.287 OA
HETATM    3  C   UNK     0     189.445 175.560 178.403  0.00  0.00     0.081 A 
HETATM    4  C   UNK     0     189.038 176.612 179.221  0.00  0.00     0.095 A 
HETATM    5  C   UNK     0     186.757 176.244 178.697  0.00  0.00     0.090 A 
HETATM    6  C   UNK     0     188.423 174.788 177.679  0.00  0.00     0.190 A 
HETATM    7  C   UNK     0     187.021 175.208 177.885  0.00  0.00     0.094 A 
HETATM    8  C   UNK     0     190.800 175.248 178.276  0.00  0.00     0.085 A 
HETATM    9  C   UNK     0     189.986 177.359 179.920  0.00  0.00     0.075 A 
HETATM   10  C   UNK     0     191.341 177.049 179.797  0.00  0.00     0.071 A 
HETATM   11  C   UNK     0     191.747 175.997 178.976  0.00  0.00     0.074 A 
ENDROOT
BRANCH   5  12
HETATM   12  C   UNK     0     185.375 176.701 178.947  0.00  0.00     0.001 A 
HETATM   13  C   UNK     0     185.013 178.023 178.679  0.00  0.00     0.053 A 
HETATM   14  C   UNK     0     183.709 178.455 178.916  0.00  0.00     0.099 A 
HETATM   15  C   UNK     0     182.760 177.565 179.421  0.00  0.00     0.098 A 
HETATM   16  C   UNK     0     183.118 176.245 179.691  0.00  0.00     0.040 A 
HETATM   17  C   UNK     0     184.424 175.813 179.454  0.00  0.00     0.017 A 
BRANCH  14  18
HETATM   18  O   UNK     0     183.371 179.748 178.650  0.00  0.00    -0.358 OA
HETATM   19  H   UNK     0     183.958 180.329 179.163  0.00  0.00     0.217 HD
ENDBRANCH  14  18
BRANCH  15  20
HETATM   20  O   UNK     0     181.483 177.974 179.656  0.00  0.00    -0.358 OA
HETATM   21  H   UNK     0     181.504 178.813 180.146  0.00  0.00     0.217 HD
ENDBRANCH  15  20
ENDBRANCH   5  12
BRANCH   8  22
HETATM   22  O   UNK     0     191.248 174.230 177.490  0.00  0.00    -0.360 OA
HETATM   23  H   UNK     0     191.996 173.779 177.910  0.00  0.00     0.217 HD
ENDBRANCH   8  22
BRANCH  10  24
HETATM   24  O   UNK     0     192.270 177.777 180.478  0.00  0.00    -0.361 OA
HETATM   25  H   UNK     0     192.171 177.603 181.429  0.00  0.00     0.217 HD
ENDBRANCH  10  24
TORSDOF 5
ENDMDL
MODEL 3
REMARK VINA RESULT:      -8.5      1.919      2.158
REMARK  5 active torsions:
REMARK  status: ('A' for Active; 'I' for Inactive)
REMARK    1  A    between atoms: O_2  and  C_13 
REMARK    2  A    between atoms: O_4  and  C_16 
REMARK    3  A    between atoms: O_5  and  C_19 
REMARK    4  A    between atoms: O_6  and  C_21 
REMARK    5  A    between atoms: C_9  and  C_10 
ROOT
HETATM    1  O   UNK     0     187.535 177.026 179.006  0.00  0.00    -0.309 OA
HETATM    2  O   UNK     0     185.338 177.845 182.338  0.00  0.00    -0.287 OA
HETATM    3  C   UNK     0     185.412 177.695 179.982  0.00  0.00     0.081 A 
HETATM    4  C   UNK     0     186.220 177.400 178.885  0.00  0.00     0.095 A 
HETATM    5  C   UNK     0     188.084 176.948 180.277  0.00  0.00     0.090 A 
HETATM    6  C   UNK     0     185.989 177.603 181.332  0.00  0.00     0.190 A 
HETATM    7  C   UNK     0     187.409 177.200 181.409  0.00  0.00     0.094 A 
HETATM    8  C   UNK     0     184.080 178.069 179.797  0.00  0.00     0.085 A 
HETATM    9  C   UNK     0     185.698 177.477 177.594  0.00  0.00     0.075 A 
HETATM   10  C   UNK     0     184.367 177.850 177.406  0.00  0.00     0.071 A 
HETATM   11  C   UNK     0     183.560 178.146 178.505  0.00  0.00     0.074 A 
ENDROOT
BRANCH   5  12
HETATM   12  C   UNK     0     189.501 176.533 180.294  0.00  0.00     0.001 A 
HETATM   13  C   UNK     0     189.912 175.410 179.572  0.00  0.00     0.053 A 
HETATM   14  C   UNK     0     191.250 175.018 179.588  0.00  0.00     0.099 A 
HETATM   15  C   UNK     0     192.183 175.748 180.326  0.00  0.00     0.098 A 
HETATM   16  C   UNK     0     191.776 176.869 181.048  0.00  0.00     0.040 A 
HETATM   17  C   UNK     0     190.437 177.261 181.032  0.00  0.00     0.017 A 
BRANCH  14  18
HETATM   18  O   UNK     0     191.636 173.919 178.879  0.00  0.00    -0.358 OA
HETATM   19  H   UNK     0     191.358 173.127 179.368  0.00  0.00     0.217 HD
ENDBRANCH  14  18
BRANCH  15  20
HETATM   20  O   UNK     0     193.492 175.375 180.348  0.00  0.00    -0.358 OA
HETATM   21  H   UNK     0     193.549 174.410 180.244  0.00  0.00     0.217 HD
ENDBRANCH  15  20
ENDBRANCH   5  12
BRANCH   8  22
HETATM   22  O   UNK     0     183.251 178.367 180.837  0.00  0.00    -0.360 OA
HETATM   23  H   UNK     0     182.396 178.686 180.509  0.00  0.00     0.217 HD
ENDBRANCH   8  22
BRANCH  10  24
HETATM   24  O   UNK     0     183.853 177.926 176.146  0.00  0.00    -0.361 OA
HETATM   25  H   UNK     0     183.856 177.038 175.750  0.00  0.00     0.217 HD
ENDBRANCH  10  24
TORSDOF 5
ENDMDL
MODEL 4
REMARK VINA RESULT:      -8.4      2.038      6.884
REMARK  5 active torsions:
REMARK  status: ('A' for Active; 'I' for Inactive)
REMARK    1  A    between atoms: O_2  and  C_13 
REMARK    2  A    between atoms: O_4  and  C_16 
REMARK    3  A    between atoms: O_5  and  C_19 
REMARK    4  A    between atoms: O_6  and  C_21 
REMARK    5  A    between atoms: C_9  and  C_10 
ROOT
HETATM    1  O   UNK     0     187.545 176.687 178.725  0.00  0.00    -0.309 OA
HETATM    2  O   UNK     0     189.230 177.899 182.231  0.00  0.00    -0.287 OA
HETATM    3  C   UNK     0     189.516 176.842 180.137  0.00  0.00     0.081 A 
HETATM    4  C   UNK     0     188.877 176.455 178.961  0.00  0.00     0.095 A 
HETATM    5  C   UNK     0     186.802 177.327 179.706  0.00  0.00     0.090 A 
HETATM    6  C   UNK     0     188.733 177.530 181.176  0.00  0.00     0.190 A 
HETATM    7  C   UNK     0     187.304 177.753 180.876  0.00  0.00     0.094 A 
HETATM    8  C   UNK     0     190.875 176.580 180.322  0.00  0.00     0.085 A 
HETATM    9  C   UNK     0     189.595 175.803 177.959  0.00  0.00     0.075 A 
HETATM   10  C   UNK     0     190.954 175.540 178.139  0.00  0.00     0.071 A 
HETATM   11  C   UNK     0     191.592 175.928 179.318  0.00  0.00     0.074 A 
ENDROOT
BRANCH   5  12
HETATM   12  C   UNK     0     185.385 177.530 179.348  0.00  0.00     0.001 A 
HETATM   13  C   UNK     0     185.031 177.862 178.038  0.00  0.00     0.053 A 
HETATM   14  C   UNK     0     183.692 178.054 177.700  0.00  0.00     0.099 A 
HETATM   15  C   UNK     0     182.701 177.915 178.672  0.00  0.00     0.098 A 
HETATM   16  C   UNK     0     183.049 177.585 179.981  0.00  0.00     0.040 A 
HETATM   17  C   UNK     0     184.389 177.393 180.319  0.00  0.00     0.017 A 
BRANCH  14  18
HETATM   18  O   UNK     0     183.363 178.378 176.418  0.00  0.00    -0.358 OA
HETATM   19  H   UNK     0     184.152 178.261 175.861  0.00  0.00     0.217 HD
ENDBRANCH  14  18
BRANCH  15  20
HETATM   20  O   UNK     0     181.389 178.099 178.354  0.00  0.00    -0.358 OA
HETATM   21  H   UNK     0     181.075 177.331 177.847  0.00  0.00     0.217 HD
ENDBRANCH  15  20
ENDBRANCH   5  12
BRANCH   8  22
HETATM   22  O   UNK     0     191.544 176.938 181.453  0.00  0.00    -0.360 OA
HETATM   23  H   UNK     0     192.289 176.339 181.611  0.00  0.00     0.217 HD
ENDBRANCH   8  22
BRANCH  10  24
HETATM   24  O   UNK     0     191.659 174.904 177.163  0.00  0.00    -0.361 OA
HETATM   25  H   UNK     0     191.778 175.511 176.413  0.00  0.00     0.217 HD
ENDBRANCH  10  24
TORSDOF 5
ENDMDL
MODEL 5
REMARK VINA RESULT:      -8.2      1.230      2.634
REMARK  5 active torsions:
REMARK  status: ('A' for Active; 'I' for Inactive)
REMARK    1  A    between atoms: O_2  and  C_13 
REMARK    2  A    between atoms: O_4  and  C_16 
REMARK    3  A    between atoms: O_5  and  C_19 
REMARK    4  A    between atoms: O_6  and  C_21 
REMARK    5  A    between atoms: C_9  and  C_10 
ROOT
HETATM    1  O   UNK     0     185.988 176.543 179.961  0.00  0.00    -0.309 OA
HETATM    2  O   UNK     0     184.506 178.033 176.471  0.00  0.00    -0.287 OA
HETATM    3  C   UNK     0     184.198 177.692 178.789  0.00  0.00     0.081 A 
HETATM    4  C   UNK     0     184.764 177.161 179.946  0.00  0.00     0.095 A 
HETATM    5  C   UNK     0     186.688 176.435 178.769  0.00  0.00     0.090 A 
HETATM    6  C   UNK     0     184.941 177.588 177.524  0.00  0.00     0.190 A 
HETATM    7  C   UNK     0     186.253 176.911 177.592  0.00  0.00     0.094 A 
HETATM    8  C   UNK     0     182.947 178.310 178.834  0.00  0.00     0.085 A 
HETATM    9  C   UNK     0     184.081 177.247 181.159  0.00  0.00     0.075 A 
HETATM   10  C   UNK     0     182.831 177.865 181.208  0.00  0.00     0.071 A 
HETATM   11  C   UNK     0     182.265 178.395 180.049  0.00  0.00     0.074 A 
ENDROOT
BRANCH   5  12
HETATM   12  C   UNK     0     187.994 175.760 178.899  0.00  0.00     0.001 A 
HETATM   13  C   UNK     0     188.062 174.365 178.942  0.00  0.00     0.053 A 
HETATM   14  C   UNK     0     189.296 173.726 179.065  0.00  0.00     0.099 A 
HETATM   15  C   UNK     0     190.467 174.481 179.144  0.00  0.00     0.098 A 
HETATM   16  C   UNK     0     190.404 175.873 179.101  0.00  0.00     0.040 A 
HETATM   17  C   UNK     0     189.169 176.512 178.979  0.00  0.00     0.017 A 
BRANCH  14  18
HETATM   18  O   UNK     0     189.346 172.365 179.106  0.00  0.00    -0.358 OA
HETATM   19  H   UNK     0     188.441 172.023 179.006  0.00  0.00     0.217 HD
ENDBRANCH  14  18
BRANCH  15  20
HETATM   20  O   UNK     0     191.678 173.868 179.262  0.00  0.00    -0.358 OA
HETATM   21  H   UNK     0     191.813 173.283 178.498  0.00  0.00     0.217 HD
ENDBRANCH  15  20
ENDBRANCH   5  12
BRANCH   8  22
HETATM   22  O   UNK     0     182.352 178.844 177.731  0.00  0.00    -0.360 OA
HETATM   23  H   UNK     0     182.656 178.392 176.928  0.00  0.00     0.217 HD
ENDBRANCH   8  22
BRANCH  10  24
HETATM   24  O   UNK     0     182.161 177.952 182.391  0.00  0.00    -0.361 OA
HETATM   25  H   UNK     0     182.541 177.311 183.017  0.00  0.00     0.217 HD
ENDBRANCH  10  24
TORSDOF 5
ENDMDL
MODEL 6
REMARK VINA RESULT:      -8.1     34.854     37.339
REMARK  5 active torsions:
REMARK  status: ('A' for Active; 'I' for Inactive)
REMARK    1  A    between atoms: O_2  and  C_13 
REMARK    2  A    between atoms: O_4  and  C_16 
REMARK    3  A    between atoms: O_5  and  C_19 
REMARK    4  A    between atoms: O_6  and  C_21 
REMARK    5  A    between atoms: C_9  and  C_10 
ROOT
HETATM    1  O   UNK     0     170.289 164.269 146.977  0.00  0.00    -0.309 OA
HETATM    2  O   UNK     0     167.714 162.199 149.361  0.00  0.00    -0.287 OA
HETATM    3  C   UNK     0     168.579 162.558 147.191  0.00  0.00     0.081 A 
HETATM    4  C   UNK     0     169.482 163.302 146.435  0.00  0.00     0.095 A 
HETATM    5  C   UNK     0     170.195 164.522 148.337  0.00  0.00     0.090 A 
HETATM    6  C   UNK     0     168.482 162.816 148.636  0.00  0.00     0.190 A 
HETATM    7  C   UNK     0     169.370 163.869 149.171  0.00  0.00     0.094 A 
HETATM    8  C   UNK     0     167.782 161.585 146.584  0.00  0.00     0.085 A 
HETATM    9  C   UNK     0     169.594 163.076 145.063  0.00  0.00     0.075 A 
HETATM   10  C   UNK     0     168.800 162.104 144.453  0.00  0.00     0.071 A 
HETATM   11  C   UNK     0     167.896 161.361 145.212  0.00  0.00     0.074 A 
ENDROOT
BRANCH   5  12
HETATM   12  C   UNK     0     171.110 165.576 148.817  0.00  0.00     0.001 A 
HETATM   13  C   UNK     0     172.389 165.698 148.269  0.00  0.00     0.053 A 
HETATM   14  C   UNK     0     173.254 166.694 148.722  0.00  0.00     0.099 A 
HETATM   15  C   UNK     0     172.842 167.572 149.726  0.00  0.00     0.098 A 
HETATM   16  C   UNK     0     171.566 167.452 150.276  0.00  0.00     0.040 A 
HETATM   17  C   UNK     0     170.701 166.456 149.822  0.00  0.00     0.017 A 
BRANCH  14  18
HETATM   18  O   UNK     0     174.499 166.801 148.178  0.00  0.00    -0.358 OA
HETATM   19  H   UNK     0     174.958 165.952 148.297  0.00  0.00     0.217 HD
ENDBRANCH  14  18
BRANCH  15  20
HETATM   20  O   UNK     0     173.677 168.549 150.176  0.00  0.00    -0.358 OA
HETATM   21  H   UNK     0     173.750 169.241 149.497  0.00  0.00     0.217 HD
ENDBRANCH  15  20
ENDBRANCH   5  12
BRANCH   8  22
HETATM   22  O   UNK     0     166.885 160.832 147.281  0.00  0.00    -0.360 OA
HETATM   23  H   UNK     0     166.729 161.214 148.158  0.00  0.00     0.217 HD
ENDBRANCH   8  22
BRANCH  10  24
HETATM   24  O   UNK     0     168.908 161.881 143.114  0.00  0.00    -0.361 OA
HETATM   25  H   UNK     0     168.221 162.392 142.652  0.00  0.00     0.217 HD
ENDBRANCH  10  24
TORSDOF 5
ENDMDL
MODEL 7
REMARK VINA RESULT:      -8.1      3.177      8.527
REMARK  5 active torsions:
REMARK  status: ('A' for Active; 'I' for Inactive)
REMARK    1  A    between atoms: O_2  and  C_13 
REMARK    2  A    between atoms: O_4  and  C_16 
REMARK    3  A    between atoms: O_5  and  C_19 
REMARK    4  A    between atoms: O_6  and  C_21 
REMARK    5  A    between atoms: C_9  and  C_10 
ROOT
HETATM    1  O   UNK     0     181.900 177.505 179.557  0.00  0.00    -0.309 OA
HETATM    2  O   UNK     0     184.239 178.110 176.277  0.00  0.00    -0.287 OA
HETATM    3  C   UNK     0     184.123 177.603 178.582  0.00  0.00     0.081 A 
HETATM    4  C   UNK     0     183.265 177.407 179.662  0.00  0.00     0.095 A 
HETATM    5  C   UNK     0     181.354 177.821 178.323  0.00  0.00     0.090 A 
HETATM    6  C   UNK     0     183.546 177.928 177.268  0.00  0.00     0.190 A 
HETATM    7  C   UNK     0     182.073 178.025 177.208  0.00  0.00     0.094 A 
HETATM    8  C   UNK     0     185.505 177.490 178.748  0.00  0.00     0.085 A 
HETATM    9  C   UNK     0     183.785 177.096 180.918  0.00  0.00     0.075 A 
HETATM   10  C   UNK     0     185.165 176.982 181.088  0.00  0.00     0.071 A 
HETATM   11  C   UNK     0     186.022 177.179 180.006  0.00  0.00     0.074 A 
ENDROOT
BRANCH   5  12
HETATM   12  C   UNK     0     179.880 177.895 178.320  0.00  0.00     0.001 A 
HETATM   13  C   UNK     0     179.203 178.398 177.206  0.00  0.00     0.053 A 
HETATM   14  C   UNK     0     177.811 178.469 177.203  0.00  0.00     0.099 A 
HETATM   15  C   UNK     0     177.088 178.036 178.316  0.00  0.00     0.098 A 
HETATM   16  C   UNK     0     177.759 177.534 179.430  0.00  0.00     0.040 A 
HETATM   17  C   UNK     0     179.153 177.463 179.433  0.00  0.00     0.017 A 
BRANCH  14  18
HETATM   18  O   UNK     0     177.166 178.962 176.109  0.00  0.00    -0.358 OA
HETATM   19  H   UNK     0     177.718 178.793 175.327  0.00  0.00     0.217 HD
ENDBRANCH  14  18
BRANCH  15  20
HETATM   20  O   UNK     0     175.728 178.098 178.325  0.00  0.00    -0.358 OA
HETATM   21  H   UNK     0     175.404 178.072 177.409  0.00  0.00     0.217 HD
ENDBRANCH  15  20
ENDBRANCH   5  12
BRANCH   8  22
HETATM   22  O   UNK     0     186.384 177.671 177.723  0.00  0.00    -0.360 OA
HETATM   23  H   UNK     0     185.991 178.227 177.032  0.00  0.00     0.217 HD
ENDBRANCH   8  22
BRANCH  10  24
HETATM   24  O   UNK     0     185.676 176.678 182.313  0.00  0.00    -0.361 OA
HETATM   25  H   UNK     0     184.997 176.217 182.834  0.00  0.00     0.217 HD
ENDBRANCH  10  24
TORSDOF 5
ENDMDL
MODEL 8
REMARK VINA RESULT:      -8.0     40.714     41.443
REMARK  5 active torsions:
REMARK  status: ('A' for Active; 'I' for Inactive)
REMARK    1  A    between atoms: O_2  and  C_13 
REMARK    2  A    between atoms: O_4  and  C_16 
REMARK    3  A    between atoms: O_5  and  C_19 
REMARK    4  A    between atoms: O_6  and  C_21 
REMARK    5  A    between atoms: C_9  and  C_10 
ROOT
HETATM    1  O   UNK     0     148.532 176.983 162.466  0.00  0.00    -0.309 OA
HETATM    2  O   UNK     0     148.495 181.056 162.453  0.00  0.00    -0.287 OA
HETATM    3  C   UNK     0     148.116 179.059 163.656  0.00  0.00     0.081 A 
HETATM    4  C   UNK     0     148.152 177.667 163.592  0.00  0.00     0.095 A 
HETATM    5  C   UNK     0     148.888 177.710 161.339  0.00  0.00     0.090 A 
HETATM    6  C   UNK     0     148.501 179.834 162.467  0.00  0.00     0.190 A 
HETATM    7  C   UNK     0     148.899 179.051 161.279  0.00  0.00     0.094 A 
HETATM    8  C   UNK     0     147.721 179.701 164.831  0.00  0.00     0.085 A 
HETATM    9  C   UNK     0     147.794 176.908 164.706  0.00  0.00     0.075 A 
HETATM   10  C   UNK     0     147.399 177.547 165.882  0.00  0.00     0.071 A 
HETATM   11  C   UNK     0     147.362 178.940 165.944  0.00  0.00     0.074 A 
ENDROOT
BRANCH   5  12
HETATM   12  C   UNK     0     149.284 176.877 160.187  0.00  0.00     0.001 A 
HETATM   13  C   UNK     0     148.358 176.018 159.590  0.00  0.00     0.053 A 
HETATM   14  C   UNK     0     148.733 175.231 158.501  0.00  0.00     0.099 A 
HETATM   15  C   UNK     0     150.036 175.300 158.006  0.00  0.00     0.098 A 
HETATM   16  C   UNK     0     150.963 176.155 158.600  0.00  0.00     0.040 A 
HETATM   17  C   UNK     0     150.588 176.942 159.689  0.00  0.00     0.017 A 
BRANCH  14  18
HETATM   18  O   UNK     0     147.819 174.398 157.929  0.00  0.00    -0.358 OA
HETATM   19  H   UNK     0     147.705 173.625 158.508  0.00  0.00     0.217 HD
ENDBRANCH  14  18
BRANCH  15  20
HETATM   20  O   UNK     0     150.413 174.537 156.943  0.00  0.00    -0.358 OA
HETATM   21  H   UNK     0     150.247 175.031 156.123  0.00  0.00     0.217 HD
ENDBRANCH  15  20
ENDBRANCH   5  12
BRANCH   8  22
HETATM   22  O   UNK     0     147.669 181.058 164.944  0.00  0.00    -0.360 OA
HETATM   23  H   UNK     0     147.228 181.314 165.768  0.00  0.00     0.217 HD
ENDBRANCH   8  22
BRANCH  10  24
HETATM   24  O   UNK     0     147.048 176.809 166.972  0.00  0.00    -0.361 OA
HETATM   25  H   UNK     0     146.601 175.999 166.674  0.00  0.00     0.217 HD
ENDBRANCH  10  24
TORSDOF 5
ENDMDL
MODEL 9
REMARK VINA RESULT:      -8.0     34.914     39.623
REMARK  5 active torsions:
REMARK  status: ('A' for Active; 'I' for Inactive)
REMARK    1  A    between atoms: O_2  and  C_13 
REMARK    2  A    between atoms: O_4  and  C_16 
REMARK    3  A    between atoms: O_5  and  C_19 
REMARK    4  A    between atoms: O_6  and  C_21 
REMARK    5  A    between atoms: C_9  and  C_10 
ROOT
HETATM    1  O   UNK     0     156.241 188.242 157.039  0.00  0.00    -0.309 OA
HETATM    2  O   UNK     0     155.426 186.128 160.425  0.00  0.00    -0.287 OA
HETATM    3  C   UNK     0     157.029 187.278 159.126  0.00  0.00     0.081 A 
HETATM    4  C   UNK     0     157.238 187.995 157.949  0.00  0.00     0.095 A 
HETATM    5  C   UNK     0     154.971 187.748 157.301  0.00  0.00     0.090 A 
HETATM    6  C   UNK     0     155.681 186.761 159.411  0.00  0.00     0.190 A 
HETATM    7  C   UNK     0     154.644 187.051 158.400  0.00  0.00     0.094 A 
HETATM    8  C   UNK     0     158.082 187.059 160.015  0.00  0.00     0.085 A 
HETATM    9  C   UNK     0     158.505 188.498 157.654  0.00  0.00     0.075 A 
HETATM   10  C   UNK     0     159.560 188.280 158.541  0.00  0.00     0.071 A 
HETATM   11  C   UNK     0     159.349 187.562 159.718  0.00  0.00     0.074 A 
ENDROOT
BRANCH   5  12
HETATM   12  C   UNK     0     153.975 188.075 156.262  0.00  0.00     0.001 A 
HETATM   13  C   UNK     0     152.630 187.744 156.450  0.00  0.00     0.053 A 
HETATM   14  C   UNK     0     151.689 188.053 155.469  0.00  0.00     0.099 A 
HETATM   15  C   UNK     0     152.088 188.694 154.296  0.00  0.00     0.098 A 
HETATM   16  C   UNK     0     153.429 189.025 154.104  0.00  0.00     0.040 A 
HETATM   17  C   UNK     0     154.371 188.716 155.086  0.00  0.00     0.017 A 
BRANCH  14  18
HETATM   18  O   UNK     0     150.381 187.724 155.666  0.00  0.00    -0.358 OA
HETATM   19  H   UNK     0     149.831 188.469 155.372  0.00  0.00     0.217 HD
ENDBRANCH  14  18
BRANCH  15  20
HETATM   20  O   UNK     0     151.178 189.001 153.331  0.00  0.00    -0.358 OA
HETATM   21  H   UNK     0     151.099 189.968 153.266  0.00  0.00     0.217 HD
ENDBRANCH  15  20
ENDBRANCH   5  12
BRANCH   8  22
HETATM   22  O   UNK     0     157.928 186.365 161.177  0.00  0.00    -0.360 OA
HETATM   23  H   UNK     0     158.790 186.082 161.521  0.00  0.00     0.217 HD
ENDBRANCH   8  22
BRANCH  10  24
HETATM   24  O   UNK     0     160.799 188.770 158.257  0.00  0.00    -0.361 OA
HETATM   25  H   UNK     0     161.339 188.059 157.872  0.00  0.00     0.217 HD
ENDBRANCH  10  24
TORSDOF 5
ENDMDL
