MODEL 1
REMARK VINA RESULT:      -6.8      0.000      0.000
REMARK  10 active torsions:
REMARK  status: ('A' for Active; 'I' for Inactive)
REMARK    1  A    between atoms: O_2  and  C_12 
REMARK    2  A    between atoms: O_2  and  C_14 
REMARK    3  A    between atoms: O_3  and  C_8 
REMARK    4  A    between atoms: O_4  and  C_9 
REMARK    5  A    between atoms: O_5  and  C_10 
REMARK    6  A    between atoms: O_6  and  C_13 
REMARK    7  A    between atoms: O_7  and  C_21 
REMARK    8  A    between atoms: C_11  and  C_13 
REMARK    9  A    between atoms: C_14  and  C_15 
REMARK   10  A    between atoms: C_15  and  C_16 
ROOT
HETATM    1  O   UNK     0       6.577  44.569  20.832  0.00  0.00    -0.348 OA
HETATM    2  C   UNK     0       8.803  45.965  19.674  0.00  0.00     0.183 C 
HETATM    3  C   UNK     0       7.806  45.169  18.832  0.00  0.00     0.180 C 
HETATM    4  C   UNK     0       8.804  45.489  21.127  0.00  0.00     0.204 C 
HETATM    5  C   UNK     0       6.440  45.111  19.517  0.00  0.00     0.179 C 
HETATM    6  C   UNK     0       7.383  45.384  21.679  0.00  0.00     0.291 C 
ENDROOT
BRANCH   5   7
HETATM    7  C   UNK     0       5.462  44.224  18.755  0.00  0.00     0.198 C 
BRANCH   7   8
HETATM    8  O   UNK     0       4.838  45.000  17.748  0.00  0.00    -0.398 OA
HETATM    9  H   UNK     0       4.044  45.403  18.137  0.00  0.00     0.209 HD
ENDBRANCH   7   8
ENDBRANCH   5   7
BRANCH   6  10
HETATM   10  O   UNK     0       7.459  44.801  22.979  0.00  0.00    -0.358 OA
BRANCH  10  11
HETATM   11  C   UNK     0       6.363  45.200  23.789  0.00  0.00     0.175 C 
BRANCH  11  12
HETATM   12  C   UNK     0       5.688  43.969  24.384  0.00  0.00     0.065 C 
BRANCH  12  13
HETATM   13  C   UNK     0       4.459  43.558  23.609  0.00  0.00    -0.056 A 
HETATM   14  C   UNK     0       3.989  44.377  22.597  0.00  0.00     0.010 A 
HETATM   15  C   UNK     0       2.854  43.997  21.881  0.00  0.00     0.037 A 
HETATM   16  C   UNK     0       2.204  42.801  22.188  0.00  0.00     0.065 A 
HETATM   17  C   UNK     0       2.689  41.986  23.210  0.00  0.00     0.037 A 
HETATM   18  C   UNK     0       3.824  42.367  23.925  0.00  0.00     0.010 A 
BRANCH  16  19
HETATM   19  O   UNK     0       1.096  42.430  21.489  0.00  0.00    -0.361 OA
HETATM   20  H   UNK     0       0.800  41.560  21.807  0.00  0.00     0.217 HD
ENDBRANCH  16  19
ENDBRANCH  12  13
ENDBRANCH  11  12
ENDBRANCH  10  11
ENDBRANCH   6  10
BRANCH   3  21
HETATM   21  O   UNK     0       7.666  45.788  17.556  0.00  0.00    -0.390 OA
HETATM   22  H   UNK     0       8.495  46.256  17.356  0.00  0.00     0.210 HD
ENDBRANCH   3  21
BRANCH   4  23
HETATM   23  O   UNK     0       9.529  46.420  21.930  0.00  0.00    -0.388 OA
HETATM   24  H   UNK     0      10.367  46.620  21.478  0.00  0.00     0.210 HD
ENDBRANCH   4  23
BRANCH   2  25
HETATM   25  O   UNK     0      10.102  45.781  19.112  0.00  0.00    -0.390 OA
HETATM   26  H   UNK     0       9.983  45.504  18.187  0.00  0.00     0.210 HD
ENDBRANCH   2  25
TORSDOF 10
ENDMDL
MODEL 2
REMARK VINA RESULT:      -6.7      1.752      3.662
REMARK  10 active torsions:
REMARK  status: ('A' for Active; 'I' for Inactive)
REMARK    1  A    between atoms: O_2  and  C_12 
REMARK    2  A    between atoms: O_2  and  C_14 
REMARK    3  A    between atoms: O_3  and  C_8 
REMARK    4  A    between atoms: O_4  and  C_9 
REMARK    5  A    between atoms: O_5  and  C_10 
REMARK    6  A    between atoms: O_6  and  C_13 
REMARK    7  A    between atoms: O_7  and  C_21 
REMARK    8  A    between atoms: C_11  and  C_13 
REMARK    9  A    between atoms: C_14  and  C_15 
REMARK   10  A    between atoms: C_15  and  C_16 
ROOT
HETATM    1  O   UNK     0       6.869  43.972  21.045  0.00  0.00    -0.348 OA
HETATM    2  C   UNK     0       7.627  46.005  19.162  0.00  0.00     0.183 C 
HETATM    3  C   UNK     0       8.061  46.040  20.628  0.00  0.00     0.180 C 
HETATM    4  C   UNK     0       6.375  45.146  18.978  0.00  0.00     0.204 C 
HETATM    5  C   UNK     0       8.128  44.627  21.210  0.00  0.00     0.179 C 
HETATM    6  C   UNK     0       6.520  43.793  19.674  0.00  0.00     0.291 C 
ENDROOT
BRANCH   5   7
HETATM    7  C   UNK     0       8.445  44.644  22.701  0.00  0.00     0.198 C 
BRANCH   7   8
HETATM    8  O   UNK     0       7.818  45.772  23.283  0.00  0.00    -0.398 OA
HETATM    9  H   UNK     0       7.182  46.121  22.637  0.00  0.00     0.209 HD
ENDBRANCH   7   8
ENDBRANCH   5   7
BRANCH   6  10
HETATM   10  O   UNK     0       5.269  43.115  19.579  0.00  0.00    -0.358 OA
BRANCH  10  11
HETATM   11  C   UNK     0       4.296  43.704  20.430  0.00  0.00     0.175 C 
BRANCH  11  12
HETATM   12  C   UNK     0       3.240  42.669  20.800  0.00  0.00     0.065 C 
BRANCH  12  13
HETATM   13  C   UNK     0       3.191  42.404  22.285  0.00  0.00    -0.056 A 
HETATM   14  C   UNK     0       2.445  41.340  22.761  0.00  0.00     0.010 A 
HETATM   15  C   UNK     0       2.400  41.095  24.134  0.00  0.00     0.037 A 
HETATM   16  C   UNK     0       3.103  41.921  25.012  0.00  0.00     0.065 A 
HETATM   17  C   UNK     0       3.851  42.989  24.518  0.00  0.00     0.037 A 
HETATM   18  C   UNK     0       3.895  43.233  23.145  0.00  0.00     0.010 A 
BRANCH  16  19
HETATM   19  O   UNK     0       3.059  41.682  26.352  0.00  0.00    -0.361 OA
HETATM   20  H   UNK     0       3.025  40.721  26.499  0.00  0.00     0.217 HD
ENDBRANCH  16  19
ENDBRANCH  12  13
ENDBRANCH  11  12
ENDBRANCH  10  11
ENDBRANCH   6  10
BRANCH   3  21
HETATM   21  O   UNK     0       9.346  46.650  20.723  0.00  0.00    -0.390 OA
HETATM   22  H   UNK     0       9.937  46.208  20.089  0.00  0.00     0.210 HD
ENDBRANCH   3  21
BRANCH   4  23
HETATM   23  O   UNK     0       6.162  44.912  17.585  0.00  0.00    -0.388 OA
HETATM   24  H   UNK     0       5.203  44.853  17.432  0.00  0.00     0.210 HD
ENDBRANCH   4  23
BRANCH   2  25
HETATM   25  O   UNK     0       7.351  47.344  18.750  0.00  0.00    -0.390 OA
HETATM   26  H   UNK     0       7.144  47.857  19.550  0.00  0.00     0.210 HD
ENDBRANCH   2  25
TORSDOF 10
ENDMDL
MODEL 3
REMARK VINA RESULT:      -6.5      1.798      3.343
REMARK  10 active torsions:
REMARK  status: ('A' for Active; 'I' for Inactive)
REMARK    1  A    between atoms: O_2  and  C_12 
REMARK    2  A    between atoms: O_2  and  C_14 
REMARK    3  A    between atoms: O_3  and  C_8 
REMARK    4  A    between atoms: O_4  and  C_9 
REMARK    5  A    between atoms: O_5  and  C_10 
REMARK    6  A    between atoms: O_6  and  C_13 
REMARK    7  A    between atoms: O_7  and  C_21 
REMARK    8  A    between atoms: C_11  and  C_13 
REMARK    9  A    between atoms: C_14  and  C_15 
REMARK   10  A    between atoms: C_15  and  C_16 
ROOT
HETATM    1  O   UNK     0       8.177  44.100  20.934  0.00  0.00    -0.348 OA
HETATM    2  C   UNK     0       9.477  44.618  18.426  0.00  0.00     0.183 C 
HETATM    3  C   UNK     0      10.178  43.901  19.581  0.00  0.00     0.180 C 
HETATM    4  C   UNK     0       8.306  45.463  18.929  0.00  0.00     0.204 C 
HETATM    5  C   UNK     0       9.162  43.177  20.467  0.00  0.00     0.179 C 
HETATM    6  C   UNK     0       7.409  44.665  19.874  0.00  0.00     0.291 C 
ENDROOT
BRANCH   5   7
HETATM    7  C   UNK     0       9.824  42.553  21.691  0.00  0.00     0.198 C 
BRANCH   7   8
HETATM    8  O   UNK     0      11.017  43.261  21.970  0.00  0.00    -0.398 OA
HETATM    9  H   UNK     0      11.749  42.783  21.547  0.00  0.00     0.209 HD
ENDBRANCH   7   8
ENDBRANCH   5   7
BRANCH   6  10
HETATM   10  O   UNK     0       6.432  45.556  20.408  0.00  0.00    -0.358 OA
BRANCH  10  11
HETATM   11  C   UNK     0       5.127  45.001  20.326  0.00  0.00     0.175 C 
BRANCH  11  12
HETATM   12  C   UNK     0       4.379  45.247  21.631  0.00  0.00     0.065 C 
BRANCH  12  13
HETATM   13  C   UNK     0       3.610  44.032  22.091  0.00  0.00    -0.056 A 
HETATM   14  C   UNK     0       3.897  43.474  23.325  0.00  0.00     0.010 A 
HETATM   15  C   UNK     0       3.186  42.351  23.749  0.00  0.00     0.037 A 
HETATM   16  C   UNK     0       2.198  41.801  22.931  0.00  0.00     0.065 A 
HETATM   17  C   UNK     0       1.920  42.375  21.691  0.00  0.00     0.037 A 
HETATM   18  C   UNK     0       2.632  43.498  21.268  0.00  0.00     0.010 A 
BRANCH  16  19
HETATM   19  O   UNK     0       1.504  40.706  23.346  0.00  0.00    -0.361 OA
HETATM   20  H   UNK     0       1.961  39.906  23.031  0.00  0.00     0.217 HD
ENDBRANCH  16  19
ENDBRANCH  12  13
ENDBRANCH  11  12
ENDBRANCH  10  11
ENDBRANCH   6  10
BRANCH   3  21
HETATM   21  O   UNK     0      11.104  42.953  19.055  0.00  0.00    -0.390 OA
HETATM   22  H   UNK     0      10.810  42.711  18.160  0.00  0.00     0.210 HD
ENDBRANCH   3  21
BRANCH   4  23
HETATM   23  O   UNK     0       7.518  45.889  17.817  0.00  0.00    -0.388 OA
HETATM   24  H   UNK     0       6.756  45.290  17.740  0.00  0.00     0.210 HD
ENDBRANCH   4  23
BRANCH   2  25
HETATM   25  O   UNK     0      10.434  45.462  17.785  0.00  0.00    -0.390 OA
HETATM   26  H   UNK     0      11.231  44.930  17.624  0.00  0.00     0.210 HD
ENDBRANCH   2  25
TORSDOF 10
ENDMDL
MODEL 4
REMARK VINA RESULT:      -6.3      1.580      2.734
REMARK  10 active torsions:
REMARK  status: ('A' for Active; 'I' for Inactive)
REMARK    1  A    between atoms: O_2  and  C_12 
REMARK    2  A    between atoms: O_2  and  C_14 
REMARK    3  A    between atoms: O_3  and  C_8 
REMARK    4  A    between atoms: O_4  and  C_9 
REMARK    5  A    between atoms: O_5  and  C_10 
REMARK    6  A    between atoms: O_6  and  C_13 
REMARK    7  A    between atoms: O_7  and  C_21 
REMARK    8  A    between atoms: C_11  and  C_13 
REMARK    9  A    between atoms: C_14  and  C_15 
REMARK   10  A    between atoms: C_15  and  C_16 
ROOT
HETATM    1  O   UNK     0       9.295  44.256  21.726  0.00  0.00    -0.348 OA
HETATM    2  C   UNK     0       8.007  46.024  19.865  0.00  0.00     0.183 C 
HETATM    3  C   UNK     0       9.430  45.506  19.654  0.00  0.00     0.180 C 
HETATM    4  C   UNK     0       7.607  45.959  21.340  0.00  0.00     0.204 C 
HETATM    5  C   UNK     0       9.622  44.152  20.339  0.00  0.00     0.179 C 
HETATM    6  C   UNK     0       7.926  44.590  21.942  0.00  0.00     0.291 C 
ENDROOT
BRANCH   5   7
HETATM    7  C   UNK     0      11.065  43.669  20.243  0.00  0.00     0.198 C 
BRANCH   7   8
HETATM    8  O   UNK     0      11.233  42.991  19.012  0.00  0.00    -0.398 OA
HETATM    9  H   UNK     0      12.163  43.090  18.746  0.00  0.00     0.209 HD
ENDBRANCH   7   8
ENDBRANCH   5   7
BRANCH   6  10
HETATM   10  O   UNK     0       7.661  44.655  23.342  0.00  0.00    -0.358 OA
BRANCH  10  11
HETATM   11  C   UNK     0       6.820  43.589  23.758  0.00  0.00     0.175 C 
BRANCH  11  12
HETATM   12  C   UNK     0       5.513  44.148  24.309  0.00  0.00     0.065 C 
BRANCH  12  13
HETATM   13  C   UNK     0       4.309  43.645  23.550  0.00  0.00    -0.056 A 
HETATM   14  C   UNK     0       3.647  42.514  23.998  0.00  0.00     0.010 A 
HETATM   15  C   UNK     0       2.534  42.050  23.297  0.00  0.00     0.037 A 
HETATM   16  C   UNK     0       2.099  42.723  22.155  0.00  0.00     0.065 A 
HETATM   17  C   UNK     0       2.776  43.860  21.715  0.00  0.00     0.037 A 
HETATM   18  C   UNK     0       3.889  44.324  22.418  0.00  0.00     0.010 A 
BRANCH  16  19
HETATM   19  O   UNK     0       1.013  42.270  21.471  0.00  0.00    -0.361 OA
HETATM   20  H   UNK     0       1.002  42.681  20.589  0.00  0.00     0.217 HD
ENDBRANCH  16  19
ENDBRANCH  12  13
ENDBRANCH  11  12
ENDBRANCH  10  11
ENDBRANCH   6  10
BRANCH   3  21
HETATM   21  O   UNK     0       9.678  45.367  18.257  0.00  0.00    -0.390 OA
HETATM   22  H   UNK     0       9.153  44.616  17.932  0.00  0.00     0.210 HD
ENDBRANCH   3  21
BRANCH   4  23
HETATM   23  O   UNK     0       6.203  46.185  21.461  0.00  0.00    -0.388 OA
HETATM   24  H   UNK     0       5.814  46.149  20.570  0.00  0.00     0.210 HD
ENDBRANCH   4  23
BRANCH   2  25
HETATM   25  O   UNK     0       7.959  47.380  19.419  0.00  0.00    -0.390 OA
HETATM   26  H   UNK     0       8.806  47.572  18.981  0.00  0.00     0.210 HD
ENDBRANCH   2  25
TORSDOF 10
ENDMDL
MODEL 5
REMARK VINA RESULT:      -6.2      2.254      3.978
REMARK  10 active torsions:
REMARK  status: ('A' for Active; 'I' for Inactive)
REMARK    1  A    between atoms: O_2  and  C_12 
REMARK    2  A    between atoms: O_2  and  C_14 
REMARK    3  A    between atoms: O_3  and  C_8 
REMARK    4  A    between atoms: O_4  and  C_9 
REMARK    5  A    between atoms: O_5  and  C_10 
REMARK    6  A    between atoms: O_6  and  C_13 
REMARK    7  A    between atoms: O_7  and  C_21 
REMARK    8  A    between atoms: C_11  and  C_13 
REMARK    9  A    between atoms: C_14  and  C_15 
REMARK   10  A    between atoms: C_15  and  C_16 
ROOT
HETATM    1  O   UNK     0       9.468  45.419  19.177  0.00  0.00    -0.348 OA
HETATM    2  C   UNK     0      10.566  43.476  20.985  0.00  0.00     0.183 C 
HETATM    3  C   UNK     0      10.842  43.446  19.481  0.00  0.00     0.180 C 
HETATM    4  C   UNK     0       9.283  44.248  21.296  0.00  0.00     0.204 C 
HETATM    5  C   UNK     0      10.745  44.851  18.883  0.00  0.00     0.179 C 
HETATM    6  C   UNK     0       9.257  45.596  20.577  0.00  0.00     0.291 C 
ENDROOT
BRANCH   5   7
HETATM    7  C   UNK     0      10.901  44.831  17.366  0.00  0.00     0.198 C 
BRANCH   7   8
HETATM    8  O   UNK     0      12.275  44.951  17.051  0.00  0.00    -0.398 OA
HETATM    9  H   UNK     0      12.655  45.626  17.639  0.00  0.00     0.209 HD
ENDBRANCH   7   8
ENDBRANCH   5   7
BRANCH   6  10
HETATM   10  O   UNK     0       7.978  46.188  20.800  0.00  0.00    -0.358 OA
BRANCH  10  11
HETATM   11  C   UNK     0       7.398  46.637  19.584  0.00  0.00     0.175 C 
BRANCH  11  12
HETATM   12  C   UNK     0       5.928  46.972  19.808  0.00  0.00     0.065 C 
BRANCH  12  13
HETATM   13  C   UNK     0       5.128  45.773  20.258  0.00  0.00    -0.056 A 
HETATM   14  C   UNK     0       4.381  45.853  21.421  0.00  0.00     0.010 A 
HETATM   15  C   UNK     0       3.642  44.746  21.837  0.00  0.00     0.037 A 
HETATM   16  C   UNK     0       3.661  43.572  21.083  0.00  0.00     0.065 A 
HETATM   17  C   UNK     0       4.418  43.506  19.914  0.00  0.00     0.037 A 
HETATM   18  C   UNK     0       5.157  44.614  19.499  0.00  0.00     0.010 A 
BRANCH  16  19
HETATM   19  O   UNK     0       2.940  42.491  21.490  0.00  0.00    -0.361 OA
HETATM   20  H   UNK     0       2.113  42.455  20.980  0.00  0.00     0.217 HD
ENDBRANCH  16  19
ENDBRANCH  12  13
ENDBRANCH  11  12
ENDBRANCH  10  11
ENDBRANCH   6  10
BRANCH   3  21
HETATM   21  O   UNK     0      12.149  42.926  19.253  0.00  0.00    -0.390 OA
HETATM   22  H   UNK     0      12.083  42.234  18.573  0.00  0.00     0.210 HD
ENDBRANCH   3  21
BRANCH   4  23
HETATM   23  O   UNK     0       9.205  44.490  22.701  0.00  0.00    -0.388 OA
HETATM   24  H   UNK     0       8.573  45.214  22.848  0.00  0.00     0.210 HD
ENDBRANCH   4  23
BRANCH   2  25
HETATM   25  O   UNK     0      10.431  42.128  21.436  0.00  0.00    -0.390 OA
HETATM   26  H   UNK     0      11.319  41.731  21.439  0.00  0.00     0.210 HD
ENDBRANCH   2  25
TORSDOF 10
ENDMDL
MODEL 6
REMARK VINA RESULT:      -6.2      2.178      3.538
REMARK  10 active torsions:
REMARK  status: ('A' for Active; 'I' for Inactive)
REMARK    1  A    between atoms: O_2  and  C_12 
REMARK    2  A    between atoms: O_2  and  C_14 
REMARK    3  A    between atoms: O_3  and  C_8 
REMARK    4  A    between atoms: O_4  and  C_9 
REMARK    5  A    between atoms: O_5  and  C_10 
REMARK    6  A    between atoms: O_6  and  C_13 
REMARK    7  A    between atoms: O_7  and  C_21 
REMARK    8  A    between atoms: C_11  and  C_13 
REMARK    9  A    between atoms: C_14  and  C_15 
REMARK   10  A    between atoms: C_15  and  C_16 
ROOT
HETATM    1  O   UNK     0       7.397  43.507  20.118  0.00  0.00    -0.348 OA
HETATM    2  C   UNK     0       7.620  46.165  19.054  0.00  0.00     0.183 C 
HETATM    3  C   UNK     0       8.812  45.418  19.653  0.00  0.00     0.180 C 
HETATM    4  C   UNK     0       6.297  45.602  19.574  0.00  0.00     0.204 C 
HETATM    5  C   UNK     0       8.630  43.905  19.516  0.00  0.00     0.179 C 
HETATM    6  C   UNK     0       6.262  44.078  19.470  0.00  0.00     0.291 C 
ENDROOT
BRANCH   5   7
HETATM    7  C   UNK     0       9.749  43.136  20.210  0.00  0.00     0.198 C 
BRANCH   7   8
HETATM    8  O   UNK     0      10.815  42.966  19.295  0.00  0.00    -0.398 OA
HETATM    9  H   UNK     0      11.546  43.538  19.585  0.00  0.00     0.209 HD
ENDBRANCH   7   8
ENDBRANCH   5   7
BRANCH   6  10
HETATM   10  O   UNK     0       5.067  43.622  20.102  0.00  0.00    -0.358 OA
BRANCH  10  11
HETATM   11  C   UNK     0       5.302  43.266  21.456  0.00  0.00     0.175 C 
BRANCH  11  12
HETATM   12  C   UNK     0       4.191  42.344  21.947  0.00  0.00     0.065 C 
BRANCH  12  13
HETATM   13  C   UNK     0       4.011  42.410  23.444  0.00  0.00    -0.056 A 
HETATM   14  C   UNK     0       4.623  43.426  24.158  0.00  0.00     0.010 A 
HETATM   15  C   UNK     0       4.456  43.487  25.542  0.00  0.00     0.037 A 
HETATM   16  C   UNK     0       3.679  42.528  26.193  0.00  0.00     0.065 A 
HETATM   17  C   UNK     0       3.069  41.510  25.461  0.00  0.00     0.037 A 
HETATM   18  C   UNK     0       3.236  41.451  24.077  0.00  0.00     0.010 A 
BRANCH  16  19
HETATM   19  O   UNK     0       3.517  42.587  27.543  0.00  0.00    -0.361 OA
HETATM   20  H   UNK     0       2.975  41.832  27.829  0.00  0.00     0.217 HD
ENDBRANCH  16  19
ENDBRANCH  12  13
ENDBRANCH  11  12
ENDBRANCH  10  11
ENDBRANCH   6  10
BRANCH   3  21
HETATM   21  O   UNK     0      10.003  45.812  18.975  0.00  0.00    -0.390 OA
HETATM   22  H   UNK     0       9.747  46.326  18.191  0.00  0.00     0.210 HD
ENDBRANCH   3  21
BRANCH   4  23
HETATM   23  O   UNK     0       5.221  46.128  18.797  0.00  0.00    -0.388 OA
HETATM   24  H   UNK     0       4.864  45.408  18.249  0.00  0.00     0.210 HD
ENDBRANCH   4  23
BRANCH   2  25
HETATM   25  O   UNK     0       7.730  47.540  19.422  0.00  0.00    -0.390 OA
HETATM   26  H   UNK     0       6.834  47.919  19.407  0.00  0.00     0.210 HD
ENDBRANCH   2  25
TORSDOF 10
ENDMDL
MODEL 7
REMARK VINA RESULT:      -6.1      2.117      2.626
REMARK  10 active torsions:
REMARK  status: ('A' for Active; 'I' for Inactive)
REMARK    1  A    between atoms: O_2  and  C_12 
REMARK    2  A    between atoms: O_2  and  C_14 
REMARK    3  A    between atoms: O_3  and  C_8 
REMARK    4  A    between atoms: O_4  and  C_9 
REMARK    5  A    between atoms: O_5  and  C_10 
REMARK    6  A    between atoms: O_6  and  C_13 
REMARK    7  A    between atoms: O_7  and  C_21 
REMARK    8  A    between atoms: C_11  and  C_13 
REMARK    9  A    between atoms: C_14  and  C_15 
REMARK   10  A    between atoms: C_15  and  C_16 
ROOT
HETATM    1  O   UNK     0       6.097  44.118  20.769  0.00  0.00    -0.348 OA
HETATM    2  C   UNK     0       8.239  45.988  20.366  0.00  0.00     0.183 C 
HETATM    3  C   UNK     0       7.532  45.288  19.205  0.00  0.00     0.180 C 
HETATM    4  C   UNK     0       8.074  45.203  21.668  0.00  0.00     0.204 C 
HETATM    5  C   UNK     0       6.097  44.919  19.586  0.00  0.00     0.179 C 
HETATM    6  C   UNK     0       6.614  44.813  21.901  0.00  0.00     0.291 C 
ENDROOT
BRANCH   5   7
HETATM    7  C   UNK     0       5.409  44.116  18.487  0.00  0.00     0.198 C 
BRANCH   7   8
HETATM    8  O   UNK     0       4.755  45.016  17.612  0.00  0.00    -0.398 OA
HETATM    9  H   UNK     0       4.000  45.397  18.092  0.00  0.00     0.209 HD
ENDBRANCH   7   8
ENDBRANCH   5   7
BRANCH   6  10
HETATM   10  O   UNK     0       6.564  43.968  23.050  0.00  0.00    -0.358 OA
BRANCH  10  11
HETATM   11  C   UNK     0       5.567  44.399  23.964  0.00  0.00     0.175 C 
BRANCH  11  12
HETATM   12  C   UNK     0       4.258  43.669  23.682  0.00  0.00     0.065 C 
BRANCH  12  13
HETATM   13  C   UNK     0       3.825  42.800  24.838  0.00  0.00    -0.056 A 
HETATM   14  C   UNK     0       4.280  43.090  26.113  0.00  0.00     0.010 A 
HETATM   15  C   UNK     0       3.880  42.287  27.181  0.00  0.00     0.037 A 
HETATM   16  C   UNK     0       3.028  41.204  26.958  0.00  0.00     0.065 A 
HETATM   17  C   UNK     0       2.578  40.925  25.669  0.00  0.00     0.037 A 
HETATM   18  C   UNK     0       2.979  41.728  24.601  0.00  0.00     0.010 A 
BRANCH  16  19
HETATM   19  O   UNK     0       2.638  40.421  28.001  0.00  0.00    -0.361 OA
HETATM   20  H   UNK     0       1.673  40.305  27.963  0.00  0.00     0.217 HD
ENDBRANCH  16  19
ENDBRANCH  12  13
ENDBRANCH  11  12
ENDBRANCH  10  11
ENDBRANCH   6  10
BRANCH   3  21
HETATM   21  O   UNK     0       7.511  46.155  18.075  0.00  0.00    -0.390 OA
HETATM   22  H   UNK     0       8.413  46.200  17.714  0.00  0.00     0.210 HD
ENDBRANCH   3  21
BRANCH   4  23
HETATM   23  O   UNK     0       8.501  46.011  22.765  0.00  0.00    -0.388 OA
HETATM   24  H   UNK     0       9.390  46.350  22.562  0.00  0.00     0.210 HD
ENDBRANCH   4  23
BRANCH   2  25
HETATM   25  O   UNK     0       9.626  46.087  20.043  0.00  0.00    -0.390 OA
HETATM   26  H   UNK     0       9.691  46.427  19.135  0.00  0.00     0.210 HD
ENDBRANCH   2  25
TORSDOF 10
ENDMDL
MODEL 8
REMARK VINA RESULT:      -6.0     16.946     19.357
REMARK  10 active torsions:
REMARK  status: ('A' for Active; 'I' for Inactive)
REMARK    1  A    between atoms: O_2  and  C_12 
REMARK    2  A    between atoms: O_2  and  C_14 
REMARK    3  A    between atoms: O_3  and  C_8 
REMARK    4  A    between atoms: O_4  and  C_9 
REMARK    5  A    between atoms: O_5  and  C_10 
REMARK    6  A    between atoms: O_6  and  C_13 
REMARK    7  A    between atoms: O_7  and  C_21 
REMARK    8  A    between atoms: C_11  and  C_13 
REMARK    9  A    between atoms: C_14  and  C_15 
REMARK   10  A    between atoms: C_15  and  C_16 
ROOT
HETATM    1  O   UNK     0      12.946  52.498  36.222  0.00  0.00    -0.348 OA
HETATM    2  C   UNK     0      11.802  54.562  34.586  0.00  0.00     0.183 C 
HETATM    3  C   UNK     0      12.313  53.243  34.005  0.00  0.00     0.180 C 
HETATM    4  C   UNK     0      12.448  54.857  35.940  0.00  0.00     0.204 C 
HETATM    5  C   UNK     0      12.230  52.124  35.044  0.00  0.00     0.179 C 
HETATM    6  C   UNK     0      12.385  53.642  36.864  0.00  0.00     0.291 C 
ENDROOT
BRANCH   5   7
HETATM    7  C   UNK     0      12.843  50.826  34.527  0.00  0.00     0.198 C 
BRANCH   7   8
HETATM    8  O   UNK     0      13.684  51.130  33.430  0.00  0.00    -0.398 OA
HETATM    9  H   UNK     0      13.151  51.053  32.621  0.00  0.00     0.209 HD
ENDBRANCH   7   8
ENDBRANCH   5   7
BRANCH   6  10
HETATM   10  O   UNK     0      13.129  53.946  38.042  0.00  0.00    -0.358 OA
BRANCH  10  11
HETATM   11  C   UNK     0      13.233  52.815  38.894  0.00  0.00     0.175 C 
BRANCH  11  12
HETATM   12  C   UNK     0      11.887  52.540  39.553  0.00  0.00     0.065 C 
BRANCH  12  13
HETATM   13  C   UNK     0      11.876  51.236  40.313  0.00  0.00    -0.056 A 
HETATM   14  C   UNK     0      11.282  51.183  41.563  0.00  0.00     0.010 A 
HETATM   15  C   UNK     0      11.272  49.978  42.265  0.00  0.00     0.037 A 
HETATM   16  C   UNK     0      11.857  48.841  41.706  0.00  0.00     0.065 A 
HETATM   17  C   UNK     0      12.450  48.909  40.447  0.00  0.00     0.037 A 
HETATM   18  C   UNK     0      12.460  50.115  39.745  0.00  0.00     0.010 A 
BRANCH  16  19
HETATM   19  O   UNK     0      11.846  47.665  42.392  0.00  0.00    -0.361 OA
HETATM   20  H   UNK     0      11.145  47.698  43.064  0.00  0.00     0.217 HD
ENDBRANCH  16  19
ENDBRANCH  12  13
ENDBRANCH  11  12
ENDBRANCH  10  11
ENDBRANCH   6  10
BRANCH   3  21
HETATM   21  O   UNK     0      11.526  52.892  32.870  0.00  0.00    -0.390 OA
HETATM   22  H   UNK     0      10.773  53.505  32.825  0.00  0.00     0.210 HD
ENDBRANCH   3  21
BRANCH   4  23
HETATM   23  O   UNK     0      11.755  55.935  36.571  0.00  0.00    -0.388 OA
HETATM   24  H   UNK     0      12.410  56.608  36.823  0.00  0.00     0.210 HD
ENDBRANCH   4  23
BRANCH   2  25
HETATM   25  O   UNK     0      12.127  55.605  33.666  0.00  0.00    -0.390 OA
HETATM   26  H   UNK     0      11.362  56.205  33.625  0.00  0.00     0.210 HD
ENDBRANCH   2  25
TORSDOF 10
ENDMDL
MODEL 9
REMARK VINA RESULT:      -6.0     22.480     25.329
REMARK  10 active torsions:
REMARK  status: ('A' for Active; 'I' for Inactive)
REMARK    1  A    between atoms: O_2  and  C_12 
REMARK    2  A    between atoms: O_2  and  C_14 
REMARK    3  A    between atoms: O_3  and  C_8 
REMARK    4  A    between atoms: O_4  and  C_9 
REMARK    5  A    between atoms: O_5  and  C_10 
REMARK    6  A    between atoms: O_6  and  C_13 
REMARK    7  A    between atoms: O_7  and  C_21 
REMARK    8  A    between atoms: C_11  and  C_13 
REMARK    9  A    between atoms: C_14  and  C_15 
REMARK   10  A    between atoms: C_15  and  C_16 
ROOT
HETATM    1  O   UNK     0      -7.417  47.258   2.808  0.00  0.00    -0.348 OA
HETATM    2  C   UNK     0      -9.470  46.857   4.776  0.00  0.00     0.183 C 
HETATM    3  C   UNK     0      -8.841  45.700   3.999  0.00  0.00     0.180 C 
HETATM    4  C   UNK     0      -9.302  48.181   4.029  0.00  0.00     0.204 C 
HETATM    5  C   UNK     0      -7.415  46.048   3.567  0.00  0.00     0.179 C 
HETATM    6  C   UNK     0      -7.859  48.381   3.568  0.00  0.00     0.291 C 
ENDROOT
BRANCH   5   7
HETATM    7  C   UNK     0      -6.808  44.957   2.691  0.00  0.00     0.198 C 
BRANCH   7   8
HETATM    8  O   UNK     0      -7.852  44.313   1.984  0.00  0.00    -0.398 OA
HETATM    9  H   UNK     0      -8.657  44.847   2.096  0.00  0.00     0.209 HD
ENDBRANCH   7   8
ENDBRANCH   5   7
BRANCH   6  10
HETATM   10  O   UNK     0      -7.814  49.557   2.762  0.00  0.00    -0.358 OA
BRANCH  10  11
HETATM   11  C   UNK     0      -7.855  49.236   1.379  0.00  0.00     0.175 C 
BRANCH  11  12
HETATM   12  C   UNK     0      -8.939  50.060   0.692  0.00  0.00     0.065 C 
BRANCH  12  13
HETATM   13  C   UNK     0      -8.365  51.102  -0.237  0.00  0.00    -0.056 A 
HETATM   14  C   UNK     0      -7.113  50.901  -0.793  0.00  0.00     0.010 A 
HETATM   15  C   UNK     0      -6.583  51.864  -1.651  0.00  0.00     0.037 A 
HETATM   16  C   UNK     0      -7.314  53.017  -1.941  0.00  0.00     0.065 A 
HETATM   17  C   UNK     0      -8.573  53.206  -1.374  0.00  0.00     0.037 A 
HETATM   18  C   UNK     0      -9.102  52.242  -0.515  0.00  0.00     0.010 A 
BRANCH  16  19
HETATM   19  O   UNK     0      -6.796  53.957  -2.779  0.00  0.00    -0.361 OA
HETATM   20  H   UNK     0      -7.527  54.430  -3.212  0.00  0.00     0.217 HD
ENDBRANCH  16  19
ENDBRANCH  12  13
ENDBRANCH  11  12
ENDBRANCH  10  11
ENDBRANCH   6  10
BRANCH   3  21
HETATM   21  O   UNK     0      -8.813  44.539   4.825  0.00  0.00    -0.390 OA
HETATM   22  H   UNK     0      -8.927  43.761   4.254  0.00  0.00     0.210 HD
ENDBRANCH   3  21
BRANCH   4  23
HETATM   23  O   UNK     0      -9.649  49.261   4.895  0.00  0.00    -0.388 OA
HETATM   24  H   UNK     0      -8.860  49.498   5.413  0.00  0.00     0.210 HD
ENDBRANCH   4  23
BRANCH   2  25
HETATM   25  O   UNK     0     -10.861  46.576   4.938  0.00  0.00    -0.390 OA
HETATM   26  H   UNK     0     -11.102  45.907   4.275  0.00  0.00     0.210 HD
ENDBRANCH   2  25
TORSDOF 10
ENDMDL
