REMARK VINA RESULT:      -7.2      0.444      1.478
REMARK  8 active torsions:
REMARK  status: ('A' for Active; 'I' for Inactive)
REMARK    1  A    between atoms: C_2  and  O_3 
REMARK    2  A    between atoms: C_15  and  O_16 
REMARK    3  A    between atoms: C_28  and  C_29 
REMARK    4  A    between atoms: C_33  and  C_34 
REMARK    5  A    between atoms: O_3  and  C_4 
REMARK    6  A    between atoms: C_4  and  C_6 
REMARK    7  A    between atoms: O_16  and  C_17 
REMARK    8  A    between atoms: C_17  and  C_19 
ROOT
ATOM      1  O   LIG     1     172.858 174.303 171.109  0.00  0.00    -0.315 OA
ATOM      2  C   LIG     1     173.797 174.353 170.010  0.00  0.00     0.332 C 
ATOM      3  C   LIG     1     173.219 175.035 168.737  0.00  0.00     0.244 C 
ATOM      4  C   LIG     1     171.794 174.511 168.361  0.00  0.00     0.112 C 
ATOM      5  C   LIG     1     170.871 174.439 169.621  0.00  0.00     0.188 C 
ATOM      6  O   LIG     1     170.499 175.771 169.989  0.00  0.00    -0.220 OA
ATOM      7  C   LIG     1     171.539 173.767 170.861  0.00  0.00     0.182 C 
ENDROOT
BRANCH   2   8
ATOM      8  O   LIG     1     174.405 173.097 169.667  0.00  0.00    -0.418 OA
BRANCH   8   9
ATOM      9  C   LIG     1     175.651 172.905 169.134  0.00  0.00     0.343 C 
ATOM     10  O   LIG     1     175.749 172.443 167.971  0.00  0.00    -0.245 OA
BRANCH   9  11
ATOM     11  C   LIG     1     176.812 173.195 169.902  0.00  0.00     0.082 A 
ATOM     12  C   LIG     1     176.724 173.385 171.304  0.00  0.00     0.052 A 
ATOM     13  C   LIG     1     177.879 173.541 172.095  0.00  0.00     0.238 A 
ATOM     14  C   LIG     1     179.148 173.549 171.485  0.00  0.00     0.273 A 
ATOM     15  O   LIG     1     177.785 173.674 173.445  0.00  0.00    -0.283 OA
ATOM     16  O   LIG     1     180.253 173.675 172.262  0.00  0.00    -0.280 OA
ATOM     17  C   LIG     1     179.255 173.427 170.084  0.00  0.00     0.238 A 
ATOM     18  C   LIG     1     178.096 173.240 169.304  0.00  0.00     0.052 A 
ATOM     19  O   LIG     1     180.476 173.479 169.492  0.00  0.00    -0.283 OA
ENDBRANCH   9  11
ENDBRANCH   8   9
ENDBRANCH   2   8
BRANCH   3  20
ATOM     20  O   LIG     1     173.212 176.458 168.977  0.00  0.00    -0.442 OA
BRANCH  20  21
ATOM     21  C   LIG     1     174.260 177.330 168.868  0.00  0.00     0.341 C 
ATOM     22  O   LIG     1     174.052 178.308 168.115  0.00  0.00    -0.245 OA
BRANCH  21  23
ATOM     23  C   LIG     1     175.473 177.228 169.609  0.00  0.00     0.082 A 
ATOM     24  C   LIG     1     175.473 177.356 171.021  0.00  0.00     0.052 A 
ATOM     25  C   LIG     1     176.670 177.295 171.763  0.00  0.00     0.238 A 
ATOM     26  O   LIG     1     176.635 177.454 173.111  0.00  0.00    -0.283 OA
ATOM     27  C   LIG     1     177.898 177.082 171.101  0.00  0.00     0.273 A 
ATOM     28  O   LIG     1     179.072 177.011 171.784  0.00  0.00    -0.280 OA
ATOM     29  C   LIG     1     177.917 176.939 169.701  0.00  0.00     0.238 A 
ATOM     30  O   LIG     1     179.100 176.752 169.061  0.00  0.00    -0.283 OA
ATOM     31  C   LIG     1     176.714 176.996 168.968  0.00  0.00     0.052 A 
ENDBRANCH  21  23
ENDBRANCH  20  21
ENDBRANCH   3  20
BRANCH   7  32
ATOM     32  C   LIG     1     171.509 172.214 170.906  0.00  0.00     0.214 C 
ATOM     33  O   LIG     1     172.327 171.714 171.960  0.00  0.00    -0.218 OA
ENDBRANCH   7  32
BRANCH   4  34
ATOM     34  C   LIG     1     171.821 173.196 167.523  0.00  0.00     0.189 C 
ATOM     35  O   LIG     1     170.554 172.545 167.556  0.00  0.00    -0.220 OA
ENDBRANCH   4  34
TORSDOF 8
