REMARK VINA RESULT:      -7.2      1.739      6.040
REMARK  8 active torsions:
REMARK  status: ('A' for Active; 'I' for Inactive)
REMARK    1  A    between atoms: C_2  and  O_3 
REMARK    2  A    between atoms: C_15  and  O_16 
REMARK    3  A    between atoms: C_28  and  C_29 
REMARK    4  A    between atoms: C_33  and  C_34 
REMARK    5  A    between atoms: O_3  and  C_4 
REMARK    6  A    between atoms: C_4  and  C_6 
REMARK    7  A    between atoms: O_16  and  C_17 
REMARK    8  A    between atoms: C_17  and  C_19 
ROOT
ATOM      1  O   LIG     1     176.524 177.141 168.581  0.00  0.00    -0.315 OA
ATOM      2  C   LIG     1     175.782 176.160 169.341  0.00  0.00     0.332 C 
ATOM      3  C   LIG     1     174.730 176.791 170.298  0.00  0.00     0.244 C 
ATOM      4  C   LIG     1     175.309 177.975 171.141  0.00  0.00     0.112 C 
ATOM      5  C   LIG     1     176.142 178.948 170.246  0.00  0.00     0.188 C 
ATOM      6  O   LIG     1     175.238 179.707 169.436  0.00  0.00    -0.220 OA
ATOM      7  C   LIG     1     177.150 178.231 169.294  0.00  0.00     0.182 C 
ENDROOT
BRANCH   2   8
ATOM      8  O   LIG     1     176.581 175.198 170.047  0.00  0.00    -0.418 OA
BRANCH   8   9
ATOM      9  C   LIG     1     177.254 174.135 169.510  0.00  0.00     0.343 C 
ATOM     10  O   LIG     1     176.630 173.327 168.781  0.00  0.00    -0.245 OA
BRANCH   9  11
ATOM     11  C   LIG     1     178.632 173.935 169.804  0.00  0.00     0.082 A 
ATOM     12  C   LIG     1     179.636 174.496 168.975  0.00  0.00     0.052 A 
ATOM     13  C   LIG     1     180.999 174.419 169.325  0.00  0.00     0.238 A 
ATOM     14  C   LIG     1     181.382 173.740 170.497  0.00  0.00     0.273 A 
ATOM     15  O   LIG     1     181.950 175.003 168.548  0.00  0.00    -0.283 OA
ATOM     16  O   LIG     1     182.696 173.695 170.835  0.00  0.00    -0.280 OA
ATOM     17  C   LIG     1     180.404 173.118 171.301  0.00  0.00     0.238 A 
ATOM     18  C   LIG     1     179.042 173.228 170.961  0.00  0.00     0.052 A 
ATOM     19  O   LIG     1     180.779 172.426 172.408  0.00  0.00    -0.283 OA
ENDBRANCH   9  11
ENDBRANCH   8   9
ENDBRANCH   2   8
BRANCH   3  20
ATOM     20  O   LIG     1     173.612 177.215 169.490  0.00  0.00    -0.442 OA
BRANCH  20  21
ATOM     21  C   LIG     1     172.900 176.470 168.591  0.00  0.00     0.341 C 
ATOM     22  O   LIG     1     173.220 176.647 167.394  0.00  0.00    -0.245 OA
BRANCH  21  23
ATOM     23  C   LIG     1     171.932 175.486 168.947  0.00  0.00     0.082 A 
ATOM     24  C   LIG     1     171.649 174.402 168.078  0.00  0.00     0.052 A 
ATOM     25  C   LIG     1     170.668 173.442 168.400  0.00  0.00     0.238 A 
ATOM     26  O   LIG     1     170.401 172.435 167.528  0.00  0.00    -0.283 OA
ATOM     27  C   LIG     1     169.962 173.538 169.617  0.00  0.00     0.273 A 
ATOM     28  O   LIG     1     169.013 172.627 169.964  0.00  0.00    -0.280 OA
ATOM     29  C   LIG     1     170.238 174.600 170.499  0.00  0.00     0.238 A 
ATOM     30  O   LIG     1     169.547 174.704 171.663  0.00  0.00    -0.283 OA
ATOM     31  C   LIG     1     171.226 175.552 170.172  0.00  0.00     0.052 A 
ENDBRANCH  21  23
ENDBRANCH  20  21
ENDBRANCH   3  20
BRANCH   7  32
ATOM     32  C   LIG     1     178.519 177.831 169.912  0.00  0.00     0.214 C 
ATOM     33  O   LIG     1     179.124 178.933 170.579  0.00  0.00    -0.218 OA
ENDBRANCH   7  32
BRANCH   4  34
ATOM     34  C   LIG     1     176.056 177.508 172.429  0.00  0.00     0.189 C 
ATOM     35  O   LIG     1     176.762 178.591 173.027  0.00  0.00    -0.220 OA
ENDBRANCH   4  34
TORSDOF 8
