MODEL 1
REMARK VINA RESULT:      -8.8      0.000      0.000
REMARK  5 active torsions:
REMARK  status: ('A' for Active; 'I' for Inactive)
REMARK    1  A    between atoms: O_2  and  C_13 
REMARK    2  A    between atoms: O_4  and  C_16 
REMARK    3  A    between atoms: O_5  and  C_19 
REMARK    4  A    between atoms: O_6  and  C_21 
REMARK    5  A    between atoms: C_9  and  C_10 
ROOT
HETATM    1  O   UNK     0     185.842 177.157 177.725  0.00  0.00    -0.309 OA
HETATM    2  O   UNK     0     184.736 177.810 181.591  0.00  0.00    -0.287 OA
HETATM    3  C   UNK     0     184.157 177.914 179.303  0.00  0.00     0.081 A 
HETATM    4  C   UNK     0     184.599 177.665 178.005  0.00  0.00     0.095 A 
HETATM    5  C   UNK     0     186.698 176.887 178.782  0.00  0.00     0.090 A 
HETATM    6  C   UNK     0     185.059 177.620 180.427  0.00  0.00     0.190 A 
HETATM    7  C   UNK     0     186.387 177.077 180.074  0.00  0.00     0.094 A 
HETATM    8  C   UNK     0     182.880 178.432 179.527  0.00  0.00     0.085 A 
HETATM    9  C   UNK     0     183.763 177.934 176.921  0.00  0.00     0.075 A 
HETATM   10  C   UNK     0     182.486 178.451 177.141  0.00  0.00     0.071 A 
HETATM   11  C   UNK     0     182.046 178.699 178.441  0.00  0.00     0.074 A 
ENDROOT
BRANCH   5  12
HETATM   12  C   UNK     0     188.006 176.339 178.370  0.00  0.00     0.001 A 
HETATM   13  C   UNK     0     189.141 177.153 178.374  0.00  0.00     0.053 A 
HETATM   14  C   UNK     0     190.376 176.635 177.985  0.00  0.00     0.099 A 
HETATM   15  C   UNK     0     190.481 175.301 177.591  0.00  0.00     0.098 A 
HETATM   16  C   UNK     0     189.350 174.486 177.585  0.00  0.00     0.040 A 
HETATM   17  C   UNK     0     188.114 175.004 177.974  0.00  0.00     0.017 A 
BRANCH  14  18
HETATM   18  O   UNK     0     191.475 177.442 177.994  0.00  0.00    -0.358 OA
HETATM   19  H   UNK     0     191.837 177.474 177.092  0.00  0.00     0.217 HD
ENDBRANCH  14  18
BRANCH  15  20
HETATM   20  O   UNK     0     191.682 174.784 177.210  0.00  0.00    -0.358 OA
HETATM   21  H   UNK     0     192.317 174.888 177.939  0.00  0.00     0.217 HD
ENDBRANCH  15  20
ENDBRANCH   5  12
BRANCH   8  22
HETATM   22  O   UNK     0     182.403 178.691 180.776  0.00  0.00    -0.360 OA
HETATM   23  H   UNK     0     183.059 179.181 181.296  0.00  0.00     0.217 HD
ENDBRANCH   8  22
BRANCH  10  24
HETATM   24  O   UNK     0     181.668 178.714 176.085  0.00  0.00    -0.361 OA
HETATM   25  H   UNK     0     181.617 179.676 175.957  0.00  0.00     0.217 HD
ENDBRANCH  10  24
TORSDOF 5
ENDMDL
MODEL 2
REMARK VINA RESULT:      -8.7      1.831      7.240
REMARK  5 active torsions:
REMARK  status: ('A' for Active; 'I' for Inactive)
REMARK    1  A    between atoms: O_2  and  C_13 
REMARK    2  A    between atoms: O_4  and  C_16 
REMARK    3  A    between atoms: O_5  and  C_19 
REMARK    4  A    between atoms: O_6  and  C_21 
REMARK    5  A    between atoms: C_9  and  C_10 
ROOT
HETATM    1  O   UNK     0     187.712 176.918 179.457  0.00  0.00    -0.309 OA
HETATM    2  O   UNK     0     188.727 173.646 177.252  0.00  0.00    -0.287 OA
HETATM    3  C   UNK     0     189.444 175.438 178.615  0.00  0.00     0.081 A 
HETATM    4  C   UNK     0     189.028 176.544 179.353  0.00  0.00     0.095 A 
HETATM    5  C   UNK     0     186.757 176.164 178.791  0.00  0.00     0.090 A 
HETATM    6  C   UNK     0     188.433 174.631 177.915  0.00  0.00     0.190 A 
HETATM    7  C   UNK     0     187.031 175.076 178.056  0.00  0.00     0.094 A 
HETATM    8  C   UNK     0     190.798 175.105 178.545  0.00  0.00     0.085 A 
HETATM    9  C   UNK     0     189.966 177.325 180.028  0.00  0.00     0.075 A 
HETATM   10  C   UNK     0     191.320 176.995 179.960  0.00  0.00     0.071 A 
HETATM   11  C   UNK     0     191.735 175.888 179.221  0.00  0.00     0.074 A 
ENDROOT
BRANCH   5  12
HETATM   12  C   UNK     0     185.375 176.650 178.975  0.00  0.00     0.001 A 
HETATM   13  C   UNK     0     185.053 177.979 178.691  0.00  0.00     0.053 A 
HETATM   14  C   UNK     0     183.748 178.437 178.865  0.00  0.00     0.099 A 
HETATM   15  C   UNK     0     182.758 177.567 179.323  0.00  0.00     0.098 A 
HETATM   16  C   UNK     0     183.075 176.240 179.608  0.00  0.00     0.040 A 
HETATM   17  C   UNK     0     184.381 175.781 179.434  0.00  0.00     0.017 A 
BRANCH  14  18
HETATM   18  O   UNK     0     183.450 179.737 178.584  0.00  0.00    -0.358 OA
HETATM   19  H   UNK     0     183.405 180.228 179.422  0.00  0.00     0.217 HD
ENDBRANCH  14  18
BRANCH  15  20
HETATM   20  O   UNK     0     181.479 178.003 179.495  0.00  0.00    -0.358 OA
HETATM   21  H   UNK     0     181.305 178.104 180.446  0.00  0.00     0.217 HD
ENDBRANCH  15  20
ENDBRANCH   5  12
BRANCH   8  22
HETATM   22  O   UNK     0     191.255 174.034 177.837  0.00  0.00    -0.360 OA
HETATM   23  H   UNK     0     192.074 174.260 177.369  0.00  0.00     0.217 HD
ENDBRANCH   8  22
BRANCH  10  24
HETATM   24  O   UNK     0     192.238 177.756 180.618  0.00  0.00    -0.361 OA
HETATM   25  H   UNK     0     192.975 177.187 180.901  0.00  0.00     0.217 HD
ENDBRANCH  10  24
TORSDOF 5
ENDMDL
MODEL 3
REMARK VINA RESULT:      -8.6      1.725      7.068
REMARK  5 active torsions:
REMARK  status: ('A' for Active; 'I' for Inactive)
REMARK    1  A    between atoms: O_2  and  C_13 
REMARK    2  A    between atoms: O_4  and  C_16 
REMARK    3  A    between atoms: O_5  and  C_19 
REMARK    4  A    between atoms: O_6  and  C_21 
REMARK    5  A    between atoms: C_9  and  C_10 
ROOT
HETATM    1  O   UNK     0     186.035 175.639 178.516  0.00  0.00    -0.309 OA
HETATM    2  O   UNK     0     188.872 178.534 178.109  0.00  0.00    -0.287 OA
HETATM    3  C   UNK     0     188.386 176.248 178.448  0.00  0.00     0.081 A 
HETATM    4  C   UNK     0     187.365 175.308 178.578  0.00  0.00     0.095 A 
HETATM    5  C   UNK     0     185.694 176.970 178.323  0.00  0.00     0.090 A 
HETATM    6  C   UNK     0     188.028 177.658 178.234  0.00  0.00     0.190 A 
HETATM    7  C   UNK     0     186.584 177.964 178.178  0.00  0.00     0.094 A 
HETATM    8  C   UNK     0     189.723 175.852 178.519  0.00  0.00     0.085 A 
HETATM    9  C   UNK     0     187.676 173.964 178.780  0.00  0.00     0.075 A 
HETATM   10  C   UNK     0     189.011 173.564 178.851  0.00  0.00     0.071 A 
HETATM   11  C   UNK     0     190.031 174.506 178.721  0.00  0.00     0.074 A 
ENDROOT
BRANCH   5  12
HETATM   12  C   UNK     0     184.240 177.215 178.266  0.00  0.00     0.001 A 
HETATM   13  C   UNK     0     183.688 177.926 177.198  0.00  0.00     0.053 A 
HETATM   14  C   UNK     0     182.314 178.157 177.144  0.00  0.00     0.099 A 
HETATM   15  C   UNK     0     181.486 177.678 178.159  0.00  0.00     0.098 A 
HETATM   16  C   UNK     0     182.032 176.969 179.228  0.00  0.00     0.040 A 
HETATM   17  C   UNK     0     183.407 176.737 179.282  0.00  0.00     0.017 A 
BRANCH  14  18
HETATM   18  O   UNK     0     181.791 178.853 176.096  0.00  0.00    -0.358 OA
HETATM   19  H   UNK     0     181.369 178.221 175.490  0.00  0.00     0.217 HD
ENDBRANCH  14  18
BRANCH  15  20
HETATM   20  O   UNK     0     180.142 177.897 178.118  0.00  0.00    -0.358 OA
HETATM   21  H   UNK     0     179.858 177.949 177.189  0.00  0.00     0.217 HD
ENDBRANCH  15  20
ENDBRANCH   5  12
BRANCH   8  22
HETATM   22  O   UNK     0     190.756 176.731 178.398  0.00  0.00    -0.360 OA
HETATM   23  H   UNK     0     191.310 176.502 177.636  0.00  0.00     0.217 HD
ENDBRANCH   8  22
BRANCH  10  24
HETATM   24  O   UNK     0     189.318 172.252 179.048  0.00  0.00    -0.361 OA
HETATM   25  H   UNK     0     190.258 172.180 179.284  0.00  0.00     0.217 HD
ENDBRANCH  10  24
TORSDOF 5
ENDMDL
MODEL 4
REMARK VINA RESULT:      -8.4      1.565      3.128
REMARK  5 active torsions:
REMARK  status: ('A' for Active; 'I' for Inactive)
REMARK    1  A    between atoms: O_2  and  C_13 
REMARK    2  A    between atoms: O_4  and  C_16 
REMARK    3  A    between atoms: O_5  and  C_19 
REMARK    4  A    between atoms: O_6  and  C_21 
REMARK    5  A    between atoms: C_9  and  C_10 
ROOT
HETATM    1  O   UNK     0     186.040 176.408 179.700  0.00  0.00    -0.309 OA
HETATM    2  O   UNK     0     184.266 178.110 176.451  0.00  0.00    -0.287 OA
HETATM    3  C   UNK     0     184.163 177.631 178.762  0.00  0.00     0.081 A 
HETATM    4  C   UNK     0     184.825 177.030 179.831  0.00  0.00     0.095 A 
HETATM    5  C   UNK     0     186.630 176.369 178.445  0.00  0.00     0.090 A 
HETATM    6  C   UNK     0     184.789 177.600 177.432  0.00  0.00     0.190 A 
HETATM    7  C   UNK     0     186.096 176.916 177.342  0.00  0.00     0.094 A 
HETATM    8  C   UNK     0     182.927 178.252 178.956  0.00  0.00     0.085 A 
HETATM    9  C   UNK     0     184.254 177.047 181.104  0.00  0.00     0.075 A 
HETATM   10  C   UNK     0     183.019 177.666 181.301  0.00  0.00     0.071 A 
HETATM   11  C   UNK     0     182.357 178.266 180.230  0.00  0.00     0.074 A 
ENDROOT
BRANCH   5  12
HETATM   12  C   UNK     0     187.936 175.681 178.417  0.00  0.00     0.001 A 
HETATM   13  C   UNK     0     188.029 174.335 178.778  0.00  0.00     0.053 A 
HETATM   14  C   UNK     0     189.262 173.685 178.752  0.00  0.00     0.099 A 
HETATM   15  C   UNK     0     190.408 174.379 178.362  0.00  0.00     0.098 A 
HETATM   16  C   UNK     0     190.320 175.723 178.001  0.00  0.00     0.040 A 
HETATM   17  C   UNK     0     189.085 176.373 178.028  0.00  0.00     0.017 A 
BRANCH  14  18
HETATM   18  O   UNK     0     189.337 172.372 179.108  0.00  0.00    -0.358 OA
HETATM   19  H   UNK     0     189.776 171.885 178.390  0.00  0.00     0.217 HD
ENDBRANCH  14  18
BRANCH  15  20
HETATM   20  O   UNK     0     191.618 173.756 178.331  0.00  0.00    -0.358 OA
HETATM   21  H   UNK     0     192.056 173.870 179.192  0.00  0.00     0.217 HD
ENDBRANCH  15  20
ENDBRANCH   5  12
BRANCH   8  22
HETATM   22  O   UNK     0     182.241 178.852 177.945  0.00  0.00    -0.360 OA
HETATM   23  H   UNK     0     181.659 178.215 177.503  0.00  0.00     0.217 HD
ENDBRANCH   8  22
BRANCH  10  24
HETATM   24  O   UNK     0     182.459 177.684 182.543  0.00  0.00    -0.361 OA
HETATM   25  H   UNK     0     181.657 178.234 182.519  0.00  0.00     0.217 HD
ENDBRANCH  10  24
TORSDOF 5
ENDMDL
MODEL 5
REMARK VINA RESULT:      -8.0     34.377     39.145
REMARK  5 active torsions:
REMARK  status: ('A' for Active; 'I' for Inactive)
REMARK    1  A    between atoms: O_2  and  C_13 
REMARK    2  A    between atoms: O_4  and  C_16 
REMARK    3  A    between atoms: O_5  and  C_19 
REMARK    4  A    between atoms: O_6  and  C_21 
REMARK    5  A    between atoms: C_9  and  C_10 
ROOT
HETATM    1  O   UNK     0     156.323 188.144 157.250  0.00  0.00    -0.309 OA
HETATM    2  O   UNK     0     155.467 185.835 160.495  0.00  0.00    -0.287 OA
HETATM    3  C   UNK     0     157.076 187.089 159.305  0.00  0.00     0.081 A 
HETATM    4  C   UNK     0     157.300 187.872 158.174  0.00  0.00     0.095 A 
HETATM    5  C   UNK     0     155.059 187.609 157.449  0.00  0.00     0.090 A 
HETATM    6  C   UNK     0     155.734 186.527 159.524  0.00  0.00     0.190 A 
HETATM    7  C   UNK     0     154.718 186.847 158.500  0.00  0.00     0.094 A 
HETATM    8  C   UNK     0     158.110 186.846 160.211  0.00  0.00     0.085 A 
HETATM    9  C   UNK     0     158.562 188.418 157.943  0.00  0.00     0.075 A 
HETATM   10  C   UNK     0     159.598 188.178 158.846  0.00  0.00     0.071 A 
HETATM   11  C   UNK     0     159.372 187.394 159.978  0.00  0.00     0.074 A 
ENDROOT
BRANCH   5  12
HETATM   12  C   UNK     0     154.083 187.968 156.401  0.00  0.00     0.001 A 
HETATM   13  C   UNK     0     152.736 187.631 156.551  0.00  0.00     0.053 A 
HETATM   14  C   UNK     0     151.814 187.970 155.560  0.00  0.00     0.099 A 
HETATM   15  C   UNK     0     152.237 188.648 154.416  0.00  0.00     0.098 A 
HETATM   16  C   UNK     0     153.581 188.984 154.262  0.00  0.00     0.040 A 
HETATM   17  C   UNK     0     154.503 188.645 155.253  0.00  0.00     0.017 A 
BRANCH  14  18
HETATM   18  O   UNK     0     150.503 187.635 155.721  0.00  0.00    -0.358 OA
HETATM   19  H   UNK     0     149.963 188.426 155.556  0.00  0.00     0.217 HD
ENDBRANCH  14  18
BRANCH  15  20
HETATM   20  O   UNK     0     151.346 188.985 153.443  0.00  0.00    -0.358 OA
HETATM   21  H   UNK     0     150.705 188.262 153.336  0.00  0.00     0.217 HD
ENDBRANCH  15  20
ENDBRANCH   5  12
BRANCH   8  22
HETATM   22  O   UNK     0     157.941 186.088 161.330  0.00  0.00    -0.360 OA
HETATM   23  H   UNK     0     158.687 185.480 161.445  0.00  0.00     0.217 HD
ENDBRANCH   8  22
BRANCH  10  24
HETATM   24  O   UNK     0     160.832 188.710 158.624  0.00  0.00    -0.361 OA
HETATM   25  H   UNK     0     160.883 189.014 157.702  0.00  0.00     0.217 HD
ENDBRANCH  10  24
TORSDOF 5
ENDMDL
MODEL 6
REMARK VINA RESULT:      -8.0     35.639     40.271
REMARK  5 active torsions:
REMARK  status: ('A' for Active; 'I' for Inactive)
REMARK    1  A    between atoms: O_2  and  C_13 
REMARK    2  A    between atoms: O_4  and  C_16 
REMARK    3  A    between atoms: O_5  and  C_19 
REMARK    4  A    between atoms: O_6  and  C_21 
REMARK    5  A    between atoms: C_9  and  C_10 
ROOT
HETATM    1  O   UNK     0     154.558 187.455 157.089  0.00  0.00    -0.309 OA
HETATM    2  O   UNK     0     158.209 189.259 157.005  0.00  0.00    -0.287 OA
HETATM    3  C   UNK     0     156.753 187.746 158.088  0.00  0.00     0.081 A 
HETATM    4  C   UNK     0     155.487 187.165 158.056  0.00  0.00     0.095 A 
HETATM    5  C   UNK     0     154.893 188.373 156.105  0.00  0.00     0.090 A 
HETATM    6  C   UNK     0     157.116 188.713 157.040  0.00  0.00     0.190 A 
HETATM    7  C   UNK     0     156.080 188.994 156.024  0.00  0.00     0.094 A 
HETATM    8  C   UNK     0     157.658 187.413 159.097  0.00  0.00     0.085 A 
HETATM    9  C   UNK     0     155.118 186.244 159.036  0.00  0.00     0.075 A 
HETATM   10  C   UNK     0     156.020 185.908 160.046  0.00  0.00     0.071 A 
HETATM   11  C   UNK     0     157.286 186.491 160.077  0.00  0.00     0.074 A 
ENDROOT
BRANCH   5  12
HETATM   12  C   UNK     0     153.825 188.606 155.114  0.00  0.00     0.001 A 
HETATM   13  C   UNK     0     152.484 188.567 155.503  0.00  0.00     0.053 A 
HETATM   14  C   UNK     0     151.475 188.788 154.566  0.00  0.00     0.099 A 
HETATM   15  C   UNK     0     151.804 189.049 153.235  0.00  0.00     0.098 A 
HETATM   16  C   UNK     0     153.141 189.088 152.842  0.00  0.00     0.040 A 
HETATM   17  C   UNK     0     154.150 188.867 153.780  0.00  0.00     0.017 A 
BRANCH  14  18
HETATM   18  O   UNK     0     150.171 188.746 154.961  0.00  0.00    -0.358 OA
HETATM   19  H   UNK     0     149.850 187.834 154.858  0.00  0.00     0.217 HD
ENDBRANCH  14  18
BRANCH  15  20
HETATM   20  O   UNK     0     150.827 189.267 152.311  0.00  0.00    -0.358 OA
HETATM   21  H   UNK     0     151.017 190.096 151.839  0.00  0.00     0.217 HD
ENDBRANCH  15  20
ENDBRANCH   5  12
BRANCH   8  22
HETATM   22  O   UNK     0     158.907 187.953 159.171  0.00  0.00    -0.360 OA
HETATM   23  H   UNK     0     159.566 187.262 159.340  0.00  0.00     0.217 HD
ENDBRANCH   8  22
BRANCH  10  24
HETATM   24  O   UNK     0     155.663 185.008 161.005  0.00  0.00    -0.361 OA
HETATM   25  H   UNK     0     155.592 184.127 160.600  0.00  0.00     0.217 HD
ENDBRANCH  10  24
TORSDOF 5
ENDMDL
MODEL 7
REMARK VINA RESULT:      -7.9     37.854     42.735
REMARK  5 active torsions:
REMARK  status: ('A' for Active; 'I' for Inactive)
REMARK    1  A    between atoms: O_2  and  C_13 
REMARK    2  A    between atoms: O_4  and  C_16 
REMARK    3  A    between atoms: O_5  and  C_19 
REMARK    4  A    between atoms: O_6  and  C_21 
REMARK    5  A    between atoms: C_9  and  C_10 
ROOT
HETATM    1  O   UNK     0     152.394 188.720 157.192  0.00  0.00    -0.309 OA
HETATM    2  O   UNK     0     155.179 188.792 154.220  0.00  0.00    -0.287 OA
HETATM    3  C   UNK     0     154.642 188.189 156.440  0.00  0.00     0.081 A 
HETATM    4  C   UNK     0     153.643 188.196 157.411  0.00  0.00     0.095 A 
HETATM    5  C   UNK     0     152.118 189.273 155.951  0.00  0.00     0.090 A 
HETATM    6  C   UNK     0     154.351 188.767 155.119  0.00  0.00     0.190 A 
HETATM    7  C   UNK     0     152.993 189.321 154.934  0.00  0.00     0.094 A 
HETATM    8  C   UNK     0     155.895 187.641 156.720  0.00  0.00     0.085 A 
HETATM    9  C   UNK     0     153.891 187.653 158.671  0.00  0.00     0.075 A 
HETATM   10  C   UNK     0     155.143 187.104 158.955  0.00  0.00     0.071 A 
HETATM   11  C   UNK     0     156.142 187.099 157.982  0.00  0.00     0.074 A 
ENDROOT
BRANCH   5  12
HETATM   12  C   UNK     0     150.746 189.802 155.820  0.00  0.00     0.001 A 
HETATM   13  C   UNK     0     149.707 188.965 155.406  0.00  0.00     0.053 A 
HETATM   14  C   UNK     0     148.412 189.464 155.282  0.00  0.00     0.099 A 
HETATM   15  C   UNK     0     148.149 190.804 155.573  0.00  0.00     0.098 A 
HETATM   16  C   UNK     0     149.183 191.643 155.986  0.00  0.00     0.040 A 
HETATM   17  C   UNK     0     150.480 191.143 156.110  0.00  0.00     0.017 A 
BRANCH  14  18
HETATM   18  O   UNK     0     147.409 188.636 154.877  0.00  0.00    -0.358 OA
HETATM   19  H   UNK     0     146.893 189.093 154.191  0.00  0.00     0.217 HD
ENDBRANCH  14  18
BRANCH  15  20
HETATM   20  O   UNK     0     146.887 191.303 155.457  0.00  0.00    -0.358 OA
HETATM   21  H   UNK     0     146.707 191.493 154.521  0.00  0.00     0.217 HD
ENDBRANCH  15  20
ENDBRANCH   5  12
BRANCH   8  22
HETATM   22  O   UNK     0     156.904 187.611 155.805  0.00  0.00    -0.360 OA
HETATM   23  H   UNK     0     156.547 187.503 154.910  0.00  0.00     0.217 HD
ENDBRANCH   8  22
BRANCH  10  24
HETATM   24  O   UNK     0     155.389 186.572 160.185  0.00  0.00    -0.361 OA
HETATM   25  H   UNK     0     155.878 185.739 160.076  0.00  0.00     0.217 HD
ENDBRANCH  10  24
TORSDOF 5
ENDMDL
MODEL 8
REMARK VINA RESULT:      -7.9     34.233     38.953
REMARK  5 active torsions:
REMARK  status: ('A' for Active; 'I' for Inactive)
REMARK    1  A    between atoms: O_2  and  C_13 
REMARK    2  A    between atoms: O_4  and  C_16 
REMARK    3  A    between atoms: O_5  and  C_19 
REMARK    4  A    between atoms: O_6  and  C_21 
REMARK    5  A    between atoms: C_9  and  C_10 
ROOT
HETATM    1  O   UNK     0     156.005 188.362 158.213  0.00  0.00    -0.309 OA
HETATM    2  O   UNK     0     158.966 186.520 156.107  0.00  0.00    -0.287 OA
HETATM    3  C   UNK     0     158.302 187.580 158.111  0.00  0.00     0.081 A 
HETATM    4  C   UNK     0     157.245 188.199 158.776  0.00  0.00     0.095 A 
HETATM    5  C   UNK     0     155.798 187.896 156.924  0.00  0.00     0.090 A 
HETATM    6  C   UNK     0     158.084 187.076 156.747  0.00  0.00     0.190 A 
HETATM    7  C   UNK     0     156.733 187.278 156.185  0.00  0.00     0.094 A 
HETATM    8  C   UNK     0     159.544 187.442 158.735  0.00  0.00     0.085 A 
HETATM    9  C   UNK     0     157.424 188.684 160.071  0.00  0.00     0.075 A 
HETATM   10  C   UNK     0     158.664 188.548 160.697  0.00  0.00     0.071 A 
HETATM   11  C   UNK     0     159.721 187.928 160.031  0.00  0.00     0.074 A 
ENDROOT
BRANCH   5  12
HETATM   12  C   UNK     0     154.429 188.117 156.418  0.00  0.00     0.001 A 
HETATM   13  C   UNK     0     153.343 188.094 157.297  0.00  0.00     0.053 A 
HETATM   14  C   UNK     0     152.050 188.302 156.818  0.00  0.00     0.099 A 
HETATM   15  C   UNK     0     151.837 188.535 155.459  0.00  0.00     0.098 A 
HETATM   16  C   UNK     0     152.918 188.557 154.579  0.00  0.00     0.040 A 
HETATM   17  C   UNK     0     154.213 188.349 155.057  0.00  0.00     0.017 A 
BRANCH  14  18
HETATM   18  O   UNK     0     151.001 188.276 157.688  0.00  0.00    -0.358 OA
HETATM   19  H   UNK     0     150.883 187.362 157.997  0.00  0.00     0.217 HD
ENDBRANCH  14  18
BRANCH  15  20
HETATM   20  O   UNK     0     150.579 188.741 154.981  0.00  0.00    -0.358 OA
HETATM   21  H   UNK     0     150.265 189.610 155.280  0.00  0.00     0.217 HD
ENDBRANCH  15  20
ENDBRANCH   5  12
BRANCH   8  22
HETATM   22  O   UNK     0     160.607 186.844 158.128  0.00  0.00    -0.360 OA
HETATM   23  H   UNK     0     160.696 185.925 158.425  0.00  0.00     0.217 HD
ENDBRANCH   8  22
BRANCH  10  24
HETATM   24  O   UNK     0     158.842 189.020 161.962  0.00  0.00    -0.361 OA
HETATM   25  H   UNK     0     159.487 189.747 161.940  0.00  0.00     0.217 HD
ENDBRANCH  10  24
TORSDOF 5
ENDMDL
MODEL 9
REMARK VINA RESULT:      -7.8     39.656     42.925
REMARK  5 active torsions:
REMARK  status: ('A' for Active; 'I' for Inactive)
REMARK    1  A    between atoms: O_2  and  C_13 
REMARK    2  A    between atoms: O_4  and  C_16 
REMARK    3  A    between atoms: O_5  and  C_19 
REMARK    4  A    between atoms: O_6  and  C_21 
REMARK    5  A    between atoms: C_9  and  C_10 
ROOT
HETATM    1  O   UNK     0     154.437 175.442 150.976  0.00  0.00    -0.309 OA
HETATM    2  O   UNK     0     156.761 173.014 148.674  0.00  0.00    -0.287 OA
HETATM    3  C   UNK     0     156.587 175.005 149.934  0.00  0.00     0.081 A 
HETATM    4  C   UNK     0     155.738 175.788 150.714  0.00  0.00     0.095 A 
HETATM    5  C   UNK     0     153.944 174.265 150.434  0.00  0.00     0.090 A 
HETATM    6  C   UNK     0     156.071 173.751 149.364  0.00  0.00     0.190 A 
HETATM    7  C   UNK     0     154.664 173.424 149.673  0.00  0.00     0.094 A 
HETATM    8  C   UNK     0     157.904 175.408 149.701  0.00  0.00     0.085 A 
HETATM    9  C   UNK     0     156.202 176.981 151.267  0.00  0.00     0.075 A 
HETATM   10  C   UNK     0     157.517 177.387 151.037  0.00  0.00     0.071 A 
HETATM   11  C   UNK     0     158.366 176.602 150.256  0.00  0.00     0.074 A 
ENDROOT
BRANCH   5  12
HETATM   12  C   UNK     0     152.537 173.986 150.782  0.00  0.00     0.001 A 
HETATM   13  C   UNK     0     152.229 173.286 151.951  0.00  0.00     0.053 A 
HETATM   14  C   UNK     0     150.899 173.022 152.280  0.00  0.00     0.099 A 
HETATM   15  C   UNK     0     149.873 173.458 151.441  0.00  0.00     0.098 A 
HETATM   16  C   UNK     0     150.177 174.156 150.273  0.00  0.00     0.040 A 
HETATM   17  C   UNK     0     151.507 174.420 149.944  0.00  0.00     0.017 A 
BRANCH  14  18
HETATM   18  O   UNK     0     150.614 172.338 153.423  0.00  0.00    -0.358 OA
HETATM   19  H   UNK     0     149.971 171.641 153.210  0.00  0.00     0.217 HD
ENDBRANCH  14  18
BRANCH  15  20
HETATM   20  O   UNK     0     148.571 173.207 151.752  0.00  0.00    -0.358 OA
HETATM   21  H   UNK     0     148.308 173.777 152.494  0.00  0.00     0.217 HD
ENDBRANCH  15  20
ENDBRANCH   5  12
BRANCH   8  22
HETATM   22  O   UNK     0     158.772 174.678 148.947  0.00  0.00    -0.360 OA
HETATM   23  H   UNK     0     158.504 173.746 148.927  0.00  0.00     0.217 HD
ENDBRANCH   8  22
BRANCH  10  24
HETATM   24  O   UNK     0     157.974 178.551 151.576  0.00  0.00    -0.361 OA
HETATM   25  H   UNK     0     157.995 179.233 150.883  0.00  0.00     0.217 HD
ENDBRANCH  10  24
TORSDOF 5
ENDMDL
