REMARK  5 active torsions:
REMARK  status: ('A' for Active; 'I' for Inactive)
REMARK    1  A    between atoms: C_3  and  O_1 
REMARK    2  A    between atoms: C_4  and  O_14 
REMARK    3  A    between atoms: C_7  and  C_8 
REMARK    4  A    between atoms: C_9  and  C_10 
REMARK    5  A    between atoms: C_10  and  O_12 
ROOT
ATOM      1  C   LIG     1      -1.925   0.501  -0.275  0.00  0.00     0.162 A 
ATOM      2  C   LIG     1      -2.624  -0.676  -0.005  0.00  0.00     0.158 A 
ATOM      3  C   LIG     1      -1.928  -1.859   0.241  0.00  0.00     0.050 A 
ATOM      4  C   LIG     1      -0.533  -1.866   0.217  0.00  0.00     0.012 A 
ATOM      5  C   LIG     1       0.165  -0.690  -0.053  0.00  0.00    -0.021 A 
ATOM      6  C   LIG     1      -0.530   0.494  -0.299  0.00  0.00     0.057 A 
ENDROOT
BRANCH   5   7
ATOM      7  C   LIG     1       1.619  -0.697  -0.077  0.00  0.00     0.015 C 
ATOM      8  C   LIG     1       2.409   0.392   0.056  0.00  0.00     0.092 C 
BRANCH   8   9
ATOM      9  C   LIG     1       3.878   0.250   0.024  0.00  0.00     0.330 C 
ATOM     10  O   LIG     1       4.503  -0.787  -0.127  0.00  0.00    -0.246 OA
BRANCH   9  11
ATOM     11  O   LIG     1       4.436   1.472   0.190  0.00  0.00    -0.478 OA
ATOM     12  H   LIG     1       5.416   1.433   0.176  0.00  0.00     0.295 HD
ENDBRANCH   9  11
ENDBRANCH   8   9
ENDBRANCH   5   7
BRANCH   1  13
ATOM     13  O   LIG     1      -2.594   1.663  -0.518  0.00  0.00    -0.491 OA
ATOM     14  C   LIG     1      -2.890   2.487   0.608  0.00  0.00     0.277 C 
ENDBRANCH   1  13
BRANCH   2  15
ATOM     15  O   LIG     1      -3.986  -0.682   0.020  0.00  0.00    -0.503 OA
ATOM     16  H   LIG     1      -4.295  -1.582   0.223  0.00  0.00     0.292 HD
ENDBRANCH   2  15
TORSDOF 5
