REMARK  Name = 5281672
REMARK  7 active torsions:
REMARK  status: ('A' for Active; 'I' for Inactive)
REMARK    1  A    between atoms: O_2  and  C_13
REMARK    2  A    between atoms: O_3  and  C_15
REMARK    3  A    between atoms: O_5  and  C_19
REMARK    4  A    between atoms: O_6  and  C_21
REMARK    5  A    between atoms: O_7  and  C_22
REMARK    6  A    between atoms: O_8  and  C_23
REMARK    7  A    between atoms: C_10  and  C_12
REMARK                            x       y       z     vdW  Elec       q    Type
REMARK                         _______ _______ _______ _____ _____    ______ ____
ROOT
ATOM      1  O   UNL     1      -0.511  -0.852   0.001  0.00  0.00    +0.000 OA
ATOM      2  O   UNL     1      -2.268   2.825  -0.016  0.00  0.00    +0.000 OA
ATOM      3  C   UNL     1      -2.539   0.482  -0.000  0.00  0.00    +0.000 A 
ATOM      4  C   UNL     1       0.244   0.311   0.008  0.00  0.00    +0.000 A 
ATOM      5  C   UNL     1      -1.878  -0.744   0.003  0.00  0.00    +0.000 A 
ATOM      6  C   UNL     1      -0.270   1.554  -0.004  0.00  0.00    +0.000 A 
ATOM      7  C   UNL     1      -1.744   1.720  -0.007  0.00  0.00    +0.000 A 
ATOM      8  C   UNL     1      -3.935   0.531   0.001  0.00  0.00    +0.000 A 
ATOM      9  C   UNL     1      -2.610  -1.931   0.007  0.00  0.00    +0.000 A 
ATOM     10  C   UNL     1      -4.004  -1.887   0.008  0.00  0.00    +0.000 A 
ATOM     11  C   UNL     1      -4.665  -0.658   0.005  0.00  0.00    +0.000 A 
ENDROOT
BRANCH   4  12
ATOM     12  C   UNL     1       1.695   0.053   0.005  0.00  0.00    +0.000 A 
ATOM     13  C   UNL     1       2.387  -0.054   1.211  0.00  0.00    +0.000 A 
ATOM     14  C   UNL     1       2.377  -0.085  -1.204  0.00  0.00    +0.000 A 
ATOM     15  C   UNL     1       3.750  -0.330  -1.206  0.00  0.00    +0.000 A 
ATOM     16  C   UNL     1       3.760  -0.300   1.209  0.00  0.00    +0.000 A 
ATOM     17  C   UNL     1       4.442  -0.438   0.000  0.00  0.00    +0.000 A 
BRANCH  15  18
ATOM     18  O   UNL     1       4.405  -0.464  -2.394  0.00  0.00    +0.000 OA
ATOM     19  H   UNL     1       5.345  -0.630  -2.208  0.00  0.00    +0.000 HD
ENDBRANCH  15  18
BRANCH  16  20
ATOM     20  O   UNL     1       4.423  -0.402   2.395  0.00  0.00    +0.000 OA
ATOM     21  H   UNL     1       5.366  -0.214   2.259  0.00  0.00    +0.000 HD
ENDBRANCH  16  20
BRANCH  17  22
ATOM     22  O   UNL     1       5.784  -0.679  -0.002  0.00  0.00    +0.000 OA
ATOM     23  H   UNL     1       6.045  -1.081   0.842  0.00  0.00    +0.000 HD
ENDBRANCH  17  22
ENDBRANCH   4  12
BRANCH   6  24
ATOM     24  O   UNL     1       0.510   2.690  -0.030  0.00  0.00    +0.000 OA
ATOM     25  H   UNL     1       1.449   2.446  -0.029  0.00  0.00    +0.000 HD
ENDBRANCH   6  24
BRANCH   8  26
ATOM     26  O   UNL     1      -4.630   1.703  -0.003  0.00  0.00    +0.000 OA
ATOM     27  H   UNL     1      -4.023   2.458  -0.002  0.00  0.00    +0.000 HD
ENDBRANCH   8  26
BRANCH  10  28
ATOM     28  O   UNL     1      -4.721  -3.045   0.013  0.00  0.00    +0.000 OA
ATOM     29  H   UNL     1      -5.669  -2.828   0.013  0.00  0.00    +0.000 HD
ENDBRANCH  10  28
TORSDOF 7
