REMARK  Name = 8742
REMARK  5 active torsions:
REMARK  status: ('A' for Active; 'I' for Inactive)
REMARK    1  A    between atoms: O_1  and  C_6
REMARK    2  A    between atoms: O_2  and  C_7
REMARK    3  A    between atoms: O_3  and  C_8
REMARK    4  A    between atoms: O_4  and  C_12
REMARK    5  A    between atoms: C_10  and  C_12
REMARK                            x       y       z     vdW  Elec       q    Type
REMARK                         _______ _______ _______ _____ _____    ______ ____
ROOT
ATOM      1  C   UNL     1      -1.948   0.195   0.218  0.00  0.00    +0.000 C 
ATOM      2  C   UNL     1      -1.165   1.481  -0.060  0.00  0.00    +0.000 C 
ATOM      3  C   UNL     1      -1.335  -1.004  -0.527  0.00  0.00    +0.000 C 
ATOM      4  C   UNL     1       0.320   1.337   0.317  0.00  0.00    +0.000 C 
ATOM      5  C   UNL     1       0.893  -0.007  -0.033  0.00  0.00    +0.000 C 
ATOM      6  C   UNL     1       0.162  -1.063  -0.420  0.00  0.00    +0.000 C 
ENDROOT
BRANCH   1   7
ATOM      7  O   UNL     1      -1.942  -0.039   1.627  0.00  0.00    +0.000 OA
ATOM      8  H   UNL     1      -2.412  -0.875   1.785  0.00  0.00    +0.000 HD
ENDBRANCH   1   7
BRANCH   2   9
ATOM      9  O   UNL     1      -1.286   1.806  -1.442  0.00  0.00    +0.000 OA
ATOM     10  H   UNL     1      -2.232   1.917  -1.637  0.00  0.00    +0.000 HD
ENDBRANCH   2   9
BRANCH   3  11
ATOM     11  O   UNL     1      -1.888  -2.219  -0.031  0.00  0.00    +0.000 OA
ATOM     12  H   UNL     1      -2.852  -2.171  -0.150  0.00  0.00    +0.000 HD
ENDBRANCH   3  11
BRANCH   5  14
ATOM     13  O   UNL     1       2.986  -0.935  -0.675  0.00  0.00    +0.000 OA
ATOM     14  C   UNL     1       2.348  -0.178   0.034  0.00  0.00    +0.000 C 
BRANCH  14  15
ATOM     15  O   UNL     1       2.854   0.625   0.992  0.00  0.00    +0.000 OA
ATOM     16  H   UNL     1       3.828   0.540   1.068  0.00  0.00    +0.000 HD
ENDBRANCH  14  15
ENDBRANCH   5  14
TORSDOF 5
