REMARK  31 active torsions:
REMARK  status: ('A' for Active; 'I' for Inactive)
REMARK    1  A    between atoms: O_2  and  C_27 
REMARK    2  A    between atoms: O_2  and  C_33 
REMARK    3  A    between atoms: O_3  and  C_34 
REMARK    4  A    between atoms: O_3  and  C_28 
REMARK    5  A    between atoms: O_4  and  C_35 
REMARK    6  A    between atoms: O_4  and  C_29 
REMARK    7  A    between atoms: O_5  and  C_36 
REMARK    8  A    between atoms: O_5  and  C_31 
REMARK    9  A    between atoms: O_6  and  C_32 
REMARK   10  A    between atoms: O_6  and  C_39 
REMARK   11  A    between atoms: O_12  and  C_51 
REMARK   12  A    between atoms: O_13  and  C_52 
REMARK   13  A    between atoms: O_14  and  C_53 
REMARK   14  A    between atoms: O_15  and  C_54 
REMARK   15  A    between atoms: O_16  and  C_55 
REMARK   16  A    between atoms: O_17  and  C_56 
REMARK   17  A    between atoms: O_18  and  C_59 
REMARK   18  A    between atoms: O_19  and  C_60 
REMARK   19  A    between atoms: O_20  and  C_61 
REMARK   20  A    between atoms: O_21  and  C_62 
REMARK   21  A    between atoms: O_22  and  C_63 
REMARK   22  A    between atoms: O_23  and  C_64 
REMARK   23  A    between atoms: O_24  and  C_65 
REMARK   24  A    between atoms: O_25  and  C_66 
REMARK   25  A    between atoms: O_26  and  C_67 
REMARK   26  A    between atoms: C_30  and  C_32 
REMARK   27  A    between atoms: C_33  and  C_37 
REMARK   28  A    between atoms: C_34  and  C_38 
REMARK   29  A    between atoms: C_35  and  C_40 
REMARK   30  A    between atoms: C_36  and  C_41 
REMARK   31  A    between atoms: C_39  and  C_42 
ROOT
HETATM    1  O   UNL     1       0.544   1.131  -0.136  1.00  0.00    -0.348 OA
HETATM    2  C   UNL     1      -0.720  -1.452  -0.031  1.00  0.00     0.198 C 
HETATM    3  C   UNL     1       0.747  -1.275  -0.483  1.00  0.00     0.195 C 
HETATM    4  C   UNL     1      -1.498  -0.167  -0.417  1.00  0.00     0.220 C 
HETATM    5  C   UNL     1       1.328  -0.020   0.212  1.00  0.00     0.181 C 
HETATM    6  C   UNL     1      -0.811   1.023   0.300  1.00  0.00     0.302 C 
ENDROOT
BRANCH   5   7
HETATM    7  C   UNL     1       2.797   0.209  -0.181  1.00  0.00     0.213 C 
BRANCH   7   8
HETATM    8  O   UNL     1       3.300   1.443   0.358  1.00  0.00    -0.315 OA
BRANCH   8   9
HETATM    9  C   UNL     1       3.240   2.497  -0.500  1.00  0.00     0.293 C 
HETATM   10  O   UNL     1       2.801   2.485  -1.637  1.00  0.00    -0.259 OA
BRANCH   9  11
HETATM   11  C   UNL     1       3.794   3.705   0.149  1.00  0.00     0.045 A 
HETATM   12  C   UNL     1       4.899   3.623   1.016  1.00  0.00     0.057 A 
HETATM   13  C   UNL     1       5.425   4.794   1.551  1.00  0.00     0.102 A 
HETATM   14  C   UNL     1       4.857   6.025   1.238  1.00  0.00     0.132 A 
HETATM   15  C   UNL     1       3.763   6.098   0.386  1.00  0.00     0.102 A 
HETATM   16  C   UNL     1       3.228   4.946  -0.173  1.00  0.00     0.057 A 
BRANCH  13  17
HETATM   17  O   UNL     1       6.512   4.790   2.380  1.00  0.00    -0.358 OA
HETATM   18  H   UNL     1       6.818   3.873   2.493  1.00  0.00     0.217 HD
ENDBRANCH  13  17
BRANCH  14  19
HETATM   19  O   UNL     1       5.373   7.181   1.756  1.00  0.00    -0.356 OA
HETATM   20  H   UNL     1       6.128   6.888   2.306  1.00  0.00     0.218 HD
ENDBRANCH  14  19
BRANCH  15  21
HETATM   21  O   UNL     1       3.210   7.307   0.082  1.00  0.00    -0.358 OA
HETATM   22  H   UNL     1       3.738   7.958   0.589  1.00  0.00     0.217 HD
ENDBRANCH  15  21
ENDBRANCH   9  11
ENDBRANCH   8   9
ENDBRANCH   7   8
ENDBRANCH   5   7
BRANCH   3  23
HETATM   23  O   UNL     1       1.557  -2.418  -0.134  1.00  0.00    -0.307 OA
BRANCH  23  24
HETATM   24  C   UNL     1       2.141  -3.310  -0.978  1.00  0.00     0.294 C 
HETATM   25  O   UNL     1       2.857  -4.199  -0.532  1.00  0.00    -0.259 OA
BRANCH  24  26
HETATM   26  C   UNL     1       1.863  -3.280  -2.434  1.00  0.00     0.045 A 
HETATM   27  C   UNL     1       2.089  -2.143  -3.225  1.00  0.00     0.057 A 
HETATM   28  C   UNL     1       1.711  -2.155  -4.564  1.00  0.00     0.102 A 
HETATM   29  C   UNL     1       1.206  -3.315  -5.137  1.00  0.00     0.132 A 
HETATM   30  C   UNL     1       1.077  -4.469  -4.378  1.00  0.00     0.102 A 
HETATM   31  C   UNL     1       1.406  -4.466  -3.029  1.00  0.00     0.057 A 
BRANCH  28  32
HETATM   32  O   UNL     1       1.802  -1.042  -5.352  1.00  0.00    -0.358 OA
HETATM   33  H   UNL     1       1.953  -0.263  -4.785  1.00  0.00     0.217 HD
ENDBRANCH  28  32
BRANCH  29  34
HETATM   34  O   UNL     1       0.830  -3.334  -6.452  1.00  0.00    -0.356 OA
HETATM   35  H   UNL     1       0.982  -2.416  -6.759  1.00  0.00     0.218 HD
ENDBRANCH  29  34
BRANCH  30  36
HETATM   36  O   UNL     1       0.608  -5.614  -4.951  1.00  0.00    -0.358 OA
HETATM   37  H   UNL     1       0.451  -5.379  -5.888  1.00  0.00     0.217 HD
ENDBRANCH  30  36
ENDBRANCH  24  26
ENDBRANCH  23  24
ENDBRANCH   3  23
BRANCH   6  38
HETATM   38  O   UNL     1      -1.522   2.224  -0.052  1.00  0.00    -0.283 OA
BRANCH  38  39
HETATM   39  C   UNL     1      -2.087   3.128   0.782  1.00  0.00     0.295 C 
HETATM   40  O   UNL     1      -2.746   4.057   0.328  1.00  0.00    -0.259 OA
BRANCH  39  41
HETATM   41  C   UNL     1      -1.821   3.077   2.237  1.00  0.00     0.045 A 
HETATM   42  C   UNL     1      -2.144   1.959   3.024  1.00  0.00     0.057 A 
HETATM   43  C   UNL     1      -1.796   1.960   4.372  1.00  0.00     0.102 A 
HETATM   44  C   UNL     1      -1.227   3.091   4.949  1.00  0.00     0.132 A 
HETATM   45  C   UNL     1      -1.003   4.229   4.187  1.00  0.00     0.102 A 
HETATM   46  C   UNL     1      -1.286   4.231   2.829  1.00  0.00     0.057 A 
BRANCH  43  47
HETATM   47  O   UNL     1      -1.979   0.868   5.173  1.00  0.00    -0.358 OA
HETATM   48  H   UNL     1      -2.420   0.166   4.662  1.00  0.00     0.217 HD
ENDBRANCH  43  47
BRANCH  44  49
HETATM   49  O   UNL     1      -0.887   3.103   6.275  1.00  0.00    -0.356 OA
HETATM   50  H   UNL     1      -1.122   2.210   6.599  1.00  0.00     0.218 HD
ENDBRANCH  44  49
BRANCH  45  51
HETATM   51  O   UNL     1      -0.499   5.355   4.768  1.00  0.00    -0.358 OA
HETATM   52  H   UNL     1      -0.424   5.139   5.719  1.00  0.00     0.217 HD
ENDBRANCH  45  51
ENDBRANCH  39  41
ENDBRANCH  38  39
ENDBRANCH   6  38
BRANCH   2  53
HETATM   53  O   UNL     1      -1.314  -2.693  -0.498  1.00  0.00    -0.306 OA
BRANCH  53  54
HETATM   54  C   UNL     1      -1.522  -2.870  -1.818  1.00  0.00     0.294 C 
HETATM   55  O   UNL     1      -1.258  -2.054  -2.689  1.00  0.00    -0.259 OA
BRANCH  54  56
HETATM   56  C   UNL     1      -2.168  -4.173  -2.075  1.00  0.00     0.045 A 
HETATM   57  C   UNL     1      -3.255  -4.208  -2.960  1.00  0.00     0.057 A 
HETATM   58  C   UNL     1      -3.846  -5.421  -3.284  1.00  0.00     0.102 A 
HETATM   59  C   UNL     1      -3.334  -6.600  -2.763  1.00  0.00     0.132 A 
HETATM   60  C   UNL     1      -2.249  -6.566  -1.893  1.00  0.00     0.102 A 
HETATM   61  C   UNL     1      -1.669  -5.358  -1.521  1.00  0.00     0.057 A 
BRANCH  58  62
HETATM   62  O   UNL     1      -4.921  -5.495  -4.124  1.00  0.00    -0.358 OA
HETATM   63  H   UNL     1      -5.145  -4.592  -4.416  1.00  0.00     0.217 HD
ENDBRANCH  58  62
BRANCH  59  64
HETATM   64  O   UNL     1      -3.879  -7.805  -3.110  1.00  0.00    -0.356 OA
HETATM   65  H   UNL     1      -4.603  -7.574  -3.729  1.00  0.00     0.218 HD
ENDBRANCH  59  64
BRANCH  60  66
HETATM   66  O   UNL     1      -1.726  -7.733  -1.416  1.00  0.00    -0.358 OA
HETATM   67  H   UNL     1      -2.234  -8.436  -1.872  1.00  0.00     0.217 HD
ENDBRANCH  60  66
ENDBRANCH  54  56
ENDBRANCH  53  54
ENDBRANCH   2  53
BRANCH   4  68
HETATM   68  O   UNL     1      -2.887  -0.254  -0.014  1.00  0.00    -0.304 OA
BRANCH  68  69
HETATM   69  C   UNL     1      -3.833   0.505  -0.648  1.00  0.00     0.294 C 
HETATM   70  O   UNL     1      -4.784   0.983  -0.051  1.00  0.00    -0.259 OA
BRANCH  69  71
HETATM   71  C   UNL     1      -3.709   0.618  -2.119  1.00  0.00     0.045 A 
HETATM   72  C   UNL     1      -3.254   1.804  -2.715  1.00  0.00     0.057 A 
HETATM   73  C   UNL     1      -3.007   1.813  -4.085  1.00  0.00     0.102 A 
HETATM   74  C   UNL     1      -3.237   0.672  -4.847  1.00  0.00     0.132 A 
HETATM   75  C   UNL     1      -3.763  -0.470  -4.259  1.00  0.00     0.102 A 
HETATM   76  C   UNL     1      -4.018  -0.505  -2.895  1.00  0.00     0.057 A 
BRANCH  73  77
HETATM   77  O   UNL     1      -2.518   2.914  -4.731  1.00  0.00    -0.358 OA
HETATM   78  H   UNL     1      -2.470   3.651  -4.094  1.00  0.00     0.217 HD
ENDBRANCH  73  77
BRANCH  74  79
HETATM   79  O   UNL     1      -2.948   0.651  -6.185  1.00  0.00    -0.356 OA
HETATM   80  H   UNL     1      -2.584   1.542  -6.368  1.00  0.00     0.218 HD
ENDBRANCH  74  79
BRANCH  75  81
HETATM   81  O   UNL     1      -4.003  -1.577  -5.023  1.00  0.00    -0.358 OA
HETATM   82  H   UNL     1      -3.646  -1.341  -5.906  1.00  0.00     0.217 HD
ENDBRANCH  75  81
ENDBRANCH  69  71
ENDBRANCH  68  69
ENDBRANCH   4  68
TORSDOF 31
