MODEL 1
REMARK VINA RESULT:    -8.150      0.000      0.000
REMARK INTER + INTRA:         -16.134
REMARK INTER:                 -13.931
REMARK INTRA:                  -2.203
REMARK UNBOUND:                -2.743
REMARK  16 active torsions:
REMARK  status: ('A' for Active; 'I' for Inactive)
REMARK    1  A    between atoms: O_2  and  C_22 
REMARK    2  A    between atoms: O_2  and  C_26 
REMARK    3  A    between atoms: O_4  and  C_18 
REMARK    4  A    between atoms: O_5  and  C_19 
REMARK    5  A    between atoms: O_6  and  C_25 
REMARK    6  A    between atoms: O_6  and  C_29 
REMARK    7  A    between atoms: O_7  and  C_20 
REMARK    8  A    between atoms: O_8  and  C_21 
REMARK    9  A    between atoms: O_9  and  C_23 
REMARK   10  A    between atoms: O_10  and  C_24 
REMARK   11  A    between atoms: O_13  and  C_35 
REMARK   12  A    between atoms: O_14  and  C_40 
REMARK   13  A    between atoms: O_15  and  C_41 
REMARK   14  A    between atoms: O_16  and  C_43 
REMARK   15  A    between atoms: C_17  and  C_26 
REMARK   16  A    between atoms: C_30  and  C_33 
ROOT
HETATM    1  O   UNK     0       7.861  43.893  25.795  0.00  0.00    -0.348 OA
HETATM    2  C   UNK     0       9.164  43.315  25.899  0.00  0.00     0.180 C 
HETATM    3  C   UNK     0      10.230  44.410  25.798  0.00  0.00     0.180 C 
HETATM    4  C   UNK     0      10.065  45.210  24.506  0.00  0.00     0.183 C 
HETATM    5  C   UNK     0       8.618  45.668  24.318  0.00  0.00     0.205 C 
HETATM    6  C   UNK     0       7.638  44.514  24.530  0.00  0.00     0.298 C 
ENDROOT
BRANCH   2   7
HETATM    7  C   UNK     0       9.234  42.579  27.233  0.00  0.00     0.205 C 
BRANCH   7   8
HETATM    8  O   UNK     0       7.932  42.519  27.797  0.00  0.00    -0.356 OA
BRANCH   8   9
HETATM    9  C   UNK     0       7.972  42.095  29.155  0.00  0.00     0.291 C 
HETATM   10  O   UNK     0       7.881  40.673  29.286  0.00  0.00    -0.351 OA
HETATM   11  C   UNK     0       6.640  40.121  28.835  0.00  0.00     0.152 C 
HETATM   12  C   UNK     0       5.457  40.713  29.615  0.00  0.00     0.178 C 
HETATM   13  C   UNK     0       6.736  38.607  29.005  0.00  0.00     0.042 C 
HETATM   14  C   UNK     0       5.488  42.240  29.537  0.00  0.00     0.183 C 
HETATM   15  C   UNK     0       6.859  42.782  29.944  0.00  0.00     0.204 C 
BRANCH  12  16
HETATM   16  O   UNK     0       4.224  40.264  29.058  0.00  0.00    -0.390 OA
HETATM   17  H   UNK     0       4.368  39.376  28.690  0.00  0.00     0.210 HD
ENDBRANCH  12  16
BRANCH  14  18
HETATM   18  O   UNK     0       4.480  42.774  30.393  0.00  0.00    -0.390 OA
HETATM   19  H   UNK     0       4.636  42.425  31.288  0.00  0.00     0.210 HD
ENDBRANCH  14  18
BRANCH  15  20
HETATM   20  O   UNK     0       7.089  42.531  31.331  0.00  0.00    -0.388 OA
HETATM   21  H   UNK     0       8.011  42.764  31.536  0.00  0.00     0.210 HD
ENDBRANCH  15  20
ENDBRANCH   8   9
ENDBRANCH   7   8
ENDBRANCH   2   7
BRANCH   6  22
HETATM   22  O   UNK     0       6.315  45.046  24.482  0.00  0.00    -0.311 OA
BRANCH  22  23
HETATM   23  C   UNK     0       5.404  44.103  24.060  0.00  0.00     0.157 A 
HETATM   24  C   UNK     0       5.097  43.905  22.765  0.00  0.00     0.124 A 
HETATM   25  O   UNK     0       4.163  42.988  22.310  0.00  0.00    -0.306 OA
HETATM   26  C   UNK     0       3.511  42.207  23.229  0.00  0.00     0.096 A 
HETATM   27  C   UNK     0       3.740  42.303  24.599  0.00  0.00     0.084 A 
HETATM   28  C   UNK     0       2.584  41.286  22.739  0.00  0.00     0.075 A 
HETATM   29  C   UNK     0       4.721  43.284  25.090  0.00  0.00     0.223 A 
HETATM   30  C   UNK     0       3.045  41.481  25.491  0.00  0.00     0.085 A 
HETATM   31  O   UNK     0       4.960  43.417  26.283  0.00  0.00    -0.284 OA
HETATM   32  C   UNK     0       2.118  40.561  24.998  0.00  0.00     0.074 A 
HETATM   33  C   UNK     0       1.888  40.464  23.626  0.00  0.00     0.071 A 
BRANCH  24  34
HETATM   34  C   UNK     0       5.721  44.678  21.676  0.00  0.00     0.004 A 
HETATM   35  C   UNK     0       5.322  45.993  21.436  0.00  0.00     0.053 A 
HETATM   36  C   UNK     0       5.914  46.725  20.407  0.00  0.00     0.099 A 
HETATM   37  C   UNK     0       6.903  46.142  19.616  0.00  0.00     0.098 A 
HETATM   38  C   UNK     0       7.302  44.827  19.855  0.00  0.00     0.040 A 
HETATM   39  C   UNK     0       6.712  44.095  20.885  0.00  0.00     0.017 A 
BRANCH  36  40
HETATM   40  O   UNK     0       5.514  48.008  20.181  0.00  0.00    -0.358 OA
HETATM   41  H   UNK     0       4.641  48.153  20.580  0.00  0.00     0.217 HD
ENDBRANCH  36  40
BRANCH  37  42
HETATM   42  O   UNK     0       7.489  46.847  18.608  0.00  0.00    -0.358 OA
HETATM   43  H   UNK     0       6.853  47.480  18.240  0.00  0.00     0.217 HD
ENDBRANCH  37  42
ENDBRANCH  24  34
BRANCH  30  44
HETATM   44  O   UNK     0       3.232  41.535  26.838  0.00  0.00    -0.360 OA
HETATM   45  H   UNK     0       2.478  41.115  27.288  0.00  0.00     0.217 HD
ENDBRANCH  30  44
BRANCH  33  46
HETATM   46  O   UNK     0       0.983  39.565  23.150  0.00  0.00    -0.361 OA
HETATM   47  H   UNK     0       0.572  39.103  23.901  0.00  0.00     0.217 HD
ENDBRANCH  33  46
ENDBRANCH  22  23
ENDBRANCH   6  22
BRANCH   3  48
HETATM   48  O   UNK     0      11.523  43.811  25.819  0.00  0.00    -0.390 OA
HETATM   49  H   UNK     0      11.970  44.089  26.636  0.00  0.00     0.210 HD
ENDBRANCH   3  48
BRANCH   5  50
HETATM   50  O   UNK     0       8.446  46.164  22.992  0.00  0.00    -0.388 OA
HETATM   51  H   UNK     0       8.310  45.404  22.401  0.00  0.00     0.210 HD
ENDBRANCH   5  50
BRANCH   4  52
HETATM   52  O   UNK     0      10.919  46.353  24.582  0.00  0.00    -0.390 OA
HETATM   53  H   UNK     0      11.711  46.091  25.084  0.00  0.00     0.210 HD
ENDBRANCH   4  52
TORSDOF 16
ENDMDL
MODEL 2
REMARK VINA RESULT:    -8.077      1.581      2.328
REMARK INTER + INTRA:         -16.013
REMARK INTER:                 -14.397
REMARK INTRA:                  -1.616
REMARK UNBOUND:                -2.743
REMARK  16 active torsions:
REMARK  status: ('A' for Active; 'I' for Inactive)
REMARK    1  A    between atoms: O_2  and  C_22 
REMARK    2  A    between atoms: O_2  and  C_26 
REMARK    3  A    between atoms: O_4  and  C_18 
REMARK    4  A    between atoms: O_5  and  C_19 
REMARK    5  A    between atoms: O_6  and  C_25 
REMARK    6  A    between atoms: O_6  and  C_29 
REMARK    7  A    between atoms: O_7  and  C_20 
REMARK    8  A    between atoms: O_8  and  C_21 
REMARK    9  A    between atoms: O_9  and  C_23 
REMARK   10  A    between atoms: O_10  and  C_24 
REMARK   11  A    between atoms: O_13  and  C_35 
REMARK   12  A    between atoms: O_14  and  C_40 
REMARK   13  A    between atoms: O_15  and  C_41 
REMARK   14  A    between atoms: O_16  and  C_43 
REMARK   15  A    between atoms: C_17  and  C_26 
REMARK   16  A    between atoms: C_30  and  C_33 
ROOT
HETATM    1  O   UNK     0       7.616  43.984  25.489  0.00  0.00    -0.348 OA
HETATM    2  C   UNK     0       8.924  43.454  25.715  0.00  0.00     0.180 C 
HETATM    3  C   UNK     0       9.959  44.581  25.672  0.00  0.00     0.180 C 
HETATM    4  C   UNK     0       9.876  45.343  24.349  0.00  0.00     0.183 C 
HETATM    5  C   UNK     0       8.436  45.746  24.032  0.00  0.00     0.205 C 
HETATM    6  C   UNK     0       7.479  44.565  24.194  0.00  0.00     0.298 C 
ENDROOT
BRANCH   2   7
HETATM    7  C   UNK     0       8.907  42.754  27.071  0.00  0.00     0.205 C 
BRANCH   7   8
HETATM    8  O   UNK     0       9.634  43.537  28.005  0.00  0.00    -0.356 OA
BRANCH   8   9
HETATM    9  C   UNK     0      10.315  42.720  28.951  0.00  0.00     0.291 C 
HETATM   10  O   UNK     0       9.427  41.854  29.664  0.00  0.00    -0.351 OA
HETATM   11  C   UNK     0       8.475  42.537  30.486  0.00  0.00     0.152 C 
HETATM   12  C   UNK     0       9.179  43.408  31.536  0.00  0.00     0.178 C 
HETATM   13  C   UNK     0       7.592  41.470  31.128  0.00  0.00     0.042 C 
HETATM   14  C   UNK     0      10.162  44.360  30.856  0.00  0.00     0.183 C 
HETATM   15  C   UNK     0      11.104  43.599  29.920  0.00  0.00     0.204 C 
BRANCH  12  16
HETATM   16  O   UNK     0       8.224  44.190  32.249  0.00  0.00    -0.390 OA
HETATM   17  H   UNK     0       7.508  43.599  32.535  0.00  0.00     0.210 HD
ENDBRANCH  12  16
BRANCH  14  18
HETATM   18  O   UNK     0      10.917  45.047  31.852  0.00  0.00    -0.390 OA
HETATM   19  H   UNK     0      10.333  45.197  32.615  0.00  0.00     0.210 HD
ENDBRANCH  14  18
BRANCH  15  20
HETATM   20  O   UNK     0      11.962  42.748  30.681  0.00  0.00    -0.388 OA
HETATM   21  H   UNK     0      12.821  42.693  30.227  0.00  0.00     0.210 HD
ENDBRANCH  15  20
ENDBRANCH   8   9
ENDBRANCH   7   8
ENDBRANCH   2   7
BRANCH   6  22
HETATM   22  O   UNK     0       6.148  45.051  24.023  0.00  0.00    -0.311 OA
BRANCH  22  23
HETATM   23  C   UNK     0       5.281  44.040  23.670  0.00  0.00     0.157 A 
HETATM   24  C   UNK     0       5.050  43.683  22.394  0.00  0.00     0.124 A 
HETATM   25  O   UNK     0       4.161  42.694  22.003  0.00  0.00    -0.306 OA
HETATM   26  C   UNK     0       3.476  42.009  22.973  0.00  0.00     0.096 A 
HETATM   27  C   UNK     0       3.628  42.273  24.333  0.00  0.00     0.084 A 
HETATM   28  C   UNK     0       2.596  41.013  22.549  0.00  0.00     0.075 A 
HETATM   29  C   UNK     0       4.560  43.330  24.753  0.00  0.00     0.223 A 
HETATM   30  C   UNK     0       2.902  41.543  25.279  0.00  0.00     0.085 A 
HETATM   31  O   UNK     0       4.730  43.609  25.932  0.00  0.00    -0.284 OA
HETATM   32  C   UNK     0       2.022  40.547  24.851  0.00  0.00     0.074 A 
HETATM   33  C   UNK     0       1.870  40.282  23.490  0.00  0.00     0.071 A 
BRANCH  24  34
HETATM   34  C   UNK     0       5.717  44.338  21.254  0.00  0.00     0.004 A 
HETATM   35  C   UNK     0       5.275  45.584  20.810  0.00  0.00     0.053 A 
HETATM   36  C   UNK     0       5.907  46.206  19.733  0.00  0.00     0.099 A 
HETATM   37  C   UNK     0       6.980  45.580  19.099  0.00  0.00     0.098 A 
HETATM   38  C   UNK     0       7.422  44.333  19.542  0.00  0.00     0.040 A 
HETATM   39  C   UNK     0       6.791  43.713  20.620  0.00  0.00     0.017 A 
BRANCH  36  40
HETATM   40  O   UNK     0       5.465  47.422  19.307  0.00  0.00    -0.358 OA
HETATM   41  H   UNK     0       4.682  47.307  18.744  0.00  0.00     0.217 HD
ENDBRANCH  36  40
BRANCH  37  42
HETATM   42  O   UNK     0       7.605  46.177  18.046  0.00  0.00    -0.358 OA
HETATM   43  H   UNK     0       6.945  46.544  17.438  0.00  0.00     0.217 HD
ENDBRANCH  37  42
ENDBRANCH  24  34
BRANCH  30  44
HETATM   44  O   UNK     0       3.012  41.761  26.617  0.00  0.00    -0.360 OA
HETATM   45  H   UNK     0       3.887  42.140  26.814  0.00  0.00     0.217 HD
ENDBRANCH  30  44
BRANCH  33  46
HETATM   46  O   UNK     0       1.011  39.310  23.079  0.00  0.00    -0.361 OA
HETATM   47  H   UNK     0       0.397  39.687  22.425  0.00  0.00     0.217 HD
ENDBRANCH  33  46
ENDBRANCH  22  23
ENDBRANCH   6  22
BRANCH   3  48
HETATM   48  O   UNK     0      11.264  44.027  25.816  0.00  0.00    -0.390 OA
HETATM   49  H   UNK     0      11.261  43.449  26.597  0.00  0.00     0.210 HD
ENDBRANCH   3  48
BRANCH   5  50
HETATM   50  O   UNK     0       8.358  46.203  22.682  0.00  0.00    -0.388 OA
HETATM   51  H   UNK     0       7.468  46.003  22.347  0.00  0.00     0.210 HD
ENDBRANCH   5  50
BRANCH   4  52
HETATM   52  O   UNK     0      10.684  46.515  24.464  0.00  0.00    -0.390 OA
HETATM   53  H   UNK     0      11.222  46.579  23.656  0.00  0.00     0.210 HD
ENDBRANCH   4  52
TORSDOF 16
ENDMDL
MODEL 3
REMARK VINA RESULT:    -7.920      4.760      8.563
REMARK INTER + INTRA:         -15.756
REMARK INTER:                 -13.636
REMARK INTRA:                  -2.120
REMARK UNBOUND:                -2.743
REMARK  16 active torsions:
REMARK  status: ('A' for Active; 'I' for Inactive)
REMARK    1  A    between atoms: O_2  and  C_22 
REMARK    2  A    between atoms: O_2  and  C_26 
REMARK    3  A    between atoms: O_4  and  C_18 
REMARK    4  A    between atoms: O_5  and  C_19 
REMARK    5  A    between atoms: O_6  and  C_25 
REMARK    6  A    between atoms: O_6  and  C_29 
REMARK    7  A    between atoms: O_7  and  C_20 
REMARK    8  A    between atoms: O_8  and  C_21 
REMARK    9  A    between atoms: O_9  and  C_23 
REMARK   10  A    between atoms: O_10  and  C_24 
REMARK   11  A    between atoms: O_13  and  C_35 
REMARK   12  A    between atoms: O_14  and  C_40 
REMARK   13  A    between atoms: O_15  and  C_41 
REMARK   14  A    between atoms: O_16  and  C_43 
REMARK   15  A    between atoms: C_17  and  C_26 
REMARK   16  A    between atoms: C_30  and  C_33 
ROOT
HETATM    1  O   UNK     0      11.320  43.842  20.768  0.00  0.00    -0.348 OA
HETATM    2  C   UNK     0      12.228  42.839  20.308  0.00  0.00     0.180 C 
HETATM    3  C   UNK     0      13.207  43.444  19.300  0.00  0.00     0.180 C 
HETATM    4  C   UNK     0      12.456  44.104  18.143  0.00  0.00     0.183 C 
HETATM    5  C   UNK     0      11.362  45.041  18.655  0.00  0.00     0.205 C 
HETATM    6  C   UNK     0      10.503  44.360  19.721  0.00  0.00     0.298 C 
ENDROOT
BRANCH   2   7
HETATM    7  C   UNK     0      12.949  42.278  21.530  0.00  0.00     0.205 C 
BRANCH   7   8
HETATM    8  O   UNK     0      14.232  42.879  21.626  0.00  0.00    -0.356 OA
BRANCH   8   9
HETATM    9  C   UNK     0      15.097  42.128  22.471  0.00  0.00     0.291 C 
HETATM   10  O   UNK     0      15.898  42.963  23.313  0.00  0.00    -0.351 OA
HETATM   11  C   UNK     0      16.819  43.798  22.606  0.00  0.00     0.152 C 
HETATM   12  C   UNK     0      17.791  42.959  21.765  0.00  0.00     0.178 C 
HETATM   13  C   UNK     0      17.548  44.642  23.649  0.00  0.00     0.042 C 
HETATM   14  C   UNK     0      17.012  42.024  20.839  0.00  0.00     0.183 C 
HETATM   15  C   UNK     0      15.979  41.213  21.623  0.00  0.00     0.204 C 
BRANCH  12  16
HETATM   16  O   UNK     0      18.604  43.807  20.957  0.00  0.00    -0.390 OA
HETATM   17  H   UNK     0      18.675  43.402  20.076  0.00  0.00     0.210 HD
ENDBRANCH  12  16
BRANCH  14  18
HETATM   18  O   UNK     0      17.924  41.145  20.184  0.00  0.00    -0.390 OA
HETATM   19  H   UNK     0      17.988  40.333  20.716  0.00  0.00     0.210 HD
ENDBRANCH  14  18
BRANCH  15  20
HETATM   20  O   UNK     0      16.641  40.306  22.507  0.00  0.00    -0.388 OA
HETATM   21  H   UNK     0      17.563  40.596  22.610  0.00  0.00     0.210 HD
ENDBRANCH  15  20
ENDBRANCH   8   9
ENDBRANCH   7   8
ENDBRANCH   2   7
BRANCH   6  22
HETATM   22  O   UNK     0       9.604  45.335  20.249  0.00  0.00    -0.311 OA
BRANCH  22  23
HETATM   23  C   UNK     0       8.371  44.788  20.531  0.00  0.00     0.157 A 
HETATM   24  C   UNK     0       8.013  44.376  21.760  0.00  0.00     0.124 A 
HETATM   25  O   UNK     0       6.795  43.793  22.070  0.00  0.00    -0.306 OA
HETATM   26  C   UNK     0       5.871  43.636  21.069  0.00  0.00     0.096 A 
HETATM   27  C   UNK     0       6.109  44.028  19.754  0.00  0.00     0.084 A 
HETATM   28  C   UNK     0       4.650  43.055  21.414  0.00  0.00     0.075 A 
HETATM   29  C   UNK     0       7.406  44.635  19.416  0.00  0.00     0.223 A 
HETATM   30  C   UNK     0       5.130  43.843  18.773  0.00  0.00     0.085 A 
HETATM   31  O   UNK     0       7.674  44.994  18.277  0.00  0.00    -0.284 OA
HETATM   32  C   UNK     0       3.910  43.262  19.122  0.00  0.00     0.074 A 
HETATM   33  C   UNK     0       3.670  42.869  20.439  0.00  0.00     0.071 A 
BRANCH  24  34
HETATM   34  C   UNK     0       8.911  44.483  22.924  0.00  0.00     0.004 A 
HETATM   35  C   UNK     0       9.423  45.726  23.298  0.00  0.00     0.053 A 
HETATM   36  C   UNK     0      10.271  45.828  24.400  0.00  0.00     0.099 A 
HETATM   37  C   UNK     0      10.609  44.688  25.129  0.00  0.00     0.098 A 
HETATM   38  C   UNK     0      10.097  43.445  24.755  0.00  0.00     0.040 A 
HETATM   39  C   UNK     0       9.248  43.343  23.653  0.00  0.00     0.017 A 
BRANCH  36  40
HETATM   40  O   UNK     0      10.767  47.048  24.755  0.00  0.00    -0.358 OA
HETATM   41  H   UNK     0      11.402  46.943  25.481  0.00  0.00     0.217 HD
ENDBRANCH  36  40
BRANCH  37  42
HETATM   42  O   UNK     0      11.435  44.776  26.208  0.00  0.00    -0.358 OA
HETATM   43  H   UNK     0      11.829  45.661  26.248  0.00  0.00     0.217 HD
ENDBRANCH  37  42
ENDBRANCH  24  34
BRANCH  30  44
HETATM   44  O   UNK     0       5.313  44.207  17.475  0.00  0.00    -0.360 OA
HETATM   45  H   UNK     0       6.017  44.877  17.421  0.00  0.00     0.217 HD
ENDBRANCH  30  44
BRANCH  33  46
HETATM   46  O   UNK     0       2.479  42.303  20.773  0.00  0.00    -0.361 OA
HETATM   47  H   UNK     0       2.106  42.778  21.535  0.00  0.00     0.217 HD
ENDBRANCH  33  46
ENDBRANCH  22  23
ENDBRANCH   6  22
BRANCH   3  48
HETATM   48  O   UNK     0      14.052  42.417  18.788  0.00  0.00    -0.390 OA
HETATM   49  H   UNK     0      14.661  42.819  18.146  0.00  0.00     0.210 HD
ENDBRANCH   3  48
BRANCH   5  50
HETATM   50  O   UNK     0      10.515  45.419  17.571  0.00  0.00    -0.388 OA
HETATM   51  H   UNK     0      10.654  46.364  17.395  0.00  0.00     0.210 HD
ENDBRANCH   5  50
BRANCH   4  52
HETATM   52  O   UNK     0      13.400  44.852  17.373  0.00  0.00    -0.390 OA
HETATM   53  H   UNK     0      14.228  44.343  17.354  0.00  0.00     0.210 HD
ENDBRANCH   4  52
TORSDOF 16
ENDMDL
MODEL 4
REMARK VINA RESULT:    -7.889      3.449      8.509
REMARK INTER + INTRA:         -15.705
REMARK INTER:                 -13.457
REMARK INTRA:                  -2.248
REMARK UNBOUND:                -2.743
REMARK  16 active torsions:
REMARK  status: ('A' for Active; 'I' for Inactive)
REMARK    1  A    between atoms: O_2  and  C_22 
REMARK    2  A    between atoms: O_2  and  C_26 
REMARK    3  A    between atoms: O_4  and  C_18 
REMARK    4  A    between atoms: O_5  and  C_19 
REMARK    5  A    between atoms: O_6  and  C_25 
REMARK    6  A    between atoms: O_6  and  C_29 
REMARK    7  A    between atoms: O_7  and  C_20 
REMARK    8  A    between atoms: O_8  and  C_21 
REMARK    9  A    between atoms: O_9  and  C_23 
REMARK   10  A    between atoms: O_10  and  C_24 
REMARK   11  A    between atoms: O_13  and  C_35 
REMARK   12  A    between atoms: O_14  and  C_40 
REMARK   13  A    between atoms: O_15  and  C_41 
REMARK   14  A    between atoms: O_16  and  C_43 
REMARK   15  A    between atoms: C_17  and  C_26 
REMARK   16  A    between atoms: C_30  and  C_33 
ROOT
HETATM    1  O   UNK     0       7.067  44.133  21.601  0.00  0.00    -0.348 OA
HETATM    2  C   UNK     0       6.416  45.337  22.010  0.00  0.00     0.180 C 
HETATM    3  C   UNK     0       5.488  45.832  20.898  0.00  0.00     0.180 C 
HETATM    4  C   UNK     0       6.259  46.020  19.591  0.00  0.00     0.183 C 
HETATM    5  C   UNK     0       7.098  44.785  19.261  0.00  0.00     0.205 C 
HETATM    6  C   UNK     0       7.914  44.328  20.470  0.00  0.00     0.298 C 
ENDROOT
BRANCH   2   7
HETATM    7  C   UNK     0       5.647  45.031  23.292  0.00  0.00     0.205 C 
BRANCH   7   8
HETATM    8  O   UNK     0       4.344  44.579  22.954  0.00  0.00    -0.356 OA
BRANCH   8   9
HETATM    9  C   UNK     0       4.193  43.187  23.209  0.00  0.00     0.291 C 
HETATM   10  O   UNK     0       4.901  42.379  22.264  0.00  0.00    -0.351 OA
HETATM   11  C   UNK     0       4.422  42.492  20.920  0.00  0.00     0.152 C 
HETATM   12  C   UNK     0       2.944  42.089  20.825  0.00  0.00     0.178 C 
HETATM   13  C   UNK     0       5.313  41.606  20.052  0.00  0.00     0.042 C 
HETATM   14  C   UNK     0       2.113  42.902  21.818  0.00  0.00     0.183 C 
HETATM   15  C   UNK     0       2.709  42.823  23.225  0.00  0.00     0.204 C 
BRANCH  12  16
HETATM   16  O   UNK     0       2.445  42.346  19.514  0.00  0.00    -0.390 OA
HETATM   17  H   UNK     0       3.146  42.121  18.879  0.00  0.00     0.210 HD
ENDBRANCH  12  16
BRANCH  14  18
HETATM   18  O   UNK     0       0.776  42.406  21.828  0.00  0.00    -0.390 OA
HETATM   19  H   UNK     0       0.264  42.920  21.179  0.00  0.00     0.210 HD
ENDBRANCH  14  18
BRANCH  15  20
HETATM   20  O   UNK     0       2.593  41.492  23.729  0.00  0.00    -0.388 OA
HETATM   21  H   UNK     0       3.244  41.376  24.442  0.00  0.00     0.210 HD
ENDBRANCH  15  20
ENDBRANCH   8   9
ENDBRANCH   7   8
ENDBRANCH   2   7
BRANCH   6  22
HETATM   22  O   UNK     0       8.552  43.097  20.130  0.00  0.00    -0.311 OA
BRANCH  22  23
HETATM   23  C   UNK     0       9.884  43.104  20.480  0.00  0.00     0.157 A 
HETATM   24  C   UNK     0      10.318  42.842  21.726  0.00  0.00     0.124 A 
HETATM   25  O   UNK     0      11.647  42.872  22.120  0.00  0.00    -0.306 OA
HETATM   26  C   UNK     0      12.600  43.168  21.180  0.00  0.00     0.096 A 
HETATM   27  C   UNK     0      12.289  43.450  19.852  0.00  0.00     0.084 A 
HETATM   28  C   UNK     0      13.930  43.180  21.604  0.00  0.00     0.075 A 
HETATM   29  C   UNK     0      10.880  43.433  19.432  0.00  0.00     0.223 A 
HETATM   30  C   UNK     0      13.304  43.746  18.937  0.00  0.00     0.085 A 
HETATM   31  O   UNK     0      10.546  43.678  18.280  0.00  0.00    -0.284 OA
HETATM   32  C   UNK     0      14.633  43.758  19.364  0.00  0.00     0.074 A 
HETATM   33  C   UNK     0      14.945  43.475  20.694  0.00  0.00     0.071 A 
BRANCH  24  34
HETATM   34  C   UNK     0       9.399  42.512  22.831  0.00  0.00     0.004 A 
HETATM   35  C   UNK     0       9.284  43.372  23.923  0.00  0.00     0.053 A 
HETATM   36  C   UNK     0       8.415  43.062  24.968  0.00  0.00     0.099 A 
HETATM   37  C   UNK     0       7.660  41.890  24.922  0.00  0.00     0.098 A 
HETATM   38  C   UNK     0       7.775  41.029  23.831  0.00  0.00     0.040 A 
HETATM   39  C   UNK     0       8.644  41.341  22.785  0.00  0.00     0.017 A 
BRANCH  36  40
HETATM   40  O   UNK     0       8.312  43.909  26.031  0.00  0.00    -0.358 OA
HETATM   41  H   UNK     0       8.465  43.419  26.855  0.00  0.00     0.217 HD
ENDBRANCH  36  40
BRANCH  37  42
HETATM   42  O   UNK     0       6.806  41.576  25.936  0.00  0.00    -0.358 OA
HETATM   43  H   UNK     0       6.246  42.341  26.141  0.00  0.00     0.217 HD
ENDBRANCH  37  42
ENDBRANCH  24  34
BRANCH  30  44
HETATM   44  O   UNK     0      13.054  44.030  17.630  0.00  0.00    -0.360 OA
HETATM   45  H   UNK     0      12.270  44.601  17.565  0.00  0.00     0.217 HD
ENDBRANCH  30  44
BRANCH  33  46
HETATM   46  O   UNK     0      16.242  43.488  21.105  0.00  0.00    -0.361 OA
HETATM   47  H   UNK     0      16.547  44.410  21.161  0.00  0.00     0.217 HD
ENDBRANCH  33  46
ENDBRANCH  22  23
ENDBRANCH   6  22
BRANCH   3  48
HETATM   48  O   UNK     0       4.909  47.076  21.285  0.00  0.00    -0.390 OA
HETATM   49  H   UNK     0       4.343  47.384  20.558  0.00  0.00     0.210 HD
ENDBRANCH   3  48
BRANCH   5  50
HETATM   50  O   UNK     0       8.002  45.095  18.201  0.00  0.00    -0.388 OA
HETATM   51  H   UNK     0       8.768  45.555  18.584  0.00  0.00     0.210 HD
ENDBRANCH   5  50
BRANCH   4  52
HETATM   52  O   UNK     0       5.310  46.244  18.546  0.00  0.00    -0.390 OA
HETATM   53  H   UNK     0       4.425  46.223  18.948  0.00  0.00     0.210 HD
ENDBRANCH   4  52
TORSDOF 16
ENDMDL
MODEL 5
REMARK VINA RESULT:    -7.765      4.551      7.987
REMARK INTER + INTRA:         -15.501
REMARK INTER:                 -13.324
REMARK INTRA:                  -2.177
REMARK UNBOUND:                -2.743
REMARK  16 active torsions:
REMARK  status: ('A' for Active; 'I' for Inactive)
REMARK    1  A    between atoms: O_2  and  C_22 
REMARK    2  A    between atoms: O_2  and  C_26 
REMARK    3  A    between atoms: O_4  and  C_18 
REMARK    4  A    between atoms: O_5  and  C_19 
REMARK    5  A    between atoms: O_6  and  C_25 
REMARK    6  A    between atoms: O_6  and  C_29 
REMARK    7  A    between atoms: O_7  and  C_20 
REMARK    8  A    between atoms: O_8  and  C_21 
REMARK    9  A    between atoms: O_9  and  C_23 
REMARK   10  A    between atoms: O_10  and  C_24 
REMARK   11  A    between atoms: O_13  and  C_35 
REMARK   12  A    between atoms: O_14  and  C_40 
REMARK   13  A    between atoms: O_15  and  C_41 
REMARK   14  A    between atoms: O_16  and  C_43 
REMARK   15  A    between atoms: C_17  and  C_26 
REMARK   16  A    between atoms: C_30  and  C_33 
ROOT
HETATM    1  O   UNK     0      10.192  43.454  23.369  0.00  0.00    -0.348 OA
HETATM    2  C   UNK     0       9.020  44.040  23.940  0.00  0.00     0.180 C 
HETATM    3  C   UNK     0       9.153  45.565  23.955  0.00  0.00     0.180 C 
HETATM    4  C   UNK     0      10.420  45.991  24.696  0.00  0.00     0.183 C 
HETATM    5  C   UNK     0      11.641  45.220  24.195  0.00  0.00     0.205 C 
HETATM    6  C   UNK     0      11.364  43.718  24.137  0.00  0.00     0.298 C 
ENDROOT
BRANCH   2   7
HETATM    7  C   UNK     0       7.826  43.584  23.106  0.00  0.00     0.205 C 
BRANCH   7   8
HETATM    8  O   UNK     0       7.862  44.244  21.849  0.00  0.00    -0.356 OA
BRANCH   8   9
HETATM    9  C   UNK     0       6.592  44.791  21.512  0.00  0.00     0.291 C 
HETATM   10  O   UNK     0       5.918  44.027  20.507  0.00  0.00    -0.351 OA
HETATM   11  C   UNK     0       6.583  44.008  19.240  0.00  0.00     0.152 C 
HETATM   12  C   UNK     0       6.745  45.429  18.681  0.00  0.00     0.178 C 
HETATM   13  C   UNK     0       5.756  43.120  18.314  0.00  0.00     0.042 C 
HETATM   14  C   UNK     0       7.450  46.320  19.704  0.00  0.00     0.183 C 
HETATM   15  C   UNK     0       6.757  46.243  21.066  0.00  0.00     0.204 C 
BRANCH  12  16
HETATM   16  O   UNK     0       7.535  45.406  17.494  0.00  0.00    -0.390 OA
HETATM   17  H   UNK     0       8.091  44.609  17.521  0.00  0.00     0.210 HD
ENDBRANCH  12  16
BRANCH  14  18
HETATM   18  O   UNK     0       7.449  47.666  19.234  0.00  0.00    -0.390 OA
HETATM   19  H   UNK     0       7.379  48.250  20.009  0.00  0.00     0.210 HD
ENDBRANCH  14  18
BRANCH  15  20
HETATM   20  O   UNK     0       5.455  46.823  20.984  0.00  0.00    -0.388 OA
HETATM   21  H   UNK     0       4.934  46.319  20.335  0.00  0.00     0.210 HD
ENDBRANCH  15  20
ENDBRANCH   8   9
ENDBRANCH   7   8
ENDBRANCH   2   7
BRANCH   6  22
HETATM   22  O   UNK     0      12.490  43.086  23.529  0.00  0.00    -0.311 OA
BRANCH  22  23
HETATM   23  C   UNK     0      12.222  41.774  23.206  0.00  0.00     0.157 A 
HETATM   24  C   UNK     0      12.117  41.336  21.939  0.00  0.00     0.124 A 
HETATM   25  O   UNK     0      11.817  40.031  21.580  0.00  0.00    -0.306 OA
HETATM   26  C   UNK     0      11.630  39.105  22.574  0.00  0.00     0.096 A 
HETATM   27  C   UNK     0      11.719  39.423  23.928  0.00  0.00     0.084 A 
HETATM   28  C   UNK     0      11.339  37.798  22.182  0.00  0.00     0.075 A 
HETATM   29  C   UNK     0      12.024  40.809  24.315  0.00  0.00     0.223 A 
HETATM   30  C   UNK     0      11.518  38.438  24.899  0.00  0.00     0.085 A 
HETATM   31  O   UNK     0      12.109  41.148  25.488  0.00  0.00    -0.284 OA
HETATM   32  C   UNK     0      11.227  37.132  24.503  0.00  0.00     0.074 A 
HETATM   33  C   UNK     0      11.138  36.812  23.148  0.00  0.00     0.071 A 
BRANCH  24  34
HETATM   34  C   UNK     0      12.292  42.225  20.777  0.00  0.00     0.004 A 
HETATM   35  C   UNK     0      11.187  42.867  20.217  0.00  0.00     0.053 A 
HETATM   36  C   UNK     0      11.352  43.710  19.119  0.00  0.00     0.099 A 
HETATM   37  C   UNK     0      12.622  43.910  18.577  0.00  0.00     0.098 A 
HETATM   38  C   UNK     0      13.726  43.267  19.136  0.00  0.00     0.040 A 
HETATM   39  C   UNK     0      13.562  42.425  20.235  0.00  0.00     0.017 A 
BRANCH  36  40
HETATM   40  O   UNK     0      10.265  44.331  18.580  0.00  0.00    -0.358 OA
HETATM   41  H   UNK     0      10.264  45.268  18.835  0.00  0.00     0.217 HD
ENDBRANCH  36  40
BRANCH  37  42
HETATM   42  O   UNK     0      12.796  44.731  17.504  0.00  0.00    -0.358 OA
HETATM   43  H   UNK     0      11.980  45.230  17.339  0.00  0.00     0.217 HD
ENDBRANCH  37  42
ENDBRANCH  24  34
BRANCH  30  44
HETATM   44  O   UNK     0      11.592  38.696  26.233  0.00  0.00    -0.360 OA
HETATM   45  H   UNK     0      11.816  39.633  26.371  0.00  0.00     0.217 HD
ENDBRANCH  30  44
BRANCH  33  46
HETATM   46  O   UNK     0      10.854  35.537  22.767  0.00  0.00    -0.361 OA
HETATM   47  H   UNK     0      11.678  35.096  22.500  0.00  0.00     0.217 HD
ENDBRANCH  33  46
ENDBRANCH  22  23
ENDBRANCH   6  22
BRANCH   3  48
HETATM   48  O   UNK     0       8.016  46.130  24.602  0.00  0.00    -0.390 OA
HETATM   49  H   UNK     0       8.031  47.090  24.451  0.00  0.00     0.210 HD
ENDBRANCH   3  48
BRANCH   5  50
HETATM   50  O   UNK     0      12.737  45.439  25.083  0.00  0.00    -0.388 OA
HETATM   51  H   UNK     0      12.746  46.380  25.324  0.00  0.00     0.210 HD
ENDBRANCH   5  50
BRANCH   4  52
HETATM   52  O   UNK     0      10.615  47.389  24.469  0.00  0.00    -0.390 OA
HETATM   53  H   UNK     0      11.211  47.480  23.706  0.00  0.00     0.210 HD
ENDBRANCH   4  52
TORSDOF 16
ENDMDL
MODEL 6
REMARK VINA RESULT:    -7.561     13.525     17.643
REMARK INTER + INTRA:         -15.166
REMARK INTER:                 -12.600
REMARK INTRA:                  -2.566
REMARK UNBOUND:                -2.743
REMARK  16 active torsions:
REMARK  status: ('A' for Active; 'I' for Inactive)
REMARK    1  A    between atoms: O_2  and  C_22 
REMARK    2  A    between atoms: O_2  and  C_26 
REMARK    3  A    between atoms: O_4  and  C_18 
REMARK    4  A    between atoms: O_5  and  C_19 
REMARK    5  A    between atoms: O_6  and  C_25 
REMARK    6  A    between atoms: O_6  and  C_29 
REMARK    7  A    between atoms: O_7  and  C_20 
REMARK    8  A    between atoms: O_8  and  C_21 
REMARK    9  A    between atoms: O_9  and  C_23 
REMARK   10  A    between atoms: O_10  and  C_24 
REMARK   11  A    between atoms: O_13  and  C_35 
REMARK   12  A    between atoms: O_14  and  C_40 
REMARK   13  A    between atoms: O_15  and  C_41 
REMARK   14  A    between atoms: O_16  and  C_43 
REMARK   15  A    between atoms: C_17  and  C_26 
REMARK   16  A    between atoms: C_30  and  C_33 
ROOT
HETATM    1  O   UNK     0      13.552  52.851  36.216  0.00  0.00    -0.348 OA
HETATM    2  C   UNK     0      12.979  52.454  34.968  0.00  0.00     0.180 C 
HETATM    3  C   UNK     0      12.858  53.666  34.041  0.00  0.00     0.180 C 
HETATM    4  C   UNK     0      12.052  54.781  34.707  0.00  0.00     0.183 C 
HETATM    5  C   UNK     0      12.566  55.069  36.117  0.00  0.00     0.205 C 
HETATM    6  C   UNK     0      12.732  53.780  36.922  0.00  0.00     0.298 C 
ENDROOT
BRANCH   2   7
HETATM    7  C   UNK     0      13.877  51.374  34.373  0.00  0.00     0.205 C 
BRANCH   7   8
HETATM    8  O   UNK     0      13.169  50.144  34.350  0.00  0.00    -0.356 OA
BRANCH   8   9
HETATM    9  C   UNK     0      13.541  49.308  35.440  0.00  0.00     0.291 C 
HETATM   10  O   UNK     0      14.714  48.538  35.162  0.00  0.00    -0.351 OA
HETATM   11  C   UNK     0      14.557  47.593  34.098  0.00  0.00     0.152 C 
HETATM   12  C   UNK     0      13.436  46.592  34.411  0.00  0.00     0.178 C 
HETATM   13  C   UNK     0      15.905  46.901  33.913  0.00  0.00     0.042 C 
HETATM   14  C   UNK     0      12.140  47.338  34.734  0.00  0.00     0.183 C 
HETATM   15  C   UNK     0      12.373  48.396  35.814  0.00  0.00     0.204 C 
BRANCH  12  16
HETATM   16  O   UNK     0      13.195  45.752  33.284  0.00  0.00    -0.390 OA
HETATM   17  H   UNK     0      12.436  46.116  32.798  0.00  0.00     0.210 HD
ENDBRANCH  12  16
BRANCH  14  18
HETATM   18  O   UNK     0      11.158  46.403  35.174  0.00  0.00    -0.390 OA
HETATM   19  H   UNK     0      10.628  46.833  35.868  0.00  0.00     0.210 HD
ENDBRANCH  14  18
BRANCH  15  20
HETATM   20  O   UNK     0      12.693  47.765  37.054  0.00  0.00    -0.388 OA
HETATM   21  H   UNK     0      11.922  47.247  37.343  0.00  0.00     0.210 HD
ENDBRANCH  15  20
ENDBRANCH   8   9
ENDBRANCH   7   8
ENDBRANCH   2   7
BRANCH   6  22
HETATM   22  O   UNK     0      13.347  54.114  38.166  0.00  0.00    -0.311 OA
BRANCH  22  23
HETATM   23  C   UNK     0      12.815  53.385  39.207  0.00  0.00     0.157 A 
HETATM   24  C   UNK     0      13.439  52.328  39.758  0.00  0.00     0.124 A 
HETATM   25  O   UNK     0      12.918  51.554  40.783  0.00  0.00    -0.306 OA
HETATM   26  C   UNK     0      11.691  51.886  41.295  0.00  0.00     0.096 A 
HETATM   27  C   UNK     0      10.942  52.961  40.822  0.00  0.00     0.084 A 
HETATM   28  C   UNK     0      11.197  51.094  42.332  0.00  0.00     0.075 A 
HETATM   29  C   UNK     0      11.483  53.779  39.726  0.00  0.00     0.223 A 
HETATM   30  C   UNK     0       9.694  53.253  41.382  0.00  0.00     0.085 A 
HETATM   31  O   UNK     0      10.868  54.732  39.266  0.00  0.00    -0.284 OA
HETATM   32  C   UNK     0       9.204  52.459  42.420  0.00  0.00     0.074 A 
HETATM   33  C   UNK     0       9.953  51.383  42.894  0.00  0.00     0.071 A 
BRANCH  24  34
HETATM   34  C   UNK     0      14.761  51.862  39.301  0.00  0.00     0.004 A 
HETATM   35  C   UNK     0      14.884  50.624  38.670  0.00  0.00     0.053 A 
HETATM   36  C   UNK     0      16.134  50.184  38.236  0.00  0.00     0.099 A 
HETATM   37  C   UNK     0      17.262  50.980  38.434  0.00  0.00     0.098 A 
HETATM   38  C   UNK     0      17.139  52.218  39.066  0.00  0.00     0.040 A 
HETATM   39  C   UNK     0      15.889  52.659  39.498  0.00  0.00     0.017 A 
BRANCH  36  40
HETATM   40  O   UNK     0      16.243  48.972  37.623  0.00  0.00    -0.358 OA
HETATM   41  H   UNK     0      15.823  48.289  38.172  0.00  0.00     0.217 HD
ENDBRANCH  36  40
BRANCH  37  42
HETATM   42  O   UNK     0      18.488  50.561  38.015  0.00  0.00    -0.358 OA
HETATM   43  H   UNK     0      18.408  49.697  37.580  0.00  0.00     0.217 HD
ENDBRANCH  37  42
ENDBRANCH  24  34
BRANCH  30  44
HETATM   44  O   UNK     0       8.923  54.291  40.956  0.00  0.00    -0.360 OA
HETATM   45  H   UNK     0       9.458  54.890  40.408  0.00  0.00     0.217 HD
ENDBRANCH  30  44
BRANCH  33  46
HETATM   46  O   UNK     0       9.470  50.611  43.906  0.00  0.00    -0.361 OA
HETATM   47  H   UNK     0       9.857  50.913  44.745  0.00  0.00     0.217 HD
ENDBRANCH  33  46
ENDBRANCH  22  23
ENDBRANCH   6  22
BRANCH   3  48
HETATM   48  O   UNK     0      12.210  53.272  32.834  0.00  0.00    -0.390 OA
HETATM   49  H   UNK     0      12.895  53.014  32.195  0.00  0.00     0.210 HD
ENDBRANCH   3  48
BRANCH   5  50
HETATM   50  O   UNK     0      11.633  55.906  36.800  0.00  0.00    -0.388 OA
HETATM   51  H   UNK     0      11.203  55.376  37.493  0.00  0.00     0.210 HD
ENDBRANCH   5  50
BRANCH   4  52
HETATM   52  O   UNK     0      12.179  55.957  33.905  0.00  0.00    -0.390 OA
HETATM   53  H   UNK     0      11.436  56.543  34.128  0.00  0.00     0.210 HD
ENDBRANCH   4  52
TORSDOF 16
ENDMDL
MODEL 7
REMARK VINA RESULT:    -7.356      1.879      2.749
REMARK INTER + INTRA:         -14.829
REMARK INTER:                 -12.867
REMARK INTRA:                  -1.961
REMARK UNBOUND:                -2.743
REMARK  16 active torsions:
REMARK  status: ('A' for Active; 'I' for Inactive)
REMARK    1  A    between atoms: O_2  and  C_22 
REMARK    2  A    between atoms: O_2  and  C_26 
REMARK    3  A    between atoms: O_4  and  C_18 
REMARK    4  A    between atoms: O_5  and  C_19 
REMARK    5  A    between atoms: O_6  and  C_25 
REMARK    6  A    between atoms: O_6  and  C_29 
REMARK    7  A    between atoms: O_7  and  C_20 
REMARK    8  A    between atoms: O_8  and  C_21 
REMARK    9  A    between atoms: O_9  and  C_23 
REMARK   10  A    between atoms: O_10  and  C_24 
REMARK   11  A    between atoms: O_13  and  C_35 
REMARK   12  A    between atoms: O_14  and  C_40 
REMARK   13  A    between atoms: O_15  and  C_41 
REMARK   14  A    between atoms: O_16  and  C_43 
REMARK   15  A    between atoms: C_17  and  C_26 
REMARK   16  A    between atoms: C_30  and  C_33 
ROOT
HETATM    1  O   UNK     0       8.365  44.003  25.687  0.00  0.00    -0.348 OA
HETATM    2  C   UNK     0       9.585  43.365  26.070  0.00  0.00     0.180 C 
HETATM    3  C   UNK     0      10.718  44.393  26.124  0.00  0.00     0.180 C 
HETATM    4  C   UNK     0      10.854  45.122  24.787  0.00  0.00     0.183 C 
HETATM    5  C   UNK     0       9.501  45.643  24.301  0.00  0.00     0.205 C 
HETATM    6  C   UNK     0       8.428  44.557  24.374  0.00  0.00     0.298 C 
ENDROOT
BRANCH   2   7
HETATM    7  C   UNK     0       9.352  42.708  27.427  0.00  0.00     0.205 C 
BRANCH   7   8
HETATM    8  O   UNK     0       8.965  41.357  27.226  0.00  0.00    -0.356 OA
BRANCH   8   9
HETATM    9  C   UNK     0       8.095  41.226  26.107  0.00  0.00     0.291 C 
HETATM   10  O   UNK     0       6.739  40.987  26.495  0.00  0.00    -0.351 OA
HETATM   11  C   UNK     0       6.534  39.748  27.182  0.00  0.00     0.152 C 
HETATM   12  C   UNK     0       6.960  38.558  26.310  0.00  0.00     0.178 C 
HETATM   13  C   UNK     0       5.055  39.682  27.554  0.00  0.00     0.042 C 
HETATM   14  C   UNK     0       8.403  38.741  25.840  0.00  0.00     0.183 C 
HETATM   15  C   UNK     0       8.598  40.112  25.190  0.00  0.00     0.204 C 
BRANCH  12  16
HETATM   16  O   UNK     0       6.888  37.347  27.059  0.00  0.00    -0.390 OA
HETATM   17  H   UNK     0       6.663  37.576  27.976  0.00  0.00     0.210 HD
ENDBRANCH  12  16
BRANCH  14  18
HETATM   18  O   UNK     0       8.728  37.711  24.908  0.00  0.00    -0.390 OA
HETATM   19  H   UNK     0       7.916  37.485  24.421  0.00  0.00     0.210 HD
ENDBRANCH  14  18
BRANCH  15  20
HETATM   20  O   UNK     0       7.856  40.183  23.971  0.00  0.00    -0.388 OA
HETATM   21  H   UNK     0       7.510  39.297  23.771  0.00  0.00     0.210 HD
ENDBRANCH  15  20
ENDBRANCH   8   9
ENDBRANCH   7   8
ENDBRANCH   2   7
BRANCH   6  22
HETATM   22  O   UNK     0       7.175  45.155  24.044  0.00  0.00    -0.311 OA
BRANCH  22  23
HETATM   23  C   UNK     0       6.270  44.219  23.592  0.00  0.00     0.157 A 
HETATM   24  C   UNK     0       6.227  43.796  22.316  0.00  0.00     0.124 A 
HETATM   25  O   UNK     0       5.310  42.881  21.822  0.00  0.00    -0.306 OA
HETATM   26  C   UNK     0       4.389  42.346  22.686  0.00  0.00     0.096 A 
HETATM   27  C   UNK     0       4.329  42.691  24.034  0.00  0.00     0.084 A 
HETATM   28  C   UNK     0       3.486  41.421  22.161  0.00  0.00     0.075 A 
HETATM   29  C   UNK     0       5.291  43.671  24.561  0.00  0.00     0.223 A 
HETATM   30  C   UNK     0       3.367  42.114  24.868  0.00  0.00     0.085 A 
HETATM   31  O   UNK     0       5.283  44.017  25.735  0.00  0.00    -0.284 OA
HETATM   32  C   UNK     0       2.465  41.189  24.341  0.00  0.00     0.074 A 
HETATM   33  C   UNK     0       2.525  40.842  22.991  0.00  0.00     0.071 A 
BRANCH  24  34
HETATM   34  C   UNK     0       7.156  44.291  21.285  0.00  0.00     0.004 A 
HETATM   35  C   UNK     0       7.030  45.592  20.799  0.00  0.00     0.053 A 
HETATM   36  C   UNK     0       7.910  46.062  19.824  0.00  0.00     0.099 A 
HETATM   37  C   UNK     0       8.916  45.229  19.334  0.00  0.00     0.098 A 
HETATM   38  C   UNK     0       9.042  43.928  19.820  0.00  0.00     0.040 A 
HETATM   39  C   UNK     0       8.163  43.459  20.795  0.00  0.00     0.017 A 
BRANCH  36  40
HETATM   40  O   UNK     0       7.776  47.334  19.356  0.00  0.00    -0.358 OA
HETATM   41  H   UNK     0       7.691  47.950  20.102  0.00  0.00     0.217 HD
ENDBRANCH  36  40
BRANCH  37  42
HETATM   42  O   UNK     0       9.782  45.677  18.383  0.00  0.00    -0.358 OA
HETATM   43  H   UNK     0      10.585  46.021  18.806  0.00  0.00     0.217 HD
ENDBRANCH  37  42
ENDBRANCH  24  34
BRANCH  30  44
HETATM   44  O   UNK     0       3.266  42.417  26.191  0.00  0.00    -0.360 OA
HETATM   45  H   UNK     0       2.404  42.116  26.529  0.00  0.00     0.217 HD
ENDBRANCH  30  44
BRANCH  33  46
HETATM   46  O   UNK     0       1.643  39.940  22.481  0.00  0.00    -0.361 OA
HETATM   47  H   UNK     0       1.373  40.229  21.592  0.00  0.00     0.217 HD
ENDBRANCH  33  46
ENDBRANCH  22  23
ENDBRANCH   6  22
BRANCH   3  48
HETATM   48  O   UNK     0      11.942  43.730  26.426  0.00  0.00    -0.390 OA
HETATM   49  H   UNK     0      12.343  44.172  27.193  0.00  0.00     0.210 HD
ENDBRANCH   3  48
BRANCH   5  50
HETATM   50  O   UNK     0       9.617  46.067  22.943  0.00  0.00    -0.388 OA
HETATM   51  H   UNK     0       9.239  46.959  22.872  0.00  0.00     0.210 HD
ENDBRANCH   5  50
BRANCH   4  52
HETATM   52  O   UNK     0      11.748  46.221  24.972  0.00  0.00    -0.390 OA
HETATM   53  H   UNK     0      12.111  46.451  24.100  0.00  0.00     0.210 HD
ENDBRANCH   4  52
TORSDOF 16
ENDMDL
MODEL 8
REMARK VINA RESULT:    -7.303      4.841      8.282
REMARK INTER + INTRA:         -14.742
REMARK INTER:                 -11.999
REMARK INTRA:                  -2.743
REMARK UNBOUND:                -2.743
REMARK  16 active torsions:
REMARK  status: ('A' for Active; 'I' for Inactive)
REMARK    1  A    between atoms: O_2  and  C_22 
REMARK    2  A    between atoms: O_2  and  C_26 
REMARK    3  A    between atoms: O_4  and  C_18 
REMARK    4  A    between atoms: O_5  and  C_19 
REMARK    5  A    between atoms: O_6  and  C_25 
REMARK    6  A    between atoms: O_6  and  C_29 
REMARK    7  A    between atoms: O_7  and  C_20 
REMARK    8  A    between atoms: O_8  and  C_21 
REMARK    9  A    between atoms: O_9  and  C_23 
REMARK   10  A    between atoms: O_10  and  C_24 
REMARK   11  A    between atoms: O_13  and  C_35 
REMARK   12  A    between atoms: O_14  and  C_40 
REMARK   13  A    between atoms: O_15  and  C_41 
REMARK   14  A    between atoms: O_16  and  C_43 
REMARK   15  A    between atoms: C_17  and  C_26 
REMARK   16  A    between atoms: C_30  and  C_33 
ROOT
HETATM    1  O   UNK     0      11.437  42.840  24.055  0.00  0.00    -0.348 OA
HETATM    2  C   UNK     0      10.442  43.852  23.889  0.00  0.00     0.180 C 
HETATM    3  C   UNK     0      10.031  44.409  25.254  0.00  0.00     0.180 C 
HETATM    4  C   UNK     0       9.552  43.288  26.176  0.00  0.00     0.183 C 
HETATM    5  C   UNK     0      10.548  42.128  26.201  0.00  0.00     0.205 C 
HETATM    6  C   UNK     0      10.955  41.715  24.787  0.00  0.00     0.298 C 
ENDROOT
BRANCH   2   7
HETATM    7  C   UNK     0      11.033  44.934  22.992  0.00  0.00     0.205 C 
BRANCH   7   8
HETATM    8  O   UNK     0       9.998  45.490  22.194  0.00  0.00    -0.356 OA
BRANCH   8   9
HETATM    9  C   UNK     0       9.148  44.478  21.665  0.00  0.00     0.291 C 
HETATM   10  O   UNK     0       9.467  44.153  20.308  0.00  0.00    -0.351 OA
HETATM   11  C   UNK     0       9.266  45.228  19.384  0.00  0.00     0.152 C 
HETATM   12  C   UNK     0       7.805  45.698  19.394  0.00  0.00     0.178 C 
HETATM   13  C   UNK     0       9.694  44.720  18.009  0.00  0.00     0.042 C 
HETATM   14  C   UNK     0       7.378  46.056  20.818  0.00  0.00     0.183 C 
HETATM   15  C   UNK     0       7.689  44.914  21.787  0.00  0.00     0.204 C 
BRANCH  12  16
HETATM   16  O   UNK     0       7.654  46.859  18.581  0.00  0.00    -0.390 OA
HETATM   17  H   UNK     0       7.413  46.566  17.685  0.00  0.00     0.210 HD
ENDBRANCH  12  16
BRANCH  14  18
HETATM   18  O   UNK     0       5.980  46.337  20.832  0.00  0.00    -0.390 OA
HETATM   19  H   UNK     0       5.748  46.642  21.727  0.00  0.00     0.210 HD
ENDBRANCH  14  18
BRANCH  15  20
HETATM   20  O   UNK     0       6.871  43.782  21.485  0.00  0.00    -0.388 OA
HETATM   21  H   UNK     0       7.427  43.106  21.061  0.00  0.00     0.210 HD
ENDBRANCH  15  20
ENDBRANCH   8   9
ENDBRANCH   7   8
ENDBRANCH   2   7
BRANCH   6  22
HETATM   22  O   UNK     0      11.986  40.733  24.894  0.00  0.00    -0.311 OA
BRANCH  22  23
HETATM   23  C   UNK     0      11.719  39.630  24.114  0.00  0.00     0.157 A 
HETATM   24  C   UNK     0      12.111  39.526  22.831  0.00  0.00     0.124 A 
HETATM   25  O   UNK     0      11.831  38.445  22.009  0.00  0.00    -0.306 OA
HETATM   26  C   UNK     0      11.124  37.392  22.530  0.00  0.00     0.096 A 
HETATM   27  C   UNK     0      10.666  37.368  23.845  0.00  0.00     0.084 A 
HETATM   28  C   UNK     0      10.867  36.315  21.681  0.00  0.00     0.075 A 
HETATM   29  C   UNK     0      10.948  38.517  24.719  0.00  0.00     0.223 A 
HETATM   30  C   UNK     0       9.949  36.267  24.323  0.00  0.00     0.085 A 
HETATM   31  O   UNK     0      10.567  38.554  25.881  0.00  0.00    -0.284 OA
HETATM   32  C   UNK     0       9.693  35.191  23.471  0.00  0.00     0.074 A 
HETATM   33  C   UNK     0      10.152  35.215  22.154  0.00  0.00     0.071 A 
BRANCH  24  34
HETATM   34  C   UNK     0      12.874  40.585  22.147  0.00  0.00     0.004 A 
HETATM   35  C   UNK     0      12.217  41.496  21.320  0.00  0.00     0.053 A 
HETATM   36  C   UNK     0      12.938  42.499  20.674  0.00  0.00     0.099 A 
HETATM   37  C   UNK     0      14.318  42.592  20.854  0.00  0.00     0.098 A 
HETATM   38  C   UNK     0      14.976  41.680  21.680  0.00  0.00     0.040 A 
HETATM   39  C   UNK     0      14.254  40.678  22.327  0.00  0.00     0.017 A 
BRANCH  36  40
HETATM   40  O   UNK     0      12.285  43.383  19.868  0.00  0.00    -0.358 OA
HETATM   41  H   UNK     0      11.328  43.311  20.013  0.00  0.00     0.217 HD
ENDBRANCH  36  40
BRANCH  37  42
HETATM   42  O   UNK     0      15.034  43.567  20.228  0.00  0.00    -0.358 OA
HETATM   43  H   UNK     0      15.679  43.947  20.846  0.00  0.00     0.217 HD
ENDBRANCH  37  42
ENDBRANCH  24  34
BRANCH  30  44
HETATM   44  O   UNK     0       9.479  36.194  25.598  0.00  0.00    -0.360 OA
HETATM   45  H   UNK     0       9.382  37.091  25.961  0.00  0.00     0.217 HD
ENDBRANCH  30  44
BRANCH  33  46
HETATM   46  O   UNK     0       9.900  34.163  21.327  0.00  0.00    -0.361 OA
HETATM   47  H   UNK     0       9.828  34.489  20.414  0.00  0.00     0.217 HD
ENDBRANCH  33  46
ENDBRANCH  22  23
ENDBRANCH   6  22
BRANCH   3  48
HETATM   48  O   UNK     0       8.980  45.356  25.080  0.00  0.00    -0.390 OA
HETATM   49  H   UNK     0       9.114  45.800  24.226  0.00  0.00     0.210 HD
ENDBRANCH   3  48
BRANCH   5  50
HETATM   50  O   UNK     0       9.949  41.002  26.842  0.00  0.00    -0.388 OA
HETATM   51  H   UNK     0       9.574  40.428  26.153  0.00  0.00     0.210 HD
ENDBRANCH   5  50
BRANCH   4  52
HETATM   52  O   UNK     0       9.417  43.826  27.493  0.00  0.00    -0.390 OA
HETATM   53  H   UNK     0      10.300  43.823  27.901  0.00  0.00     0.210 HD
ENDBRANCH   4  52
TORSDOF 16
ENDMDL
MODEL 9
REMARK VINA RESULT:    -7.273      2.476      6.890
REMARK INTER + INTRA:         -14.693
REMARK INTER:                 -13.209
REMARK INTRA:                  -1.484
REMARK UNBOUND:                -2.743
REMARK  16 active torsions:
REMARK  status: ('A' for Active; 'I' for Inactive)
REMARK    1  A    between atoms: O_2  and  C_22 
REMARK    2  A    between atoms: O_2  and  C_26 
REMARK    3  A    between atoms: O_4  and  C_18 
REMARK    4  A    between atoms: O_5  and  C_19 
REMARK    5  A    between atoms: O_6  and  C_25 
REMARK    6  A    between atoms: O_6  and  C_29 
REMARK    7  A    between atoms: O_7  and  C_20 
REMARK    8  A    between atoms: O_8  and  C_21 
REMARK    9  A    between atoms: O_9  and  C_23 
REMARK   10  A    between atoms: O_10  and  C_24 
REMARK   11  A    between atoms: O_13  and  C_35 
REMARK   12  A    between atoms: O_14  and  C_40 
REMARK   13  A    between atoms: O_15  and  C_41 
REMARK   14  A    between atoms: O_16  and  C_43 
REMARK   15  A    between atoms: C_17  and  C_26 
REMARK   16  A    between atoms: C_30  and  C_33 
ROOT
HETATM    1  O   UNK     0       8.334  42.668  23.039  0.00  0.00    -0.348 OA
HETATM    2  C   UNK     0       9.597  43.336  23.061  0.00  0.00     0.180 C 
HETATM    3  C   UNK     0      10.678  42.426  22.474  0.00  0.00     0.180 C 
HETATM    4  C   UNK     0      10.729  41.093  23.220  0.00  0.00     0.183 C 
HETATM    5  C   UNK     0       9.336  40.477  23.347  0.00  0.00     0.205 C 
HETATM    6  C   UNK     0       8.320  41.500  23.856  0.00  0.00     0.298 C 
ENDROOT
BRANCH   2   7
HETATM    7  C   UNK     0       9.447  44.626  22.259  0.00  0.00     0.205 C 
BRANCH   7   8
HETATM    8  O   UNK     0       8.240  44.570  21.514  0.00  0.00    -0.356 OA
BRANCH   8   9
HETATM    9  C   UNK     0       7.790  45.872  21.152  0.00  0.00     0.291 C 
HETATM   10  O   UNK     0       6.421  46.094  21.504  0.00  0.00    -0.351 OA
HETATM   11  C   UNK     0       5.494  45.252  20.811  0.00  0.00     0.152 C 
HETATM   12  C   UNK     0       5.598  45.450  19.292  0.00  0.00     0.178 C 
HETATM   13  C   UNK     0       4.102  45.593  21.338  0.00  0.00     0.042 C 
HETATM   14  C   UNK     0       7.041  45.242  18.832  0.00  0.00     0.183 C 
HETATM   15  C   UNK     0       8.007  46.095  19.656  0.00  0.00     0.204 C 
BRANCH  12  16
HETATM   16  O   UNK     0       4.775  44.504  18.613  0.00  0.00    -0.390 OA
HETATM   17  H   UNK     0       4.540  44.880  17.747  0.00  0.00     0.210 HD
ENDBRANCH  12  16
BRANCH  14  18
HETATM   18  O   UNK     0       7.148  45.583  17.452  0.00  0.00    -0.390 OA
HETATM   19  H   UNK     0       6.258  45.523  17.062  0.00  0.00     0.210 HD
ENDBRANCH  14  18
BRANCH  15  20
HETATM   20  O   UNK     0       7.785  47.480  19.387  0.00  0.00    -0.388 OA
HETATM   21  H   UNK     0       7.360  47.880  20.165  0.00  0.00     0.210 HD
ENDBRANCH  15  20
ENDBRANCH   8   9
ENDBRANCH   7   8
ENDBRANCH   2   7
BRANCH   6  22
HETATM   22  O   UNK     0       7.028  40.896  23.812  0.00  0.00    -0.311 OA
BRANCH  22  23
HETATM   23  C   UNK     0       6.235  41.317  24.858  0.00  0.00     0.157 A 
HETATM   24  C   UNK     0       4.998  41.816  24.688  0.00  0.00     0.124 A 
HETATM   25  O   UNK     0       4.188  42.278  25.714  0.00  0.00    -0.306 OA
HETATM   26  C   UNK     0       4.659  42.209  27.000  0.00  0.00     0.096 A 
HETATM   27  C   UNK     0       5.919  41.705  27.317  0.00  0.00     0.084 A 
HETATM   28  C   UNK     0       3.817  42.672  28.012  0.00  0.00     0.075 A 
HETATM   29  C   UNK     0       6.788  41.226  26.231  0.00  0.00     0.223 A 
HETATM   30  C   UNK     0       6.347  41.660  28.647  0.00  0.00     0.085 A 
HETATM   31  O   UNK     0       7.906  40.779  26.448  0.00  0.00    -0.284 OA
HETATM   32  C   UNK     0       5.502  42.124  29.657  0.00  0.00     0.074 A 
HETATM   33  C   UNK     0       4.241  42.628  29.341  0.00  0.00     0.071 A 
BRANCH  24  34
HETATM   34  C   UNK     0       4.373  41.949  23.360  0.00  0.00     0.004 A 
HETATM   35  C   UNK     0       3.009  42.222  23.255  0.00  0.00     0.053 A 
HETATM   36  C   UNK     0       2.417  42.349  21.998  0.00  0.00     0.099 A 
HETATM   37  C   UNK     0       3.189  42.202  20.846  0.00  0.00     0.098 A 
HETATM   38  C   UNK     0       4.553  41.928  20.950  0.00  0.00     0.040 A 
HETATM   39  C   UNK     0       5.145  41.802  22.207  0.00  0.00     0.017 A 
BRANCH  36  40
HETATM   40  O   UNK     0       1.084  42.614  21.908  0.00  0.00    -0.358 OA
HETATM   41  H   UNK     0       0.938  43.573  21.952  0.00  0.00     0.217 HD
ENDBRANCH  36  40
BRANCH  37  42
HETATM   42  O   UNK     0       2.623  42.324  19.613  0.00  0.00    -0.358 OA
HETATM   43  H   UNK     0       1.671  42.142  19.670  0.00  0.00     0.217 HD
ENDBRANCH  37  42
ENDBRANCH  24  34
BRANCH  30  44
HETATM   44  O   UNK     0       7.567  41.179  29.010  0.00  0.00    -0.360 OA
HETATM   45  H   UNK     0       7.483  40.246  29.274  0.00  0.00     0.217 HD
ENDBRANCH  30  44
BRANCH  33  46
HETATM   46  O   UNK     0       3.421  43.079  30.329  0.00  0.00    -0.361 OA
HETATM   47  H   UNK     0       2.510  43.116  29.992  0.00  0.00     0.217 HD
ENDBRANCH  33  46
ENDBRANCH  22  23
ENDBRANCH   6  22
BRANCH   3  48
HETATM   48  O   UNK     0      11.944  43.072  22.578  0.00  0.00    -0.390 OA
HETATM   49  H   UNK     0      11.789  44.029  22.646  0.00  0.00     0.210 HD
ENDBRANCH   3  48
BRANCH   5  50
HETATM   50  O   UNK     0       9.380  39.391  24.273  0.00  0.00    -0.388 OA
HETATM   51  H   UNK     0       8.514  38.950  24.262  0.00  0.00     0.210 HD
ENDBRANCH   5  50
BRANCH   4  52
HETATM   52  O   UNK     0      11.575  40.207  22.484  0.00  0.00    -0.390 OA
HETATM   53  H   UNK     0      11.740  39.430  23.044  0.00  0.00     0.210 HD
ENDBRANCH   4  52
TORSDOF 16
ENDMDL
