MODEL 1
REMARK VINA RESULT:      -8.5      0.000      0.000
REMARK  16 active torsions:
REMARK  status: ('A' for Active; 'I' for Inactive)
REMARK    1  A    between atoms: O_2  and  C_22 
REMARK    2  A    between atoms: O_2  and  C_26 
REMARK    3  A    between atoms: O_4  and  C_18 
REMARK    4  A    between atoms: O_5  and  C_19 
REMARK    5  A    between atoms: O_6  and  C_25 
REMARK    6  A    between atoms: O_6  and  C_29 
REMARK    7  A    between atoms: O_7  and  C_20 
REMARK    8  A    between atoms: O_8  and  C_21 
REMARK    9  A    between atoms: O_9  and  C_23 
REMARK   10  A    between atoms: O_10  and  C_24 
REMARK   11  A    between atoms: O_13  and  C_35 
REMARK   12  A    between atoms: O_14  and  C_40 
REMARK   13  A    between atoms: O_15  and  C_41 
REMARK   14  A    between atoms: O_16  and  C_43 
REMARK   15  A    between atoms: C_17  and  C_26 
REMARK   16  A    between atoms: C_30  and  C_33 
ROOT
HETATM    1  O   UNK     0       6.963  43.520  25.374  0.00  0.00    -0.348 OA
HETATM    2  C   UNK     0       8.285  43.081  25.694  0.00  0.00     0.180 C 
HETATM    3  C   UNK     0       9.244  44.274  25.704  0.00  0.00     0.180 C 
HETATM    4  C   UNK     0       9.200  45.016  24.368  0.00  0.00     0.183 C 
HETATM    5  C   UNK     0       7.762  45.319  23.949  0.00  0.00     0.205 C 
HETATM    6  C   UNK     0       6.876  44.079  24.064  0.00  0.00     0.298 C 
ENDROOT
BRANCH   2   7
HETATM    7  C   UNK     0       8.222  42.394  27.055  0.00  0.00     0.205 C 
BRANCH   7   8
HETATM    8  O   UNK     0       6.866  42.121  27.373  0.00  0.00    -0.356 OA
BRANCH   8   9
HETATM    9  C   UNK     0       6.731  41.638  28.706  0.00  0.00     0.291 C 
HETATM   10  O   UNK     0       6.128  40.342  28.758  0.00  0.00    -0.351 OA
HETATM   11  C   UNK     0       4.777  40.304  28.286  0.00  0.00     0.152 C 
HETATM   12  C   UNK     0       3.880  41.242  29.106  0.00  0.00     0.178 C 
HETATM   13  C   UNK     0       4.315  38.851  28.373  0.00  0.00     0.042 C 
HETATM   14  C   UNK     0       4.463  42.655  29.112  0.00  0.00     0.183 C 
HETATM   15  C   UNK     0       5.932  42.640  29.539  0.00  0.00     0.204 C 
BRANCH  12  16
HETATM   16  O   UNK     0       2.575  41.303  28.534  0.00  0.00    -0.390 OA
HETATM   17  H   UNK     0       2.624  40.924  27.640  0.00  0.00     0.210 HD
ENDBRANCH  12  16
BRANCH  14  18
HETATM   18  O   UNK     0       3.707  43.472  30.003  0.00  0.00    -0.390 OA
HETATM   19  H   UNK     0       2.764  43.311  29.825  0.00  0.00     0.210 HD
ENDBRANCH  14  18
BRANCH  15  20
HETATM   20  O   UNK     0       6.037  42.248  30.908  0.00  0.00    -0.388 OA
HETATM   21  H   UNK     0       6.756  41.598  30.987  0.00  0.00     0.210 HD
ENDBRANCH  15  20
ENDBRANCH   8   9
ENDBRANCH   7   8
ENDBRANCH   2   7
BRANCH   6  22
HETATM   22  O   UNK     0       5.530  44.472  23.798  0.00  0.00    -0.311 OA
BRANCH  22  23
HETATM   23  C   UNK     0       4.783  43.425  23.307  0.00  0.00     0.157 A 
HETATM   24  C   UNK     0       4.726  43.111  22.000  0.00  0.00     0.124 A 
HETATM   25  O   UNK     0       3.959  42.085  21.470  0.00  0.00    -0.306 OA
HETATM   26  C   UNK     0       3.217  41.313  22.327  0.00  0.00     0.096 A 
HETATM   27  C   UNK     0       3.193  41.524  23.704  0.00  0.00     0.084 A 
HETATM   28  C   UNK     0       2.464  40.282  21.765  0.00  0.00     0.075 A 
HETATM   29  C   UNK     0       3.994  42.620  24.271  0.00  0.00     0.223 A 
HETATM   30  C   UNK     0       2.416  40.706  24.529  0.00  0.00     0.085 A 
HETATM   31  O   UNK     0       4.007  42.856  25.471  0.00  0.00    -0.284 OA
HETATM   32  C   UNK     0       1.663  39.675  23.964  0.00  0.00     0.074 A 
HETATM   33  C   UNK     0       1.687  39.463  22.586  0.00  0.00     0.071 A 
BRANCH  24  34
HETATM   34  C   UNK     0       5.471  43.860  20.973  0.00  0.00     0.004 A 
HETATM   35  C   UNK     0       5.042  45.129  20.584  0.00  0.00     0.053 A 
HETATM   36  C   UNK     0       5.748  45.839  19.614  0.00  0.00     0.099 A 
HETATM   37  C   UNK     0       6.884  45.279  19.029  0.00  0.00     0.098 A 
HETATM   38  C   UNK     0       7.313  44.010  19.417  0.00  0.00     0.040 A 
HETATM   39  C   UNK     0       6.608  43.301  20.388  0.00  0.00     0.017 A 
BRANCH  36  40
HETATM   40  O   UNK     0       5.317  47.077  19.241  0.00  0.00    -0.358 OA
HETATM   41  H   UNK     0       4.712  46.999  18.486  0.00  0.00     0.217 HD
ENDBRANCH  36  40
BRANCH  37  42
HETATM   42  O   UNK     0       7.582  45.962  18.080  0.00  0.00    -0.358 OA
HETATM   43  H   UNK     0       7.426  46.915  18.181  0.00  0.00     0.217 HD
ENDBRANCH  37  42
ENDBRANCH  24  34
BRANCH  30  44
HETATM   44  O   UNK     0       2.356  40.870  25.879  0.00  0.00    -0.360 OA
HETATM   45  H   UNK     0       3.237  41.109  26.217  0.00  0.00     0.217 HD
ENDBRANCH  30  44
BRANCH  33  46
HETATM   46  O   UNK     0       0.952  38.457  22.039  0.00  0.00    -0.361 OA
HETATM   47  H   UNK     0       0.820  37.763  22.708  0.00  0.00     0.217 HD
ENDBRANCH  33  46
ENDBRANCH  22  23
ENDBRANCH   6  22
BRANCH   3  48
HETATM   48  O   UNK     0      10.570  43.810  25.942  0.00  0.00    -0.390 OA
HETATM   49  H   UNK     0      11.057  44.515  26.402  0.00  0.00     0.210 HD
ENDBRANCH   3  48
BRANCH   5  50
HETATM   50  O   UNK     0       7.745  45.757  22.591  0.00  0.00    -0.388 OA
HETATM   51  H   UNK     0       7.505  44.999  22.033  0.00  0.00     0.210 HD
ENDBRANCH   5  50
BRANCH   4  52
HETATM   52  O   UNK     0       9.920  46.241  24.520  0.00  0.00    -0.390 OA
HETATM   53  H   UNK     0      10.212  46.519  23.635  0.00  0.00     0.210 HD
ENDBRANCH   4  52
TORSDOF 16
ENDMDL
MODEL 2
REMARK VINA RESULT:      -8.4      2.207      3.013
REMARK  16 active torsions:
REMARK  status: ('A' for Active; 'I' for Inactive)
REMARK    1  A    between atoms: O_2  and  C_22 
REMARK    2  A    between atoms: O_2  and  C_26 
REMARK    3  A    between atoms: O_4  and  C_18 
REMARK    4  A    between atoms: O_5  and  C_19 
REMARK    5  A    between atoms: O_6  and  C_25 
REMARK    6  A    between atoms: O_6  and  C_29 
REMARK    7  A    between atoms: O_7  and  C_20 
REMARK    8  A    between atoms: O_8  and  C_21 
REMARK    9  A    between atoms: O_9  and  C_23 
REMARK   10  A    between atoms: O_10  and  C_24 
REMARK   11  A    between atoms: O_13  and  C_35 
REMARK   12  A    between atoms: O_14  and  C_40 
REMARK   13  A    between atoms: O_15  and  C_41 
REMARK   14  A    between atoms: O_16  and  C_43 
REMARK   15  A    between atoms: C_17  and  C_26 
REMARK   16  A    between atoms: C_30  and  C_33 
ROOT
HETATM    1  O   UNK     0       7.777  43.823  25.795  0.00  0.00    -0.348 OA
HETATM    2  C   UNK     0       9.079  43.241  25.880  0.00  0.00     0.180 C 
HETATM    3  C   UNK     0      10.147  44.333  25.781  0.00  0.00     0.180 C 
HETATM    4  C   UNK     0       9.972  45.148  24.500  0.00  0.00     0.183 C 
HETATM    5  C   UNK     0       8.525  45.612  24.331  0.00  0.00     0.205 C 
HETATM    6  C   UNK     0       7.544  44.458  24.540  0.00  0.00     0.298 C 
ENDROOT
BRANCH   2   7
HETATM    7  C   UNK     0       9.160  42.490  27.206  0.00  0.00     0.205 C 
BRANCH   7   8
HETATM    8  O   UNK     0       9.781  43.323  28.172  0.00  0.00    -0.356 OA
BRANCH   8   9
HETATM    9  C   UNK     0      10.402  42.557  29.199  0.00  0.00     0.291 C 
HETATM   10  O   UNK     0       9.464  41.760  29.928  0.00  0.00    -0.351 OA
HETATM   11  C   UNK     0       8.497  42.517  30.662  0.00  0.00     0.152 C 
HETATM   12  C   UNK     0       9.178  43.440  31.682  0.00  0.00     0.178 C 
HETATM   13  C   UNK     0       7.562  41.514  31.335  0.00  0.00     0.042 C 
HETATM   14  C   UNK     0      10.211  44.324  30.982  0.00  0.00     0.183 C 
HETATM   15  C   UNK     0      11.172  43.482  30.140  0.00  0.00     0.204 C 
BRANCH  12  16
HETATM   16  O   UNK     0       8.214  44.290  32.300  0.00  0.00    -0.390 OA
HETATM   17  H   UNK     0       8.350  45.191  31.962  0.00  0.00     0.210 HD
ENDBRANCH  12  16
BRANCH  14  18
HETATM   18  O   UNK     0      10.941  45.059  31.962  0.00  0.00    -0.390 OA
HETATM   19  H   UNK     0      10.527  45.936  32.044  0.00  0.00     0.210 HD
ENDBRANCH  14  18
BRANCH  15  20
HETATM   20  O   UNK     0      11.977  42.665  30.991  0.00  0.00    -0.388 OA
HETATM   21  H   UNK     0      12.605  43.239  31.463  0.00  0.00     0.210 HD
ENDBRANCH  15  20
ENDBRANCH   8   9
ENDBRANCH   7   8
ENDBRANCH   2   7
BRANCH   6  22
HETATM   22  O   UNK     0       6.222  44.995  24.510  0.00  0.00    -0.311 OA
BRANCH  22  23
HETATM   23  C   UNK     0       5.300  44.051  24.111  0.00  0.00     0.157 A 
HETATM   24  C   UNK     0       4.955  43.858  22.826  0.00  0.00     0.124 A 
HETATM   25  O   UNK     0       4.009  42.941  22.395  0.00  0.00    -0.306 OA
HETATM   26  C   UNK     0       3.388  42.154  23.330  0.00  0.00     0.096 A 
HETATM   27  C   UNK     0       3.659  42.244  24.693  0.00  0.00     0.084 A 
HETATM   28  C   UNK     0       2.448  41.233  22.864  0.00  0.00     0.075 A 
HETATM   29  C   UNK     0       4.652  43.225  25.158  0.00  0.00     0.223 A 
HETATM   30  C   UNK     0       2.993  41.416  25.602  0.00  0.00     0.085 A 
HETATM   31  O   UNK     0       4.926  43.354  26.344  0.00  0.00    -0.284 OA
HETATM   32  C   UNK     0       2.054  40.496  25.133  0.00  0.00     0.074 A 
HETATM   33  C   UNK     0       1.782  40.405  23.768  0.00  0.00     0.071 A 
BRANCH  24  34
HETATM   34  C   UNK     0       5.543  44.638  21.722  0.00  0.00     0.004 A 
HETATM   35  C   UNK     0       5.098  45.935  21.469  0.00  0.00     0.053 A 
HETATM   36  C   UNK     0       5.655  46.674  20.425  0.00  0.00     0.099 A 
HETATM   37  C   UNK     0       6.658  46.114  19.634  0.00  0.00     0.098 A 
HETATM   38  C   UNK     0       7.103  44.817  19.886  0.00  0.00     0.040 A 
HETATM   39  C   UNK     0       6.546  44.079  20.930  0.00  0.00     0.017 A 
BRANCH  36  40
HETATM   40  O   UNK     0       5.210  47.939  20.187  0.00  0.00    -0.358 OA
HETATM   41  H   UNK     0       5.423  48.194  19.274  0.00  0.00     0.217 HD
ENDBRANCH  36  40
BRANCH  37  42
HETATM   42  O   UNK     0       7.211  46.826  18.612  0.00  0.00    -0.358 OA
HETATM   43  H   UNK     0       6.567  46.920  17.893  0.00  0.00     0.217 HD
ENDBRANCH  37  42
ENDBRANCH  24  34
BRANCH  30  44
HETATM   44  O   UNK     0       3.220  41.465  26.943  0.00  0.00    -0.360 OA
HETATM   45  H   UNK     0       3.841  40.759  27.193  0.00  0.00     0.217 HD
ENDBRANCH  30  44
BRANCH  33  46
HETATM   46  O   UNK     0       0.865  39.506  23.316  0.00  0.00    -0.361 OA
HETATM   47  H   UNK     0       1.322  38.824  22.795  0.00  0.00     0.217 HD
ENDBRANCH  33  46
ENDBRANCH  22  23
ENDBRANCH   6  22
BRANCH   3  48
HETATM   48  O   UNK     0      11.438  43.731  25.784  0.00  0.00    -0.390 OA
HETATM   49  H   UNK     0      11.329  42.785  25.981  0.00  0.00     0.210 HD
ENDBRANCH   3  48
BRANCH   5  50
HETATM   50  O   UNK     0       8.341  46.124  23.012  0.00  0.00    -0.388 OA
HETATM   51  H   UNK     0       7.403  46.024  22.778  0.00  0.00     0.210 HD
ENDBRANCH   5  50
BRANCH   4  52
HETATM   52  O   UNK     0      10.830  46.288  24.581  0.00  0.00    -0.390 OA
HETATM   53  H   UNK     0      11.571  46.138  23.970  0.00  0.00     0.210 HD
ENDBRANCH   4  52
TORSDOF 16
ENDMDL
MODEL 3
REMARK VINA RESULT:      -8.4      1.245      1.917
REMARK  16 active torsions:
REMARK  status: ('A' for Active; 'I' for Inactive)
REMARK    1  A    between atoms: O_2  and  C_22 
REMARK    2  A    between atoms: O_2  and  C_26 
REMARK    3  A    between atoms: O_4  and  C_18 
REMARK    4  A    between atoms: O_5  and  C_19 
REMARK    5  A    between atoms: O_6  and  C_25 
REMARK    6  A    between atoms: O_6  and  C_29 
REMARK    7  A    between atoms: O_7  and  C_20 
REMARK    8  A    between atoms: O_8  and  C_21 
REMARK    9  A    between atoms: O_9  and  C_23 
REMARK   10  A    between atoms: O_10  and  C_24 
REMARK   11  A    between atoms: O_13  and  C_35 
REMARK   12  A    between atoms: O_14  and  C_40 
REMARK   13  A    between atoms: O_15  and  C_41 
REMARK   14  A    between atoms: O_16  and  C_43 
REMARK   15  A    between atoms: C_17  and  C_26 
REMARK   16  A    between atoms: C_30  and  C_33 
ROOT
HETATM    1  O   UNK     0       7.673  44.078  25.402  0.00  0.00    -0.348 OA
HETATM    2  C   UNK     0       8.987  43.557  25.616  0.00  0.00     0.180 C 
HETATM    3  C   UNK     0      10.024  44.670  25.442  0.00  0.00     0.180 C 
HETATM    4  C   UNK     0       9.890  45.325  24.067  0.00  0.00     0.183 C 
HETATM    5  C   UNK     0       8.439  45.713  23.777  0.00  0.00     0.205 C 
HETATM    6  C   UNK     0       7.485  44.556  24.072  0.00  0.00     0.298 C 
ENDROOT
BRANCH   2   7
HETATM    7  C   UNK     0       9.023  42.967  27.023  0.00  0.00     0.205 C 
BRANCH   7   8
HETATM    8  O   UNK     0       7.724  43.044  27.590  0.00  0.00    -0.356 OA
BRANCH   8   9
HETATM    9  C   UNK     0       7.178  41.750  27.820  0.00  0.00     0.291 C 
HETATM   10  O   UNK     0       5.823  41.802  28.278  0.00  0.00    -0.351 OA
HETATM   11  C   UNK     0       5.659  42.429  29.554  0.00  0.00     0.152 C 
HETATM   12  C   UNK     0       6.463  41.694  30.636  0.00  0.00     0.178 C 
HETATM   13  C   UNK     0       4.163  42.435  29.860  0.00  0.00     0.042 C 
HETATM   14  C   UNK     0       7.929  41.583  30.217  0.00  0.00     0.183 C 
HETATM   15  C   UNK     0       8.054  40.989  28.813  0.00  0.00     0.204 C 
BRANCH  12  16
HETATM   16  O   UNK     0       6.406  42.412  31.867  0.00  0.00    -0.390 OA
HETATM   17  H   UNK     0       5.494  42.363  32.199  0.00  0.00     0.210 HD
ENDBRANCH  12  16
BRANCH  14  18
HETATM   18  O   UNK     0       8.625  40.764  31.155  0.00  0.00    -0.390 OA
HETATM   19  H   UNK     0       8.720  39.879  30.762  0.00  0.00     0.210 HD
ENDBRANCH  14  18
BRANCH  15  20
HETATM   20  O   UNK     0       7.623  39.627  28.821  0.00  0.00    -0.388 OA
HETATM   21  H   UNK     0       7.786  39.249  27.940  0.00  0.00     0.210 HD
ENDBRANCH  15  20
ENDBRANCH   8   9
ENDBRANCH   7   8
ENDBRANCH   2   7
BRANCH   6  22
HETATM   22  O   UNK     0       6.150  45.036  23.917  0.00  0.00    -0.311 OA
BRANCH  22  23
HETATM   23  C   UNK     0       5.276  44.015  23.613  0.00  0.00     0.157 A 
HETATM   24  C   UNK     0       5.019  43.620  22.353  0.00  0.00     0.124 A 
HETATM   25  O   UNK     0       4.122  42.619  22.011  0.00  0.00    -0.306 OA
HETATM   26  C   UNK     0       3.457  41.965  23.016  0.00  0.00     0.096 A 
HETATM   27  C   UNK     0       3.637  42.269  24.363  0.00  0.00     0.084 A 
HETATM   28  C   UNK     0       2.569  40.957  22.640  0.00  0.00     0.075 A 
HETATM   29  C   UNK     0       4.578  43.338  24.732  0.00  0.00     0.223 A 
HETATM   30  C   UNK     0       2.931  41.569  25.345  0.00  0.00     0.085 A 
HETATM   31  O   UNK     0       4.773  43.653  25.898  0.00  0.00    -0.284 OA
HETATM   32  C   UNK     0       2.043  40.561  24.967  0.00  0.00     0.074 A 
HETATM   33  C   UNK     0       1.863  40.255  23.618  0.00  0.00     0.071 A 
BRANCH  24  34
HETATM   34  C   UNK     0       5.661  44.240  21.181  0.00  0.00     0.004 A 
HETATM   35  C   UNK     0       5.239  45.492  20.734  0.00  0.00     0.053 A 
HETATM   36  C   UNK     0       5.848  46.080  19.626  0.00  0.00     0.099 A 
HETATM   37  C   UNK     0       6.879  45.416  18.963  0.00  0.00     0.098 A 
HETATM   38  C   UNK     0       7.302  44.163  19.409  0.00  0.00     0.040 A 
HETATM   39  C   UNK     0       6.694  43.576  20.518  0.00  0.00     0.017 A 
BRANCH  36  40
HETATM   40  O   UNK     0       5.425  47.303  19.198  0.00  0.00    -0.358 OA
HETATM   41  H   UNK     0       5.894  47.544  18.383  0.00  0.00     0.217 HD
ENDBRANCH  36  40
BRANCH  37  42
HETATM   42  O   UNK     0       7.482  45.980  17.880  0.00  0.00    -0.358 OA
HETATM   43  H   UNK     0       6.907  46.665  17.504  0.00  0.00     0.217 HD
ENDBRANCH  37  42
ENDBRANCH  24  34
BRANCH  30  44
HETATM   44  O   UNK     0       3.070  41.827  26.675  0.00  0.00    -0.360 OA
HETATM   45  H   UNK     0       3.490  41.066  27.112  0.00  0.00     0.217 HD
ENDBRANCH  30  44
BRANCH  33  46
HETATM   46  O   UNK     0       0.995  39.271  23.254  0.00  0.00    -0.361 OA
HETATM   47  H   UNK     0       0.105  39.652  23.163  0.00  0.00     0.217 HD
ENDBRANCH  33  46
ENDBRANCH  22  23
ENDBRANCH   6  22
BRANCH   3  48
HETATM   48  O   UNK     0      11.331  44.120  25.575  0.00  0.00    -0.390 OA
HETATM   49  H   UNK     0      11.975  44.831  25.418  0.00  0.00     0.210 HD
ENDBRANCH   3  48
BRANCH   5  50
HETATM   50  O   UNK     0       8.308  46.062  22.400  0.00  0.00    -0.388 OA
HETATM   51  H   UNK     0       7.392  45.884  22.130  0.00  0.00     0.210 HD
ENDBRANCH   5  50
BRANCH   4  52
HETATM   52  O   UNK     0      10.707  46.498  24.055  0.00  0.00    -0.390 OA
HETATM   53  H   UNK     0      11.142  46.558  24.923  0.00  0.00     0.210 HD
ENDBRANCH   4  52
TORSDOF 16
ENDMDL
MODEL 4
REMARK VINA RESULT:      -8.2      4.985      9.010
REMARK  16 active torsions:
REMARK  status: ('A' for Active; 'I' for Inactive)
REMARK    1  A    between atoms: O_2  and  C_22 
REMARK    2  A    between atoms: O_2  and  C_26 
REMARK    3  A    between atoms: O_4  and  C_18 
REMARK    4  A    between atoms: O_5  and  C_19 
REMARK    5  A    between atoms: O_6  and  C_25 
REMARK    6  A    between atoms: O_6  and  C_29 
REMARK    7  A    between atoms: O_7  and  C_20 
REMARK    8  A    between atoms: O_8  and  C_21 
REMARK    9  A    between atoms: O_9  and  C_23 
REMARK   10  A    between atoms: O_10  and  C_24 
REMARK   11  A    between atoms: O_13  and  C_35 
REMARK   12  A    between atoms: O_14  and  C_40 
REMARK   13  A    between atoms: O_15  and  C_41 
REMARK   14  A    between atoms: O_16  and  C_43 
REMARK   15  A    between atoms: C_17  and  C_26 
REMARK   16  A    between atoms: C_30  and  C_33 
ROOT
HETATM    1  O   UNK     0      11.317  43.815  20.739  0.00  0.00    -0.348 OA
HETATM    2  C   UNK     0      12.234  42.826  20.267  0.00  0.00     0.180 C 
HETATM    3  C   UNK     0      13.217  43.456  19.278  0.00  0.00     0.180 C 
HETATM    4  C   UNK     0      12.471  44.133  18.128  0.00  0.00     0.183 C 
HETATM    5  C   UNK     0      11.368  45.053  18.649  0.00  0.00     0.205 C 
HETATM    6  C   UNK     0      10.504  44.349  19.695  0.00  0.00     0.298 C 
ENDROOT
BRANCH   2   7
HETATM    7  C   UNK     0      12.949  42.247  21.484  0.00  0.00     0.205 C 
BRANCH   7   8
HETATM    8  O   UNK     0      14.229  42.851  21.599  0.00  0.00    -0.356 OA
BRANCH   8   9
HETATM    9  C   UNK     0      15.095  42.082  22.427  0.00  0.00     0.291 C 
HETATM   10  O   UNK     0      15.885  42.899  23.297  0.00  0.00    -0.351 OA
HETATM   11  C   UNK     0      16.805  43.760  22.618  0.00  0.00     0.152 C 
HETATM   12  C   UNK     0      17.787  42.951  21.759  0.00  0.00     0.178 C 
HETATM   13  C   UNK     0      17.522  44.579  23.688  0.00  0.00     0.042 C 
HETATM   14  C   UNK     0      17.019  42.037  20.804  0.00  0.00     0.183 C 
HETATM   15  C   UNK     0      15.988  41.197  21.559  0.00  0.00     0.204 C 
BRANCH  12  16
HETATM   16  O   UNK     0      18.598  43.827  20.980  0.00  0.00    -0.390 OA
HETATM   17  H   UNK     0      19.340  43.309  20.623  0.00  0.00     0.210 HD
ENDBRANCH  12  16
BRANCH  14  18
HETATM   18  O   UNK     0      17.941  41.184  20.129  0.00  0.00    -0.390 OA
HETATM   19  H   UNK     0      18.826  41.580  20.210  0.00  0.00     0.210 HD
ENDBRANCH  14  18
BRANCH  15  20
HETATM   20  O   UNK     0      16.651  40.271  22.420  0.00  0.00    -0.388 OA
HETATM   21  H   UNK     0      17.038  40.765  23.163  0.00  0.00     0.210 HD
ENDBRANCH  15  20
ENDBRANCH   8   9
ENDBRANCH   7   8
ENDBRANCH   2   7
BRANCH   6  22
HETATM   22  O   UNK     0       9.596  45.308  20.235  0.00  0.00    -0.311 OA
BRANCH  22  23
HETATM   23  C   UNK     0       8.359  44.754  20.480  0.00  0.00     0.157 A 
HETATM   24  C   UNK     0       7.978  44.314  21.692  0.00  0.00     0.124 A 
HETATM   25  O   UNK     0       6.754  43.723  21.965  0.00  0.00    -0.306 OA
HETATM   26  C   UNK     0       5.851  43.587  20.943  0.00  0.00     0.096 A 
HETATM   27  C   UNK     0       6.114  44.008  19.642  0.00  0.00     0.084 A 
HETATM   28  C   UNK     0       4.624  42.997  21.251  0.00  0.00     0.075 A 
HETATM   29  C   UNK     0       7.416  44.624  19.342  0.00  0.00     0.223 A 
HETATM   30  C   UNK     0       5.155  43.842  18.638  0.00  0.00     0.085 A 
HETATM   31  O   UNK     0       7.706  45.007  18.217  0.00  0.00    -0.284 OA
HETATM   32  C   UNK     0       3.929  43.252  18.949  0.00  0.00     0.074 A 
HETATM   33  C   UNK     0       3.664  42.831  20.252  0.00  0.00     0.071 A 
BRANCH  24  34
HETATM   34  C   UNK     0       8.851  44.398  22.876  0.00  0.00     0.004 A 
HETATM   35  C   UNK     0       9.395  45.625  23.258  0.00  0.00     0.053 A 
HETATM   36  C   UNK     0      10.220  45.705  24.379  0.00  0.00     0.099 A 
HETATM   37  C   UNK     0      10.504  44.557  25.118  0.00  0.00     0.098 A 
HETATM   38  C   UNK     0       9.962  43.330  24.737  0.00  0.00     0.040 A 
HETATM   39  C   UNK     0       9.136  43.251  23.617  0.00  0.00     0.017 A 
BRANCH  36  40
HETATM   40  O   UNK     0      10.746  46.909  24.740  0.00  0.00    -0.358 OA
HETATM   41  H   UNK     0      10.984  47.413  23.945  0.00  0.00     0.217 HD
ENDBRANCH  36  40
BRANCH  37  42
HETATM   42  O   UNK     0      11.309  44.622  26.215  0.00  0.00    -0.358 OA
HETATM   43  H   UNK     0      10.768  44.606  27.020  0.00  0.00     0.217 HD
ENDBRANCH  37  42
ENDBRANCH  24  34
BRANCH  30  44
HETATM   44  O   UNK     0       5.363  44.235  17.351  0.00  0.00    -0.360 OA
HETATM   45  H   UNK     0       5.311  43.462  16.763  0.00  0.00     0.217 HD
ENDBRANCH  30  44
BRANCH  33  46
HETATM   46  O   UNK     0       2.467  42.255  20.551  0.00  0.00    -0.361 OA
HETATM   47  H   UNK     0       2.084  42.705  21.323  0.00  0.00     0.217 HD
ENDBRANCH  33  46
ENDBRANCH  22  23
ENDBRANCH   6  22
BRANCH   3  48
HETATM   48  O   UNK     0      14.071  42.443  18.753  0.00  0.00    -0.390 OA
HETATM   49  H   UNK     0      14.562  42.821  18.004  0.00  0.00     0.210 HD
ENDBRANCH   3  48
BRANCH   5  50
HETATM   50  O   UNK     0      10.527  45.447  17.565  0.00  0.00    -0.388 OA
HETATM   51  H   UNK     0      10.354  44.662  17.018  0.00  0.00     0.210 HD
ENDBRANCH   5  50
BRANCH   4  52
HETATM   52  O   UNK     0      13.416  44.900  17.379  0.00  0.00    -0.390 OA
HETATM   53  H   UNK     0      14.292  44.748  17.774  0.00  0.00     0.210 HD
ENDBRANCH   4  52
TORSDOF 16
ENDMDL
MODEL 5
REMARK VINA RESULT:      -8.0      2.005      6.893
REMARK  16 active torsions:
REMARK  status: ('A' for Active; 'I' for Inactive)
REMARK    1  A    between atoms: O_2  and  C_22 
REMARK    2  A    between atoms: O_2  and  C_26 
REMARK    3  A    between atoms: O_4  and  C_18 
REMARK    4  A    between atoms: O_5  and  C_19 
REMARK    5  A    between atoms: O_6  and  C_25 
REMARK    6  A    between atoms: O_6  and  C_29 
REMARK    7  A    between atoms: O_7  and  C_20 
REMARK    8  A    between atoms: O_8  and  C_21 
REMARK    9  A    between atoms: O_9  and  C_23 
REMARK   10  A    between atoms: O_10  and  C_24 
REMARK   11  A    between atoms: O_13  and  C_35 
REMARK   12  A    between atoms: O_14  and  C_40 
REMARK   13  A    between atoms: O_15  and  C_41 
REMARK   14  A    between atoms: O_16  and  C_43 
REMARK   15  A    between atoms: C_17  and  C_26 
REMARK   16  A    between atoms: C_30  and  C_33 
ROOT
HETATM    1  O   UNK     0       6.194  43.490  25.561  0.00  0.00    -0.348 OA
HETATM    2  C   UNK     0       5.624  42.221  25.883  0.00  0.00     0.180 C 
HETATM    3  C   UNK     0       6.147  41.743  27.241  0.00  0.00     0.180 C 
HETATM    4  C   UNK     0       7.675  41.698  27.247  0.00  0.00     0.183 C 
HETATM    5  C   UNK     0       8.271  43.005  26.725  0.00  0.00     0.205 C 
HETATM    6  C   UNK     0       7.611  43.431  25.413  0.00  0.00     0.298 C 
ENDROOT
BRANCH   2   7
HETATM    7  C   UNK     0       4.107  42.387  25.889  0.00  0.00     0.205 C 
BRANCH   7   8
HETATM    8  O   UNK     0       3.670  42.681  24.571  0.00  0.00    -0.356 OA
BRANCH   8   9
HETATM    9  C   UNK     0       3.379  41.493  23.841  0.00  0.00     0.291 C 
HETATM   10  O   UNK     0       4.443  41.119  22.961  0.00  0.00    -0.351 OA
HETATM   11  C   UNK     0       4.696  42.061  21.913  0.00  0.00     0.152 C 
HETATM   12  C   UNK     0       3.450  42.262  21.040  0.00  0.00     0.178 C 
HETATM   13  C   UNK     0       5.878  41.526  21.108  0.00  0.00     0.042 C 
HETATM   14  C   UNK     0       2.255  42.654  21.910  0.00  0.00     0.183 C 
HETATM   15  C   UNK     0       2.074  41.670  23.067  0.00  0.00     0.204 C 
BRANCH  12  16
HETATM   16  O   UNK     0       3.672  43.306  20.094  0.00  0.00    -0.390 OA
HETATM   17  H   UNK     0       4.618  43.531  20.115  0.00  0.00     0.210 HD
ENDBRANCH  12  16
BRANCH  14  18
HETATM   18  O   UNK     0       1.078  42.682  21.106  0.00  0.00    -0.390 OA
HETATM   19  H   UNK     0       1.343  42.515  20.185  0.00  0.00     0.210 HD
ENDBRANCH  14  18
BRANCH  15  20
HETATM   20  O   UNK     0       1.691  40.390  22.562  0.00  0.00    -0.388 OA
HETATM   21  H   UNK     0       2.252  39.714  22.980  0.00  0.00     0.210 HD
ENDBRANCH  15  20
ENDBRANCH   8   9
ENDBRANCH   7   8
ENDBRANCH   2   7
BRANCH   6  22
HETATM   22  O   UNK     0       8.114  44.721  25.066  0.00  0.00    -0.311 OA
BRANCH  22  23
HETATM   23  C   UNK     0       8.222  44.873  23.702  0.00  0.00     0.157 A 
HETATM   24  C   UNK     0       9.390  44.779  23.042  0.00  0.00     0.124 A 
HETATM   25  O   UNK     0       9.539  44.959  21.675  0.00  0.00    -0.306 OA
HETATM   26  C   UNK     0       8.423  45.233  20.927  0.00  0.00     0.096 A 
HETATM   27  C   UNK     0       7.151  45.349  21.482  0.00  0.00     0.084 A 
HETATM   28  C   UNK     0       8.603  45.399  19.553  0.00  0.00     0.075 A 
HETATM   29  C   UNK     0       6.989  45.172  22.934  0.00  0.00     0.223 A 
HETATM   30  C   UNK     0       6.049  45.631  20.670  0.00  0.00     0.085 A 
HETATM   31  O   UNK     0       5.897  45.267  23.478  0.00  0.00    -0.284 OA
HETATM   32  C   UNK     0       6.232  45.796  19.296  0.00  0.00     0.074 A 
HETATM   33  C   UNK     0       7.506  45.680  18.739  0.00  0.00     0.071 A 
BRANCH  24  34
HETATM   34  C   UNK     0      10.665  44.493  23.725  0.00  0.00     0.004 A 
HETATM   35  C   UNK     0      11.285  43.255  23.554  0.00  0.00     0.053 A 
HETATM   36  C   UNK     0      12.491  42.983  24.198  0.00  0.00     0.099 A 
HETATM   37  C   UNK     0      13.078  43.949  25.015  0.00  0.00     0.098 A 
HETATM   38  C   UNK     0      12.458  45.187  25.187  0.00  0.00     0.040 A 
HETATM   39  C   UNK     0      11.253  45.459  24.541  0.00  0.00     0.017 A 
BRANCH  36  40
HETATM   40  O   UNK     0      13.087  41.770  24.025  0.00  0.00    -0.358 OA
HETATM   41  H   UNK     0      12.494  41.183  23.527  0.00  0.00     0.217 HD
ENDBRANCH  36  40
BRANCH  37  42
HETATM   42  O   UNK     0      14.257  43.696  25.649  0.00  0.00    -0.358 OA
HETATM   43  H   UNK     0      14.378  42.738  25.746  0.00  0.00     0.217 HD
ENDBRANCH  37  42
ENDBRANCH  24  34
BRANCH  30  44
HETATM   44  O   UNK     0       4.786  45.754  21.162  0.00  0.00    -0.360 OA
HETATM   45  H   UNK     0       4.312  46.447  20.671  0.00  0.00     0.217 HD
ENDBRANCH  30  44
BRANCH  33  46
HETATM   46  O   UNK     0       7.679  45.843  17.399  0.00  0.00    -0.361 OA
HETATM   47  H   UNK     0       7.059  46.521  17.080  0.00  0.00     0.217 HD
ENDBRANCH  33  46
ENDBRANCH  22  23
ENDBRANCH   6  22
BRANCH   3  48
HETATM   48  O   UNK     0       5.636  40.441  27.511  0.00  0.00    -0.390 OA
HETATM   49  H   UNK     0       5.283  40.438  28.417  0.00  0.00     0.210 HD
ENDBRANCH   3  48
BRANCH   5  50
HETATM   50  O   UNK     0       9.667  42.829  26.488  0.00  0.00    -0.388 OA
HETATM   51  H   UNK     0      10.153  43.330  27.165  0.00  0.00     0.210 HD
ENDBRANCH   5  50
BRANCH   4  52
HETATM   52  O   UNK     0       8.104  41.484  28.594  0.00  0.00    -0.390 OA
HETATM   53  H   UNK     0       7.322  41.225  29.111  0.00  0.00     0.210 HD
ENDBRANCH   4  52
TORSDOF 16
ENDMDL
MODEL 6
REMARK VINA RESULT:      -7.9      4.903     10.330
REMARK  16 active torsions:
REMARK  status: ('A' for Active; 'I' for Inactive)
REMARK    1  A    between atoms: O_2  and  C_22 
REMARK    2  A    between atoms: O_2  and  C_26 
REMARK    3  A    between atoms: O_4  and  C_18 
REMARK    4  A    between atoms: O_5  and  C_19 
REMARK    5  A    between atoms: O_6  and  C_25 
REMARK    6  A    between atoms: O_6  and  C_29 
REMARK    7  A    between atoms: O_7  and  C_20 
REMARK    8  A    between atoms: O_8  and  C_21 
REMARK    9  A    between atoms: O_9  and  C_23 
REMARK   10  A    between atoms: O_10  and  C_24 
REMARK   11  A    between atoms: O_13  and  C_35 
REMARK   12  A    between atoms: O_14  and  C_40 
REMARK   13  A    between atoms: O_15  and  C_41 
REMARK   14  A    between atoms: O_16  and  C_43 
REMARK   15  A    between atoms: C_17  and  C_26 
REMARK   16  A    between atoms: C_30  and  C_33 
ROOT
HETATM    1  O   UNK     0      10.852  43.939  21.711  0.00  0.00    -0.348 OA
HETATM    2  C   UNK     0      10.193  45.093  21.184  0.00  0.00     0.180 C 
HETATM    3  C   UNK     0       9.801  44.849  19.725  0.00  0.00     0.180 C 
HETATM    4  C   UNK     0      11.024  44.463  18.892  0.00  0.00     0.183 C 
HETATM    5  C   UNK     0      11.822  43.345  19.565  0.00  0.00     0.205 C 
HETATM    6  C   UNK     0      12.077  43.655  21.040  0.00  0.00     0.298 C 
ENDROOT
BRANCH   2   7
HETATM    7  C   UNK     0       8.973  45.364  22.059  0.00  0.00     0.205 C 
BRANCH   7   8
HETATM    8  O   UNK     0       7.871  44.621  21.560  0.00  0.00    -0.356 OA
BRANCH   8   9
HETATM    9  C   UNK     0       6.637  45.282  21.820  0.00  0.00     0.291 C 
HETATM   10  O   UNK     0       5.619  44.381  22.266  0.00  0.00    -0.351 OA
HETATM   11  C   UNK     0       5.237  43.401  21.295  0.00  0.00     0.152 C 
HETATM   12  C   UNK     0       4.708  44.068  20.017  0.00  0.00     0.178 C 
HETATM   13  C   UNK     0       4.186  42.509  21.951  0.00  0.00     0.042 C 
HETATM   14  C   UNK     0       5.738  45.062  19.479  0.00  0.00     0.183 C 
HETATM   15  C   UNK     0       6.182  46.036  20.571  0.00  0.00     0.204 C 
BRANCH  12  16
HETATM   16  O   UNK     0       4.470  43.087  19.011  0.00  0.00    -0.390 OA
HETATM   17  H   UNK     0       4.812  42.237  19.335  0.00  0.00     0.210 HD
ENDBRANCH  12  16
BRANCH  14  18
HETATM   18  O   UNK     0       5.168  45.783  18.388  0.00  0.00    -0.390 OA
HETATM   19  H   UNK     0       5.597  46.655  18.353  0.00  0.00     0.210 HD
ENDBRANCH  14  18
BRANCH  15  20
HETATM   20  O   UNK     0       5.092  46.879  20.945  0.00  0.00    -0.388 OA
HETATM   21  H   UNK     0       5.038  46.898  21.916  0.00  0.00     0.210 HD
ENDBRANCH  15  20
ENDBRANCH   8   9
ENDBRANCH   7   8
ENDBRANCH   2   7
BRANCH   6  22
HETATM   22  O   UNK     0      12.695  42.512  21.629  0.00  0.00    -0.311 OA
BRANCH  22  23
HETATM   23  C   UNK     0      13.827  42.854  22.334  0.00  0.00     0.157 A 
HETATM   24  C   UNK     0      13.796  43.302  23.602  0.00  0.00     0.124 A 
HETATM   25  O   UNK     0      14.912  43.685  24.330  0.00  0.00    -0.306 OA
HETATM   26  C   UNK     0      16.144  43.589  23.736  0.00  0.00     0.096 A 
HETATM   27  C   UNK     0      16.320  43.133  22.431  0.00  0.00     0.084 A 
HETATM   28  C   UNK     0      17.249  43.973  24.496  0.00  0.00     0.075 A 
HETATM   29  C   UNK     0      15.138  42.737  21.650  0.00  0.00     0.223 A 
HETATM   30  C   UNK     0      17.600  43.057  21.876  0.00  0.00     0.085 A 
HETATM   31  O   UNK     0      15.230  42.335  20.498  0.00  0.00    -0.284 OA
HETATM   32  C   UNK     0      18.704  43.442  22.639  0.00  0.00     0.074 A 
HETATM   33  C   UNK     0      18.529  43.898  23.946  0.00  0.00     0.071 A 
BRANCH  24  34
HETATM   34  C   UNK     0      12.539  43.455  24.357  0.00  0.00     0.004 A 
HETATM   35  C   UNK     0      11.803  42.329  24.724  0.00  0.00     0.053 A 
HETATM   36  C   UNK     0      10.615  42.473  25.440  0.00  0.00     0.099 A 
HETATM   37  C   UNK     0      10.161  43.745  25.787  0.00  0.00     0.098 A 
HETATM   38  C   UNK     0      10.895  44.872  25.419  0.00  0.00     0.040 A 
HETATM   39  C   UNK     0      12.084  44.727  24.705  0.00  0.00     0.017 A 
BRANCH  36  40
HETATM   40  O   UNK     0       9.904  41.365  25.792  0.00  0.00    -0.358 OA
HETATM   41  H   UNK     0       9.470  40.993  25.007  0.00  0.00     0.217 HD
ENDBRANCH  36  40
BRANCH  37  42
HETATM   42  O   UNK     0       9.002  43.899  26.486  0.00  0.00    -0.358 OA
HETATM   43  H   UNK     0       8.931  44.813  26.805  0.00  0.00     0.217 HD
ENDBRANCH  37  42
ENDBRANCH  24  34
BRANCH  30  44
HETATM   44  O   UNK     0      17.827  42.620  20.607  0.00  0.00    -0.360 OA
HETATM   45  H   UNK     0      17.465  43.263  19.972  0.00  0.00     0.217 HD
ENDBRANCH  30  44
BRANCH  33  46
HETATM   46  O   UNK     0      19.609  44.273  24.686  0.00  0.00    -0.361 OA
HETATM   47  H   UNK     0      19.984  43.486  25.117  0.00  0.00     0.217 HD
ENDBRANCH  33  46
ENDBRANCH  22  23
ENDBRANCH   6  22
BRANCH   3  48
HETATM   48  O   UNK     0       9.222  46.035  19.188  0.00  0.00    -0.390 OA
HETATM   49  H   UNK     0       8.444  45.779  18.664  0.00  0.00     0.210 HD
ENDBRANCH   3  48
BRANCH   5  50
HETATM   50  O   UNK     0      13.083  43.204  18.912  0.00  0.00    -0.388 OA
HETATM   51  H   UNK     0      13.186  43.945  18.291  0.00  0.00     0.210 HD
ENDBRANCH   5  50
BRANCH   4  52
HETATM   52  O   UNK     0      10.564  44.016  17.615  0.00  0.00    -0.390 OA
HETATM   53  H   UNK     0      10.711  44.741  16.983  0.00  0.00     0.210 HD
ENDBRANCH   4  52
TORSDOF 16
ENDMDL
MODEL 7
REMARK VINA RESULT:      -7.9      1.757      7.240
REMARK  16 active torsions:
REMARK  status: ('A' for Active; 'I' for Inactive)
REMARK    1  A    between atoms: O_2  and  C_22 
REMARK    2  A    between atoms: O_2  and  C_26 
REMARK    3  A    between atoms: O_4  and  C_18 
REMARK    4  A    between atoms: O_5  and  C_19 
REMARK    5  A    between atoms: O_6  and  C_25 
REMARK    6  A    between atoms: O_6  and  C_29 
REMARK    7  A    between atoms: O_7  and  C_20 
REMARK    8  A    between atoms: O_8  and  C_21 
REMARK    9  A    between atoms: O_9  and  C_23 
REMARK   10  A    between atoms: O_10  and  C_24 
REMARK   11  A    between atoms: O_13  and  C_35 
REMARK   12  A    between atoms: O_14  and  C_40 
REMARK   13  A    between atoms: O_15  and  C_41 
REMARK   14  A    between atoms: O_16  and  C_43 
REMARK   15  A    between atoms: C_17  and  C_26 
REMARK   16  A    between atoms: C_30  and  C_33 
ROOT
HETATM    1  O   UNK     0       6.583  42.918  24.464  0.00  0.00    -0.348 OA
HETATM    2  C   UNK     0       7.519  43.988  24.318  0.00  0.00     0.180 C 
HETATM    3  C   UNK     0       8.782  43.484  23.615  0.00  0.00     0.180 C 
HETATM    4  C   UNK     0       9.387  42.300  24.370  0.00  0.00     0.183 C 
HETATM    5  C   UNK     0       8.328  41.242  24.680  0.00  0.00     0.205 C 
HETATM    6  C   UNK     0       7.078  41.870  25.295  0.00  0.00     0.298 C 
ENDROOT
BRANCH   2   7
HETATM    7  C   UNK     0       6.832  45.093  23.521  0.00  0.00     0.205 C 
BRANCH   7   8
HETATM    8  O   UNK     0       6.506  44.598  22.231  0.00  0.00    -0.356 OA
BRANCH   8   9
HETATM    9  C   UNK     0       5.526  45.410  21.593  0.00  0.00     0.291 C 
HETATM   10  O   UNK     0       4.654  44.653  20.749  0.00  0.00    -0.351 OA
HETATM   11  C   UNK     0       5.306  44.038  19.633  0.00  0.00     0.152 C 
HETATM   12  C   UNK     0       5.981  45.089  18.741  0.00  0.00     0.178 C 
HETATM   13  C   UNK     0       4.244  43.244  18.876  0.00  0.00     0.042 C 
HETATM   14  C   UNK     0       6.927  45.956  19.573  0.00  0.00     0.183 C 
HETATM   15  C   UNK     0       6.212  46.522  20.802  0.00  0.00     0.204 C 
BRANCH  12  16
HETATM   16  O   UNK     0       6.746  44.453  17.720  0.00  0.00    -0.390 OA
HETATM   17  H   UNK     0       7.686  44.628  17.898  0.00  0.00     0.210 HD
ENDBRANCH  12  16
BRANCH  14  18
HETATM   18  O   UNK     0       7.422  47.021  18.765  0.00  0.00    -0.390 OA
HETATM   19  H   UNK     0       8.312  47.248  19.086  0.00  0.00     0.210 HD
ENDBRANCH  14  18
BRANCH  15  20
HETATM   20  O   UNK     0       5.206  47.451  20.395  0.00  0.00    -0.388 OA
HETATM   21  H   UNK     0       5.639  48.186  19.926  0.00  0.00     0.210 HD
ENDBRANCH  15  20
ENDBRANCH   8   9
ENDBRANCH   7   8
ENDBRANCH   2   7
BRANCH   6  22
HETATM   22  O   UNK     0       6.089  40.849  25.422  0.00  0.00    -0.311 OA
BRANCH  22  23
HETATM   23  C   UNK     0       5.229  41.102  26.468  0.00  0.00     0.157 A 
HETATM   24  C   UNK     0       3.933  41.415  26.294  0.00  0.00     0.124 A 
HETATM   25  O   UNK     0       3.049  41.707  27.321  0.00  0.00    -0.306 OA
HETATM   26  C   UNK     0       3.508  41.659  28.612  0.00  0.00     0.096 A 
HETATM   27  C   UNK     0       4.826  41.339  28.933  0.00  0.00     0.084 A 
HETATM   28  C   UNK     0       2.593  41.948  29.625  0.00  0.00     0.075 A 
HETATM   29  C   UNK     0       5.771  41.041  27.847  0.00  0.00     0.223 A 
HETATM   30  C   UNK     0       5.239  41.306  30.268  0.00  0.00     0.085 A 
HETATM   31  O   UNK     0       6.941  40.760  28.068  0.00  0.00    -0.284 OA
HETATM   32  C   UNK     0       4.321  41.596  31.279  0.00  0.00     0.074 A 
HETATM   33  C   UNK     0       3.001  41.915  30.959  0.00  0.00     0.071 A 
BRANCH  24  34
HETATM   34  C   UNK     0       3.312  41.504  24.960  0.00  0.00     0.004 A 
HETATM   35  C   UNK     0       2.603  40.418  24.446  0.00  0.00     0.053 A 
HETATM   36  C   UNK     0       2.014  40.503  23.185  0.00  0.00     0.099 A 
HETATM   37  C   UNK     0       2.134  41.673  22.436  0.00  0.00     0.098 A 
HETATM   38  C   UNK     0       2.842  42.760  22.950  0.00  0.00     0.040 A 
HETATM   39  C   UNK     0       3.430  42.675  24.211  0.00  0.00     0.017 A 
BRANCH  36  40
HETATM   40  O   UNK     0       1.326  39.434  22.692  0.00  0.00    -0.358 OA
HETATM   41  H   UNK     0       0.661  39.148  23.339  0.00  0.00     0.217 HD
ENDBRANCH  36  40
BRANCH  37  42
HETATM   42  O   UNK     0       1.562  41.768  21.203  0.00  0.00    -0.358 OA
HETATM   43  H   UNK     0       1.550  40.895  20.780  0.00  0.00     0.217 HD
ENDBRANCH  37  42
ENDBRANCH  24  34
BRANCH  30  44
HETATM   44  O   UNK     0       6.513  41.001  30.636  0.00  0.00    -0.360 OA
HETATM   45  H   UNK     0       6.654  41.256  31.564  0.00  0.00     0.217 HD
ENDBRANCH  30  44
BRANCH  33  46
HETATM   46  O   UNK     0       2.110  42.197  31.948  0.00  0.00    -0.361 OA
HETATM   47  H   UNK     0       2.595  42.337  32.779  0.00  0.00     0.217 HD
ENDBRANCH  33  46
ENDBRANCH  22  23
ENDBRANCH   6  22
BRANCH   3  48
HETATM   48  O   UNK     0       9.738  44.539  23.551  0.00  0.00    -0.390 OA
HETATM   49  H   UNK     0      10.487  44.302  24.122  0.00  0.00     0.210 HD
ENDBRANCH   3  48
BRANCH   5  50
HETATM   50  O   UNK     0       8.859  40.298  25.610  0.00  0.00    -0.388 OA
HETATM   51  H   UNK     0       9.297  40.792  26.324  0.00  0.00     0.210 HD
ENDBRANCH   5  50
BRANCH   4  52
HETATM   52  O   UNK     0      10.406  41.727  23.549  0.00  0.00    -0.390 OA
HETATM   53  H   UNK     0      11.216  41.675  24.084  0.00  0.00     0.210 HD
ENDBRANCH   4  52
TORSDOF 16
ENDMDL
MODEL 8
REMARK VINA RESULT:      -7.8     14.234     18.651
REMARK  16 active torsions:
REMARK  status: ('A' for Active; 'I' for Inactive)
REMARK    1  A    between atoms: O_2  and  C_22 
REMARK    2  A    between atoms: O_2  and  C_26 
REMARK    3  A    between atoms: O_4  and  C_18 
REMARK    4  A    between atoms: O_5  and  C_19 
REMARK    5  A    between atoms: O_6  and  C_25 
REMARK    6  A    between atoms: O_6  and  C_29 
REMARK    7  A    between atoms: O_7  and  C_20 
REMARK    8  A    between atoms: O_8  and  C_21 
REMARK    9  A    between atoms: O_9  and  C_23 
REMARK   10  A    between atoms: O_10  and  C_24 
REMARK   11  A    between atoms: O_13  and  C_35 
REMARK   12  A    between atoms: O_14  and  C_40 
REMARK   13  A    between atoms: O_15  and  C_41 
REMARK   14  A    between atoms: O_16  and  C_43 
REMARK   15  A    between atoms: C_17  and  C_26 
REMARK   16  A    between atoms: C_30  and  C_33 
ROOT
HETATM    1  O   UNK     0      13.557  52.875  36.219  0.00  0.00    -0.348 OA
HETATM    2  C   UNK     0      12.982  52.469  34.976  0.00  0.00     0.180 C 
HETATM    3  C   UNK     0      12.851  53.675  34.043  0.00  0.00     0.180 C 
HETATM    4  C   UNK     0      12.042  54.789  34.706  0.00  0.00     0.183 C 
HETATM    5  C   UNK     0      12.560  55.087  36.113  0.00  0.00     0.205 C 
HETATM    6  C   UNK     0      12.736  53.803  36.924  0.00  0.00     0.298 C 
ENDROOT
BRANCH   2   7
HETATM    7  C   UNK     0      13.883  51.390  34.383  0.00  0.00     0.205 C 
BRANCH   7   8
HETATM    8  O   UNK     0      13.176  50.160  34.355  0.00  0.00    -0.356 OA
BRANCH   8   9
HETATM    9  C   UNK     0      13.563  49.311  35.431  0.00  0.00     0.291 C 
HETATM   10  O   UNK     0      14.727  48.538  35.124  0.00  0.00    -0.351 OA
HETATM   11  C   UNK     0      14.547  47.604  34.055  0.00  0.00     0.152 C 
HETATM   12  C   UNK     0      13.426  46.606  34.379  0.00  0.00     0.178 C 
HETATM   13  C   UNK     0      15.888  46.907  33.839  0.00  0.00     0.042 C 
HETATM   14  C   UNK     0      12.141  47.354  34.732  0.00  0.00     0.183 C 
HETATM   15  C   UNK     0      12.397  48.402  35.817  0.00  0.00     0.204 C 
BRANCH  12  16
HETATM   16  O   UNK     0      13.161  45.777  33.249  0.00  0.00    -0.390 OA
HETATM   17  H   UNK     0      12.367  46.122  32.806  0.00  0.00     0.210 HD
ENDBRANCH  12  16
BRANCH  14  18
HETATM   18  O   UNK     0      11.161  46.420  35.181  0.00  0.00    -0.390 OA
HETATM   19  H   UNK     0      10.402  46.926  35.520  0.00  0.00     0.210 HD
ENDBRANCH  14  18
BRANCH  15  20
HETATM   20  O   UNK     0      12.737  47.757  37.046  0.00  0.00    -0.388 OA
HETATM   21  H   UNK     0      13.109  46.882  36.841  0.00  0.00     0.210 HD
ENDBRANCH  15  20
ENDBRANCH   8   9
ENDBRANCH   7   8
ENDBRANCH   2   7
BRANCH   6  22
HETATM   22  O   UNK     0      13.353  54.147  38.164  0.00  0.00    -0.311 OA
BRANCH  22  23
HETATM   23  C   UNK     0      12.816  53.435  39.213  0.00  0.00     0.157 A 
HETATM   24  C   UNK     0      13.432  52.381  39.779  0.00  0.00     0.124 A 
HETATM   25  O   UNK     0      12.905  51.623  40.813  0.00  0.00    -0.306 OA
HETATM   26  C   UNK     0      11.679  51.971  41.319  0.00  0.00     0.096 A 
HETATM   27  C   UNK     0      10.938  53.044  40.832  0.00  0.00     0.084 A 
HETATM   28  C   UNK     0      11.180  51.195  42.366  0.00  0.00     0.075 A 
HETATM   29  C   UNK     0      11.486  53.844  39.725  0.00  0.00     0.223 A 
HETATM   30  C   UNK     0       9.692  53.351  41.386  0.00  0.00     0.085 A 
HETATM   31  O   UNK     0      10.877  54.795  39.253  0.00  0.00    -0.284 OA
HETATM   32  C   UNK     0       9.195  52.574  42.433  0.00  0.00     0.074 A 
HETATM   33  C   UNK     0       9.937  51.499  42.922  0.00  0.00     0.071 A 
BRANCH  24  34
HETATM   34  C   UNK     0      14.751  51.901  39.330  0.00  0.00     0.004 A 
HETATM   35  C   UNK     0      14.867  50.658  38.707  0.00  0.00     0.053 A 
HETATM   36  C   UNK     0      16.114  50.204  38.281  0.00  0.00     0.099 A 
HETATM   37  C   UNK     0      17.248  50.992  38.478  0.00  0.00     0.098 A 
HETATM   38  C   UNK     0      17.133  52.234  39.101  0.00  0.00     0.040 A 
HETATM   39  C   UNK     0      15.886  52.689  39.526  0.00  0.00     0.017 A 
BRANCH  36  40
HETATM   40  O   UNK     0      16.214  48.987  37.675  0.00  0.00    -0.358 OA
HETATM   41  H   UNK     0      15.746  48.320  38.203  0.00  0.00     0.217 HD
ENDBRANCH  36  40
BRANCH  37  42
HETATM   42  O   UNK     0      18.472  50.559  38.065  0.00  0.00    -0.358 OA
HETATM   43  H   UNK     0      19.140  50.780  38.733  0.00  0.00     0.217 HD
ENDBRANCH  37  42
ENDBRANCH  24  34
BRANCH  30  44
HETATM   44  O   UNK     0       8.928  54.388  40.946  0.00  0.00    -0.360 OA
HETATM   45  H   UNK     0       9.462  55.201  40.928  0.00  0.00     0.217 HD
ENDBRANCH  30  44
BRANCH  33  46
HETATM   46  O   UNK     0       9.448  50.743  43.944  0.00  0.00    -0.361 OA
HETATM   47  H   UNK     0       8.515  50.534  43.763  0.00  0.00     0.217 HD
ENDBRANCH  33  46
ENDBRANCH  22  23
ENDBRANCH   6  22
BRANCH   3  48
HETATM   48  O   UNK     0      12.200  53.272  32.841  0.00  0.00    -0.390 OA
HETATM   49  H   UNK     0      11.250  53.449  32.939  0.00  0.00     0.210 HD
ENDBRANCH   3  48
BRANCH   5  50
HETATM   50  O   UNK     0      11.625  55.923  36.796  0.00  0.00    -0.388 OA
HETATM   51  H   UNK     0      10.733  55.692  36.486  0.00  0.00     0.210 HD
ENDBRANCH   5  50
BRANCH   4  52
HETATM   52  O   UNK     0      12.160  55.961  33.898  0.00  0.00    -0.390 OA
HETATM   53  H   UNK     0      11.636  55.813  33.092  0.00  0.00     0.210 HD
ENDBRANCH   4  52
TORSDOF 16
ENDMDL
MODEL 9
REMARK VINA RESULT:      -7.8      3.000      6.760
REMARK  16 active torsions:
REMARK  status: ('A' for Active; 'I' for Inactive)
REMARK    1  A    between atoms: O_2  and  C_22 
REMARK    2  A    between atoms: O_2  and  C_26 
REMARK    3  A    between atoms: O_4  and  C_18 
REMARK    4  A    between atoms: O_5  and  C_19 
REMARK    5  A    between atoms: O_6  and  C_25 
REMARK    6  A    between atoms: O_6  and  C_29 
REMARK    7  A    between atoms: O_7  and  C_20 
REMARK    8  A    between atoms: O_8  and  C_21 
REMARK    9  A    between atoms: O_9  and  C_23 
REMARK   10  A    between atoms: O_10  and  C_24 
REMARK   11  A    between atoms: O_13  and  C_35 
REMARK   12  A    between atoms: O_14  and  C_40 
REMARK   13  A    between atoms: O_15  and  C_41 
REMARK   14  A    between atoms: O_16  and  C_43 
REMARK   15  A    between atoms: C_17  and  C_26 
REMARK   16  A    between atoms: C_30  and  C_33 
ROOT
HETATM    1  O   UNK     0       4.401  41.749  22.803  0.00  0.00    -0.348 OA
HETATM    2  C   UNK     0       3.041  42.111  23.052  0.00  0.00     0.180 C 
HETATM    3  C   UNK     0       2.209  41.919  21.782  0.00  0.00     0.180 C 
HETATM    4  C   UNK     0       2.803  42.713  20.619  0.00  0.00     0.183 C 
HETATM    5  C   UNK     0       4.303  42.452  20.480  0.00  0.00     0.205 C 
HETATM    6  C   UNK     0       5.017  42.584  21.825  0.00  0.00     0.298 C 
ENDROOT
BRANCH   2   7
HETATM    7  C   UNK     0       2.536  41.236  24.196  0.00  0.00     0.205 C 
BRANCH   7   8
HETATM    8  O   UNK     0       1.610  40.291  23.681  0.00  0.00    -0.356 OA
BRANCH   8   9
HETATM    9  C   UNK     0       1.881  38.980  24.165  0.00  0.00     0.291 C 
HETATM   10  O   UNK     0       2.064  38.035  23.106  0.00  0.00    -0.351 OA
HETATM   11  C   UNK     0       0.899  37.824  22.301  0.00  0.00     0.152 C 
HETATM   12  C   UNK     0      -0.273  37.313  23.151  0.00  0.00     0.178 C 
HETATM   13  C   UNK     0       1.286  36.831  21.207  0.00  0.00     0.042 C 
HETATM   14  C   UNK     0      -0.528  38.265  24.320  0.00  0.00     0.183 C 
HETATM   15  C   UNK     0       0.760  38.532  25.101  0.00  0.00     0.204 C 
BRANCH  12  16
HETATM   16  O   UNK     0      -1.461  37.247  22.365  0.00  0.00    -0.390 OA
HETATM   17  H   UNK     0      -2.141  36.791  22.890  0.00  0.00     0.210 HD
ENDBRANCH  12  16
BRANCH  14  18
HETATM   18  O   UNK     0      -1.510  37.697  25.183  0.00  0.00    -0.390 OA
HETATM   19  H   UNK     0      -2.127  38.405  25.437  0.00  0.00     0.210 HD
ENDBRANCH  14  18
BRANCH  15  20
HETATM   20  O   UNK     0       1.190  37.336  25.753  0.00  0.00    -0.388 OA
HETATM   21  H   UNK     0       0.751  36.579  25.328  0.00  0.00     0.210 HD
ENDBRANCH  15  20
ENDBRANCH   8   9
ENDBRANCH   7   8
ENDBRANCH   2   7
BRANCH   6  22
HETATM   22  O   UNK     0       6.376  42.189  21.643  0.00  0.00    -0.311 OA
BRANCH  22  23
HETATM   23  C   UNK     0       7.193  42.713  22.620  0.00  0.00     0.157 A 
HETATM   24  C   UNK     0       7.471  44.026  22.719  0.00  0.00     0.124 A 
HETATM   25  O   UNK     0       8.313  44.582  23.669  0.00  0.00    -0.306 OA
HETATM   26  C   UNK     0       8.896  43.752  24.592  0.00  0.00     0.096 A 
HETATM   27  C   UNK     0       8.686  42.376  24.609  0.00  0.00     0.084 A 
HETATM   28  C   UNK     0       9.730  44.343  25.542  0.00  0.00     0.075 A 
HETATM   29  C   UNK     0       7.803  41.778  23.595  0.00  0.00     0.223 A 
HETATM   30  C   UNK     0       9.307  41.578  25.574  0.00  0.00     0.085 A 
HETATM   31  O   UNK     0       7.586  40.574  23.557  0.00  0.00    -0.284 OA
HETATM   32  C   UNK     0      10.141  42.171  26.523  0.00  0.00     0.074 A 
HETATM   33  C   UNK     0      10.352  43.550  26.508  0.00  0.00     0.071 A 
BRANCH  24  34
HETATM   34  C   UNK     0       6.914  45.026  21.790  0.00  0.00     0.004 A 
HETATM   35  C   UNK     0       7.622  45.382  20.642  0.00  0.00     0.053 A 
HETATM   36  C   UNK     0       7.094  46.326  19.762  0.00  0.00     0.099 A 
HETATM   37  C   UNK     0       5.860  46.917  20.030  0.00  0.00     0.098 A 
HETATM   38  C   UNK     0       5.152  46.562  21.179  0.00  0.00     0.040 A 
HETATM   39  C   UNK     0       5.679  45.616  22.058  0.00  0.00     0.017 A 
BRANCH  36  40
HETATM   40  O   UNK     0       7.796  46.667  18.644  0.00  0.00    -0.358 OA
HETATM   41  H   UNK     0       8.702  46.323  18.709  0.00  0.00     0.217 HD
ENDBRANCH  36  40
BRANCH  37  42
HETATM   42  O   UNK     0       5.334  47.841  19.178  0.00  0.00    -0.358 OA
HETATM   43  H   UNK     0       5.902  47.925  18.396  0.00  0.00     0.217 HD
ENDBRANCH  37  42
ENDBRANCH  24  34
BRANCH  30  44
HETATM   44  O   UNK     0       9.136  40.229  25.634  0.00  0.00    -0.360 OA
HETATM   45  H   UNK     0       9.434  39.901  26.500  0.00  0.00     0.217 HD
ENDBRANCH  30  44
BRANCH  33  46
HETATM   46  O   UNK     0      11.167  44.124  27.435  0.00  0.00    -0.361 OA
HETATM   47  H   UNK     0      11.270  43.514  28.185  0.00  0.00     0.217 HD
ENDBRANCH  33  46
ENDBRANCH  22  23
ENDBRANCH   6  22
BRANCH   3  48
HETATM   48  O   UNK     0       0.875  42.361  22.021  0.00  0.00    -0.390 OA
HETATM   49  H   UNK     0       0.540  42.763  21.202  0.00  0.00     0.210 HD
ENDBRANCH   3  48
BRANCH   5  50
HETATM   50  O   UNK     0       4.868  43.403  19.578  0.00  0.00    -0.388 OA
HETATM   51  H   UNK     0       4.360  43.372  18.750  0.00  0.00     0.210 HD
ENDBRANCH   5  50
BRANCH   4  52
HETATM   52  O   UNK     0       2.138  42.307  19.421  0.00  0.00    -0.390 OA
HETATM   53  H   UNK     0       2.821  42.148  18.748  0.00  0.00     0.210 HD
ENDBRANCH   4  52
TORSDOF 16
ENDMDL
