REMARK SMILES COc1cc(/C=C/C(=O)CC(=O)/C=C/c2ccc(O)c(OC)c2)ccc1O
REMARK SMILES IDX 10 1 8 2 9 3 7 6 6 7 5 8 3 9 4 10 26 11 25 12 24 13 2 14
REMARK SMILES IDX 1 15 27 18 11 23 12 24 13 27 14 28 15 29 23 30 16 31 20 32
REMARK SMILES IDX 17 33 18 34 21 35 22 36 19 39
REMARK H PARENT 27 19 19 40
REMARK Flexibility Score: inf
ROOT
ATOM      1  C   UNL     1       0.033   2.788   0.601  1.00  0.00     0.160 C 
ENDROOT
BRANCH   1   2
ATOM      2  C   UNL     1       1.475   2.856   0.139  1.00  0.00     0.163 C 
ATOM      3  O   UNL     1       2.077   3.918   0.008  1.00  0.00    -0.294 OA
ATOM      4 WAT  UNL     1       4.933   3.920  -0.913  1.00  0.00     0.000 W 
ATOM      5 WAT  UNL     1       0.693   6.511   0.609  1.00  0.00     0.000 W 
BRANCH   2   6
ATOM      6  C   UNL     1       2.140   1.541  -0.104  1.00  0.00     0.048 C 
ATOM      7  C   UNL     1       3.463   1.410   0.062  1.00  0.00     0.012 C 
BRANCH   7   8
ATOM      8  C   UNL     1       4.215   0.162  -0.162  1.00  0.00    -0.022 A 
ATOM      9  C   UNL     1       6.175  -1.172   0.206  1.00  0.00     0.161 A 
ATOM     10  C   UNL     1       5.464   0.009   0.419  1.00  0.00     0.058 A 
ATOM     11  C   UNL     1       5.629  -2.182  -0.585  1.00  0.00     0.157 A 
ATOM     12  C   UNL     1       4.371  -2.013  -1.163  1.00  0.00     0.051 A 
ATOM     13  C   UNL     1       3.659  -0.832  -0.950  1.00  0.00     0.012 A 
BRANCH   9  14
ATOM     14  O   UNL     1       7.403  -1.326   0.776  1.00  0.00    -0.493 OA
ATOM     15  C   UNL     1       7.890  -0.246   1.570  1.00  0.00     0.278 C 
ATOM     16 WAT  UNL     1       9.316  -1.531  -1.526  1.00  0.00     0.000 W 
ATOM     17 WAT  UNL     1       7.098  -3.623   2.681  1.00  0.00     0.000 W 
ENDBRANCH   9  14
BRANCH  11  18
ATOM     18  O   UNL     1       6.314  -3.340  -0.799  1.00  0.00    -0.504 OA
ATOM     19  H   UNL     1       7.162  -3.286  -0.326  1.00  0.00     0.293 HD
ATOM     20 WAT  UNL     1       6.950  -3.455  -3.729  1.00  0.00     0.000 W 
ATOM     21 WAT  UNL     1       4.732  -5.546   0.480  1.00  0.00     0.000 W 
ATOM     22 WAT  UNL     1       8.905  -3.175   0.648  1.00  0.00     0.000 W 
ENDBRANCH  11  18
ENDBRANCH   7   8
ENDBRANCH   2   6
ENDBRANCH   1   2
BRANCH   1  23
ATOM     23  C   UNL     1      -0.916   2.066  -0.336  1.00  0.00     0.163 C 
ATOM     24  O   UNL     1      -0.734   2.015  -1.550  1.00  0.00    -0.294 OA
ATOM     25 WAT  UNL     1      -2.685   0.554  -3.299  1.00  0.00     0.000 W 
ATOM     26 WAT  UNL     1       1.663   3.349  -2.764  1.00  0.00     0.000 W 
BRANCH  23  27
ATOM     27  C   UNL     1      -2.069   1.376   0.314  1.00  0.00     0.048 C 
ATOM     28  C   UNL     1      -2.974   0.721  -0.427  1.00  0.00     0.012 C 
BRANCH  28  29
ATOM     29  C   UNL     1      -4.150   0.019   0.115  1.00  0.00    -0.022 A 
ATOM     30  C   UNL     1      -5.220  -0.258  -0.720  1.00  0.00     0.058 A 
ATOM     31  C   UNL     1      -4.163  -0.350   1.451  1.00  0.00     0.012 A 
ATOM     32  C   UNL     1      -6.334  -0.922  -0.206  1.00  0.00     0.161 A 
ATOM     33  C   UNL     1      -5.277  -1.014   1.965  1.00  0.00     0.051 A 
ATOM     34  C   UNL     1      -6.362  -1.300   1.136  1.00  0.00     0.157 A 
BRANCH  32  35
ATOM     35  O   UNL     1      -7.387  -1.197  -1.025  1.00  0.00    -0.493 OA
ATOM     36  C   UNL     1      -7.279  -0.777  -2.384  1.00  0.00     0.278 C 
ATOM     37 WAT  UNL     1      -9.683   0.372   0.100  1.00  0.00     0.000 W 
ATOM     38 WAT  UNL     1      -7.530  -4.192  -1.140  1.00  0.00     0.000 W 
ENDBRANCH  32  35
BRANCH  34  39
ATOM     39  O   UNL     1      -7.443  -1.951   1.650  1.00  0.00    -0.504 OA
ATOM     40  H   UNL     1      -7.285  -2.132   2.592  1.00  0.00     0.293 HD
ATOM     41 WAT  UNL     1      -7.600  -4.608   0.265  1.00  0.00     0.000 W 
ATOM     42 WAT  UNL     1      -9.756  -0.045   1.505  1.00  0.00     0.000 W 
ATOM     43 WAT  UNL     1      -6.961  -2.506   4.530  1.00  0.00     0.000 W 
ENDBRANCH  34  39
ENDBRANCH  28  29
ENDBRANCH  23  27
ENDBRANCH   1  23
TORSDOF 10
