MODEL 1
REMARK VINA RESULT:      -8.1      0.000      0.000
REMARK  Name = 9823887
REMARK                            x       y       z     vdW  Elec       q    Type
REMARK                         _______ _______ _______ _____ _____    ______ ____
ROOT
ATOM      1  O   LIG    1      182.659 181.114 173.816  0.00  0.00    -0.341 OA
ATOM      2  C   LIG    1      182.483 180.620 172.491  0.00  0.00    +0.282 C 
ATOM      3  C   LIG    1      181.163 181.121 171.904  0.00  0.00    +0.201 C 
ATOM      4  C   LIG    1      181.059 182.644 171.987  0.00  0.00    +0.179 C 
ATOM      5  C   LIG    1      181.412 183.147 173.386  0.00  0.00    +0.177 C 
ATOM     22  C   LIG    1      182.732 182.540 173.866  0.00  0.00    +0.178 C 
ENDROOT
BRANCH   5   6
ATOM      6  O   LIG    1      181.527 184.568 173.362  0.00  0.00    -0.386 OA
ATOM      7  H   LIG    1      180.665 184.943 173.613  0.00  0.00    +0.210 HD
ENDBRANCH   5   6
BRANCH   4   8
ATOM      8  O   LIG    1      179.719 183.046 171.698  0.00  0.00    -0.386 OA
ATOM      9  H   LIG    1      179.618 183.047 170.731  0.00  0.00    +0.210 HD
ENDBRANCH   4   8
BRANCH   3  10
ATOM     10  O   LIG    1      181.099 180.716 170.537  0.00  0.00    -0.384 OA
ATOM     11  H   LIG    1      181.938 180.957 170.111  0.00  0.00    +0.210 HD
ENDBRANCH   3  10
BRANCH   2  12
ATOM     12  O   LIG    1      182.444 179.195 172.508  0.00  0.00    -0.345 OA
BRANCH  12  13
ATOM     13  C   LIG    1      183.536 178.639 171.794  0.00  0.00    +0.190 C 
BRANCH  13  14
ATOM     14  C   LIG    1      183.160 177.269 171.328  0.00  0.00    +0.001 C 
ATOM     15  C   LIG    1      182.317 176.468 171.998  0.00  0.00    +0.006 C 
BRANCH  15  16
ATOM     16  C   LIG    1      181.907 175.119 171.571  0.00  0.00    -0.025 A 
ATOM     17  C   LIG    1      182.707 174.415 170.685  0.00  0.00    +0.008 A 
ATOM     18  C   LIG    1      182.318 173.138 170.281  0.00  0.00    +0.001 A 
ATOM     19  C   LIG    1      181.135 172.582 170.767  0.00  0.00    +0.000 A 
ATOM     20  C   LIG    1      180.340 173.303 171.658  0.00  0.00    +0.001 A 
ATOM     21  C   LIG    1      180.729 174.580 172.062  0.00  0.00    +0.008 A 
ENDBRANCH  15  16
ENDBRANCH  13  14
ENDBRANCH  12  13
ENDBRANCH   2  12
BRANCH  22  23
ATOM     23  C   LIG    1      183.047 182.936 175.305  0.00  0.00    +0.197 C 
BRANCH  23  24
ATOM     24  O   LIG    1      184.391 183.378 175.367  0.00  0.00    -0.346 OA
BRANCH  24  25
ATOM     25  C   LIG    1      184.483 184.797 175.319  0.00  0.00    +0.281 C 
ATOM     26  C   LIG    1      185.669 185.274 176.172  0.00  0.00    +0.201 C 
ATOM     27  C   LIG    1      187.015 184.996 175.494  0.00  0.00    +0.178 C 
ATOM     28  C   LIG    1      186.986 185.488 174.046  0.00  0.00    +0.171 C 
ATOM     29  C   LIG    1      185.778 184.923 173.310  0.00  0.00    +0.197 C 
ATOM     36  O   LIG    1      184.570 185.285 173.976  0.00  0.00    -0.346 OA
BRANCH  28  30
ATOM     30  O   LIG    1      188.188 185.114 173.386  0.00  0.00    -0.387 OA
ATOM     31  H   LIG    1      188.873 185.756 173.638  0.00  0.00    +0.210 HD
ENDBRANCH  28  30
BRANCH  27  32
ATOM     32  O   LIG    1      187.277 183.593 175.510  0.00  0.00    -0.386 OA
ATOM     33  H   LIG    1      188.029 183.443 176.108  0.00  0.00    +0.210 HD
ENDBRANCH  27  32
BRANCH  26  34
ATOM     34  O   LIG    1      185.526 186.677 176.381  0.00  0.00    -0.384 OA
ATOM     35  H   LIG    1      184.649 186.948 176.063  0.00  0.00    +0.210 HD
ENDBRANCH  26  34
ENDBRANCH  24  25
ENDBRANCH  23  24
ENDBRANCH  22  23
TORSDOF 13
ENDMDL
MODEL 2
REMARK VINA RESULT:      -8.0      1.253      1.688
REMARK  Name = 9823887
REMARK                            x       y       z     vdW  Elec       q    Type
REMARK                         _______ _______ _______ _____ _____    ______ ____
ROOT
ATOM      1  O   LIG    1      182.629 181.219 172.710  0.00  0.00    -0.341 OA
ATOM      2  C   LIG    1      181.513 181.267 171.824  0.00  0.00    +0.282 C 
ATOM      3  C   LIG    1      180.340 181.996 172.479  0.00  0.00    +0.201 C 
ATOM      4  C   LIG    1      180.754 183.377 172.983  0.00  0.00    +0.179 C 
ATOM      5  C   LIG    1      182.045 183.305 173.798  0.00  0.00    +0.177 C 
ATOM     22  C   LIG    1      183.120 182.518 173.044  0.00  0.00    +0.178 C 
ENDROOT
BRANCH   5   6
ATOM      6  O   LIG    1      182.518 184.626 174.051  0.00  0.00    -0.386 OA
ATOM      7  H   LIG    1      181.879 185.252 173.668  0.00  0.00    +0.210 HD
ENDBRANCH   5   6
BRANCH   4   8
ATOM      8  O   LIG    1      179.729 183.903 173.828  0.00  0.00    -0.386 OA
ATOM      9  H   LIG    1      179.570 183.253 174.533  0.00  0.00    +0.210 HD
ENDBRANCH   4   8
BRANCH   3  10
ATOM     10  O   LIG    1      179.303 182.137 171.509  0.00  0.00    -0.384 OA
ATOM     11  H   LIG    1      179.014 183.065 171.509  0.00  0.00    +0.210 HD
ENDBRANCH   3  10
BRANCH   2  12
ATOM     12  O   LIG    1      181.089 179.941 171.511  0.00  0.00    -0.345 OA
BRANCH  12  13
ATOM     13  C   LIG    1      181.511 179.016 172.500  0.00  0.00    +0.190 C 
BRANCH  13  14
ATOM     14  C   LIG    1      181.205 177.632 172.027  0.00  0.00    +0.001 C 
ATOM     15  C   LIG    1      182.099 176.632 172.046  0.00  0.00    +0.006 C 
BRANCH  15  16
ATOM     16  C   LIG    1      181.839 175.251 171.605  0.00  0.00    -0.025 A 
ATOM     17  C   LIG    1      182.679 174.667 170.669  0.00  0.00    +0.008 A 
ATOM     18  C   LIG    1      182.432 173.360 170.252  0.00  0.00    +0.001 A 
ATOM     19  C   LIG    1      181.349 172.653 170.773  0.00  0.00    +0.000 A 
ATOM     20  C   LIG    1      180.512 173.253 171.714  0.00  0.00    +0.001 A 
ATOM     21  C   LIG    1      180.759 174.561 172.132  0.00  0.00    +0.008 A 
ENDBRANCH  15  16
ENDBRANCH  13  14
ENDBRANCH  12  13
ENDBRANCH   2  12
BRANCH  22  23
ATOM     23  C   LIG    1      184.379 182.332 173.885  0.00  0.00    +0.197 C 
BRANCH  23  24
ATOM     24  O   LIG    1      185.306 183.345 173.538  0.00  0.00    -0.346 OA
BRANCH  24  25
ATOM     25  C   LIG    1      185.759 184.061 174.682  0.00  0.00    +0.281 C 
ATOM     26  C   LIG    1      187.294 184.129 174.683  0.00  0.00    +0.201 C 
ATOM     27  C   LIG    1      187.828 185.120 173.643  0.00  0.00    +0.178 C 
ATOM     28  C   LIG    1      187.095 186.457 173.764  0.00  0.00    +0.171 C 
ATOM     29  C   LIG    1      185.586 186.248 173.724  0.00  0.00    +0.197 C 
ATOM     36  O   LIG    1      185.174 185.365 174.765  0.00  0.00    -0.346 OA
BRANCH  28  30
ATOM     30  O   LIG    1      187.503 187.327 172.718  0.00  0.00    -0.387 OA
ATOM     31  H   LIG    1      187.102 188.197 172.887  0.00  0.00    +0.210 HD
ENDBRANCH  28  30
BRANCH  27  32
ATOM     32  O   LIG    1      187.628 184.590 172.333  0.00  0.00    -0.386 OA
ATOM     33  H   LIG    1      186.886 183.963 172.380  0.00  0.00    +0.210 HD
ENDBRANCH  27  32
BRANCH  26  34
ATOM     34  O   LIG    1      187.717 184.536 175.982  0.00  0.00    -0.384 OA
ATOM     35  H   LIG    1      187.718 185.507 176.016  0.00  0.00    +0.210 HD
ENDBRANCH  26  34
ENDBRANCH  24  25
ENDBRANCH  23  24
ENDBRANCH  22  23
TORSDOF 13
ENDMDL
MODEL 3
REMARK VINA RESULT:      -8.0      7.940      9.694
REMARK  Name = 9823887
REMARK                            x       y       z     vdW  Elec       q    Type
REMARK                         _______ _______ _______ _____ _____    ______ ____
ROOT
ATOM      1  O   LIG    1      184.489 187.708 167.674  0.00  0.00    -0.341 OA
ATOM      2  C   LIG    1      183.495 188.667 167.321  0.00  0.00    +0.282 C 
ATOM      3  C   LIG    1      183.210 189.601 168.498  0.00  0.00    +0.201 C 
ATOM      4  C   LIG    1      184.494 190.245 169.020  0.00  0.00    +0.179 C 
ATOM      5  C   LIG    1      185.589 189.202 169.235  0.00  0.00    +0.177 C 
ATOM     22  C   LIG    1      185.743 188.312 167.998  0.00  0.00    +0.178 C 
ENDROOT
BRANCH   5   6
ATOM      6  O   LIG    1      186.825 189.862 169.497  0.00  0.00    -0.386 OA
ATOM      7  H   LIG    1      186.631 190.671 170.001  0.00  0.00    +0.210 HD
ENDBRANCH   5   6
BRANCH   4   8
ATOM      8  O   LIG    1      184.233 190.876 170.275  0.00  0.00    -0.386 OA
ATOM      9  H   LIG    1      185.070 191.258 170.588  0.00  0.00    +0.210 HD
ENDBRANCH   4   8
BRANCH   3  10
ATOM     10  O   LIG    1      182.315 190.620 168.053  0.00  0.00    -0.384 OA
ATOM     11  H   LIG    1      181.712 190.832 168.784  0.00  0.00    +0.210 HD
ENDBRANCH   3  10
BRANCH   2  12
ATOM     12  O   LIG    1      182.280 187.999 166.985  0.00  0.00    -0.345 OA
BRANCH  12  13
ATOM     13  C   LIG    1      181.918 188.235 165.633  0.00  0.00    +0.190 C 
BRANCH  13  14
ATOM     14  C   LIG    1      181.065 187.103 165.159  0.00  0.00    +0.001 C 
ATOM     15  C   LIG    1      180.199 187.210 164.139  0.00  0.00    +0.006 C 
BRANCH  15  16
ATOM     16  C   LIG    1      179.350 186.120 163.628  0.00  0.00    -0.025 A 
ATOM     17  C   LIG    1      179.732 185.442 162.481  0.00  0.00    +0.008 A 
ATOM     18  C   LIG    1      178.928 184.411 161.998  0.00  0.00    +0.001 A 
ATOM     19  C   LIG    1      177.752 184.070 162.667  0.00  0.00    +0.000 A 
ATOM     20  C   LIG    1      177.380 184.761 163.820  0.00  0.00    +0.001 A 
ATOM     21  C   LIG    1      178.185 185.793 164.303  0.00  0.00    +0.008 A 
ENDBRANCH  15  16
ENDBRANCH  13  14
ENDBRANCH  12  13
ENDBRANCH   2  12
BRANCH  22  23
ATOM     23  C   LIG    1      186.749 187.189 168.231  0.00  0.00    +0.197 C 
BRANCH  23  24
ATOM     24  O   LIG    1      187.135 187.205 169.594  0.00  0.00    -0.346 OA
BRANCH  24  25
ATOM     25  C   LIG    1      186.858 185.965 170.236  0.00  0.00    +0.281 C 
ATOM     26  C   LIG    1      188.077 185.517 171.057  0.00  0.00    +0.201 C 
ATOM     27  C   LIG    1      188.240 186.338 172.340  0.00  0.00    +0.178 C 
ATOM     28  C   LIG    1      186.910 186.408 173.093  0.00  0.00    +0.171 C 
ATOM     29  C   LIG    1      185.796 186.888 172.172  0.00  0.00    +0.197 C 
ATOM     36  O   LIG    1      185.675 186.029 171.041  0.00  0.00    -0.346 OA
BRANCH  28  30
ATOM     30  O   LIG    1      187.035 187.273 174.213  0.00  0.00    -0.387 OA
ATOM     31  H   LIG    1      187.960 187.574 174.251  0.00  0.00    +0.210 HD
ENDBRANCH  28  30
BRANCH  27  32
ATOM     32  O   LIG    1      188.665 187.660 172.011  0.00  0.00    -0.386 OA
ATOM     33  H   LIG    1      189.314 187.588 171.290  0.00  0.00    +0.210 HD
ENDBRANCH  27  32
BRANCH  26  34
ATOM     34  O   LIG    1      187.901 184.144 171.394  0.00  0.00    -0.384 OA
ATOM     35  H   LIG    1      188.596 183.890 172.023  0.00  0.00    +0.210 HD
ENDBRANCH  26  34
ENDBRANCH  24  25
ENDBRANCH  23  24
ENDBRANCH  22  23
TORSDOF 13
ENDMDL
MODEL 4
REMARK VINA RESULT:      -7.9      5.562      9.633
REMARK  Name = 9823887
REMARK                            x       y       z     vdW  Elec       q    Type
REMARK                         _______ _______ _______ _____ _____    ______ ____
ROOT
ATOM      1  O   LIG    1      181.806 186.483 170.817  0.00  0.00    -0.341 OA
ATOM      2  C   LIG    1      180.393 186.666 170.863  0.00  0.00    +0.282 C 
ATOM      3  C   LIG    1      179.696 185.358 171.242  0.00  0.00    +0.201 C 
ATOM      4  C   LIG    1      180.261 184.782 172.539  0.00  0.00    +0.179 C 
ATOM      5  C   LIG    1      181.789 184.751 172.512  0.00  0.00    +0.177 C 
ATOM     22  C   LIG    1      182.352 186.107 172.082  0.00  0.00    +0.178 C 
ENDROOT
BRANCH   5   6
ATOM      6  O   LIG    1      182.278 184.427 173.811  0.00  0.00    -0.386 OA
ATOM      7  H   LIG    1      181.565 183.974 174.295  0.00  0.00    +0.210 HD
ENDBRANCH   5   6
BRANCH   4   8
ATOM      8  O   LIG    1      179.795 183.441 172.706  0.00  0.00    -0.386 OA
ATOM      9  H   LIG    1      178.824 183.470 172.711  0.00  0.00    +0.210 HD
ENDBRANCH   4   8
BRANCH   3  10
ATOM     10  O   LIG    1      178.304 185.626 171.408  0.00  0.00    -0.384 OA
ATOM     11  H   LIG    1      178.193 186.154 172.216  0.00  0.00    +0.210 HD
ENDBRANCH   3  10
BRANCH   2  12
ATOM     12  O   LIG    1      179.916 187.064 169.580  0.00  0.00    -0.345 OA
BRANCH  12  13
ATOM     13  C   LIG    1      179.756 188.472 169.501  0.00  0.00    +0.190 C 
BRANCH  13  14
ATOM     14  C   LIG    1      178.642 188.881 170.411  0.00  0.00    +0.001 C 
ATOM     15  C   LIG    1      178.386 190.159 170.733  0.00  0.00    +0.006 C 
BRANCH  15  16
ATOM     16  C   LIG    1      177.293 190.610 171.612  0.00  0.00    -0.025 A 
ATOM     17  C   LIG    1      177.500 190.663 172.981  0.00  0.00    +0.008 A 
ATOM     18  C   LIG    1      176.465 191.090 173.812  0.00  0.00    +0.001 A 
ATOM     19  C   LIG    1      175.236 191.458 173.264  0.00  0.00    +0.000 A 
ATOM     20  C   LIG    1      175.042 191.399 171.884  0.00  0.00    +0.001 A 
ATOM     21  C   LIG    1      176.078 190.972 171.053  0.00  0.00    +0.008 A 
ENDBRANCH  15  16
ENDBRANCH  13  14
ENDBRANCH  12  13
ENDBRANCH   2  12
BRANCH  22  23
ATOM     23  C   LIG    1      183.871 186.068 171.935  0.00  0.00    +0.197 C 
BRANCH  23  24
ATOM     24  O   LIG    1      184.446 185.975 173.226  0.00  0.00    -0.346 OA
BRANCH  24  25
ATOM     25  C   LIG    1      185.825 185.628 173.165  0.00  0.00    +0.281 C 
ATOM     26  C   LIG    1      186.448 185.714 174.567  0.00  0.00    +0.201 C 
ATOM     27  C   LIG    1      186.019 184.545 175.461  0.00  0.00    +0.178 C 
ATOM     28  C   LIG    1      186.207 183.220 174.721  0.00  0.00    +0.171 C 
ATOM     29  C   LIG    1      185.522 183.262 173.362  0.00  0.00    +0.197 C 
ATOM     36  O   LIG    1      186.029 184.338 172.577  0.00  0.00    -0.346 OA
BRANCH  28  30
ATOM     30  O   LIG    1      185.691 182.153 175.504  0.00  0.00    -0.387 OA
ATOM     31  H   LIG    1      184.912 181.799 175.041  0.00  0.00    +0.210 HD
ENDBRANCH  28  30
BRANCH  27  32
ATOM     32  O   LIG    1      184.646 184.695 175.817  0.00  0.00    -0.386 OA
ATOM     33  H   LIG    1      184.314 183.819 176.079  0.00  0.00    +0.210 HD
ENDBRANCH  27  32
BRANCH  26  34
ATOM     34  O   LIG    1      187.866 185.701 174.421  0.00  0.00    -0.384 OA
ATOM     35  H   LIG    1      188.145 186.556 174.054  0.00  0.00    +0.210 HD
ENDBRANCH  26  34
ENDBRANCH  24  25
ENDBRANCH  23  24
ENDBRANCH  22  23
TORSDOF 13
ENDMDL
MODEL 5
REMARK VINA RESULT:      -7.8      1.413      1.887
REMARK  Name = 9823887
REMARK                            x       y       z     vdW  Elec       q    Type
REMARK                         _______ _______ _______ _____ _____    ______ ____
ROOT
ATOM      1  O   LIG    1      183.109 182.081 172.363  0.00  0.00    -0.341 OA
ATOM      2  C   LIG    1      181.899 181.328 172.311  0.00  0.00    +0.282 C 
ATOM      3  C   LIG    1      180.800 182.024 173.116  0.00  0.00    +0.201 C 
ATOM      4  C   LIG    1      180.616 183.474 172.668  0.00  0.00    +0.179 C 
ATOM      5  C   LIG    1      181.956 184.202 172.583  0.00  0.00    +0.177 C 
ATOM     22  C   LIG    1      182.972 183.380 171.786  0.00  0.00    +0.178 C 
ENDROOT
BRANCH   5   6
ATOM      6  O   LIG    1      181.769 185.464 171.948  0.00  0.00    -0.386 OA
ATOM      7  H   LIG    1      182.586 185.682 171.467  0.00  0.00    +0.210 HD
ENDBRANCH   5   6
BRANCH   4   8
ATOM      8  O   LIG    1      179.798 184.163 173.615  0.00  0.00    -0.386 OA
ATOM      9  H   LIG    1      179.712 185.083 173.310  0.00  0.00    +0.210 HD
ENDBRANCH   4   8
BRANCH   3  10
ATOM     10  O   LIG    1      179.581 181.308 172.920  0.00  0.00    -0.384 OA
ATOM     11  H   LIG    1      179.700 180.409 173.269  0.00  0.00    +0.210 HD
ENDBRANCH   3  10
BRANCH   2  12
ATOM     12  O   LIG    1      182.110 180.037 172.878  0.00  0.00    -0.345 OA
BRANCH  12  13
ATOM     13  C   LIG    1      182.936 179.236 172.048  0.00  0.00    +0.190 C 
BRANCH  13  14
ATOM     14  C   LIG    1      182.424 177.832 172.068  0.00  0.00    +0.001 C 
ATOM     15  C   LIG    1      182.680 176.940 171.099  0.00  0.00    +0.006 C 
BRANCH  15  16
ATOM     16  C   LIG    1      182.209 175.545 171.083  0.00  0.00    -0.025 A 
ATOM     17  C   LIG    1      182.868 174.615 170.294  0.00  0.00    +0.008 A 
ATOM     18  C   LIG    1      182.422 173.294 170.280  0.00  0.00    +0.001 A 
ATOM     19  C   LIG    1      181.323 172.919 171.053  0.00  0.00    +0.000 A 
ATOM     20  C   LIG    1      180.670 173.866 171.841  0.00  0.00    +0.001 A 
ATOM     21  C   LIG    1      181.116 175.188 171.856  0.00  0.00    +0.008 A 
ENDBRANCH  15  16
ENDBRANCH  13  14
ENDBRANCH  12  13
ENDBRANCH   2  12
BRANCH  22  23
ATOM     23  C   LIG    1      184.352 184.032 171.786  0.00  0.00    +0.197 C 
BRANCH  23  24
ATOM     24  O   LIG    1      184.549 184.669 173.035  0.00  0.00    -0.346 OA
BRANCH  24  25
ATOM     25  C   LIG    1      185.722 185.475 173.037  0.00  0.00    +0.281 C 
ATOM     26  C   LIG    1      185.848 186.212 174.380  0.00  0.00    +0.201 C 
ATOM     27  C   LIG    1      186.285 185.277 175.512  0.00  0.00    +0.178 C 
ATOM     28  C   LIG    1      187.501 184.457 175.078  0.00  0.00    +0.171 C 
ATOM     29  C   LIG    1      187.234 183.762 173.749  0.00  0.00    +0.197 C 
ATOM     36  O   LIG    1      186.898 184.713 172.742  0.00  0.00    -0.346 OA
BRANCH  28  30
ATOM     30  O   LIG    1      187.824 183.504 176.081  0.00  0.00    -0.387 OA
ATOM     31  H   LIG    1      187.767 182.621 175.676  0.00  0.00    +0.210 HD
ENDBRANCH  28  30
BRANCH  27  32
ATOM     32  O   LIG    1      185.215 184.393 175.841  0.00  0.00    -0.386 OA
ATOM     33  H   LIG    1      185.600 183.515 176.008  0.00  0.00    +0.210 HD
ENDBRANCH  27  32
BRANCH  26  34
ATOM     34  O   LIG    1      186.813 187.249 174.224  0.00  0.00    -0.384 OA
ATOM     35  H   LIG    1      187.668 186.843 174.002  0.00  0.00    +0.210 HD
ENDBRANCH  26  34
ENDBRANCH  24  25
ENDBRANCH  23  24
ENDBRANCH  22  23
TORSDOF 13
ENDMDL
MODEL 6
REMARK VINA RESULT:      -7.8      5.766      8.065
REMARK  Name = 9823887
REMARK                            x       y       z     vdW  Elec       q    Type
REMARK                         _______ _______ _______ _____ _____    ______ ____
ROOT
ATOM      1  O   LIG    1      186.856 183.365 169.116  0.00  0.00    -0.341 OA
ATOM      2  C   LIG    1      188.022 182.873 168.460  0.00  0.00    +0.282 C 
ATOM      3  C   LIG    1      189.033 184.001 168.245  0.00  0.00    +0.201 C 
ATOM      4  C   LIG    1      189.350 184.721 169.555  0.00  0.00    +0.179 C 
ATOM      5  C   LIG    1      188.072 185.092 170.307  0.00  0.00    +0.177 C 
ATOM     22  C   LIG    1      187.137 183.885 170.417  0.00  0.00    +0.178 C 
ENDROOT
BRANCH   5   6
ATOM      6  O   LIG    1      188.409 185.547 171.615  0.00  0.00    -0.386 OA
ATOM      7  H   LIG    1      187.586 185.616 172.129  0.00  0.00    +0.210 HD
ENDBRANCH   5   6
BRANCH   4   8
ATOM      8  O   LIG    1      190.063 185.927 169.275  0.00  0.00    -0.386 OA
ATOM      9  H   LIG    1      190.016 186.484 170.070  0.00  0.00    +0.210 HD
ENDBRANCH   4   8
BRANCH   3  10
ATOM     10  O   LIG    1      190.230 183.434 167.713  0.00  0.00    -0.384 OA
ATOM     11  H   LIG    1      189.979 182.762 167.058  0.00  0.00    +0.210 HD
ENDBRANCH   3  10
BRANCH   2  12
ATOM     12  O   LIG    1      187.671 182.347 167.181  0.00  0.00    -0.345 OA
BRANCH  12  13
ATOM     13  C   LIG    1      186.519 181.523 167.260  0.00  0.00    +0.190 C 
BRANCH  13  14
ATOM     14  C   LIG    1      185.555 181.939 166.197  0.00  0.00    +0.001 C 
ATOM     15  C   LIG    1      185.889 182.053 164.902  0.00  0.00    +0.006 C 
BRANCH  15  16
ATOM     16  C   LIG    1      184.971 182.445 163.819  0.00  0.00    -0.025 A 
ATOM     17  C   LIG    1      183.614 182.198 163.956  0.00  0.00    +0.008 A 
ATOM     18  C   LIG    1      182.746 182.569 162.931  0.00  0.00    +0.001 A 
ATOM     19  C   LIG    1      183.244 183.182 161.781  0.00  0.00    +0.000 A 
ATOM     20  C   LIG    1      184.611 183.424 161.657  0.00  0.00    +0.001 A 
ATOM     21  C   LIG    1      185.481 183.053 162.683  0.00  0.00    +0.008 A 
ENDBRANCH  15  16
ENDBRANCH  13  14
ENDBRANCH  12  13
ENDBRANCH   2  12
BRANCH  22  23
ATOM     23  C   LIG    1      185.805 184.258 171.061  0.00  0.00    +0.197 C 
BRANCH  23  24
ATOM     24  O   LIG    1      186.058 184.762 172.360  0.00  0.00    -0.346 OA
BRANCH  24  25
ATOM     25  C   LIG    1      185.467 183.947 173.366  0.00  0.00    +0.281 C 
ATOM     26  C   LIG    1      186.539 183.500 174.373  0.00  0.00    +0.201 C 
ATOM     27  C   LIG    1      186.964 184.639 175.306  0.00  0.00    +0.178 C 
ATOM     28  C   LIG    1      185.730 185.323 175.896  0.00  0.00    +0.171 C 
ATOM     29  C   LIG    1      184.765 185.736 174.792  0.00  0.00    +0.197 C 
ATOM     36  O   LIG    1      184.375 184.605 174.017  0.00  0.00    -0.346 OA
BRANCH  28  30
ATOM     30  O   LIG    1      186.125 186.456 176.658  0.00  0.00    -0.387 OA
ATOM     31  H   LIG    1      187.092 186.533 176.590  0.00  0.00    +0.210 HD
ENDBRANCH  28  30
BRANCH  27  32
ATOM     32  O   LIG    1      187.729 185.595 174.575  0.00  0.00    -0.386 OA
ATOM     33  H   LIG    1      187.399 185.597 173.660  0.00  0.00    +0.210 HD
ENDBRANCH  27  32
BRANCH  26  34
ATOM     34  O   LIG    1      185.998 182.432 175.147  0.00  0.00    -0.384 OA
ATOM     35  H   LIG    1      186.011 182.693 176.082  0.00  0.00    +0.210 HD
ENDBRANCH  26  34
ENDBRANCH  24  25
ENDBRANCH  23  24
ENDBRANCH  22  23
TORSDOF 13
ENDMDL
MODEL 7
REMARK VINA RESULT:      -7.7      2.997      3.734
REMARK  Name = 9823887
REMARK                            x       y       z     vdW  Elec       q    Type
REMARK                         _______ _______ _______ _____ _____    ______ ____
ROOT
ATOM      1  O   LIG    1      182.545 181.098 173.460  0.00  0.00    -0.341 OA
ATOM      2  C   LIG    1      181.433 180.941 172.582  0.00  0.00    +0.282 C 
ATOM      3  C   LIG    1      180.273 181.837 173.020  0.00  0.00    +0.201 C 
ATOM      4  C   LIG    1      180.716 183.292 173.160  0.00  0.00    +0.179 C 
ATOM      5  C   LIG    1      182.003 183.404 173.976  0.00  0.00    +0.177 C 
ATOM     22  C   LIG    1      183.063 182.429 173.456  0.00  0.00    +0.178 C 
ENDROOT
BRANCH   5   6
ATOM      6  O   LIG    1      182.504 184.736 173.889  0.00  0.00    -0.386 OA
ATOM      7  H   LIG    1      182.920 184.956 174.740  0.00  0.00    +0.210 HD
ENDBRANCH   5   6
BRANCH   4   8
ATOM      8  O   LIG    1      179.700 184.037 173.834  0.00  0.00    -0.386 OA
ATOM      9  H   LIG    1      178.949 184.123 173.222  0.00  0.00    +0.210 HD
ENDBRANCH   4   8
BRANCH   3  10
ATOM     10  O   LIG    1      179.242 181.746 172.037  0.00  0.00    -0.384 OA
ATOM     11  H   LIG    1      179.317 182.518 171.451  0.00  0.00    +0.210 HD
ENDBRANCH   3  10
BRANCH   2  12
ATOM     12  O   LIG    1      180.981 179.589 172.613  0.00  0.00    -0.345 OA
BRANCH  12  13
ATOM     13  C   LIG    1      181.287 178.913 171.403  0.00  0.00    +0.190 C 
BRANCH  13  14
ATOM     14  C   LIG    1      180.073 178.917 170.530  0.00  0.00    +0.001 C 
ATOM     15  C   LIG    1      178.863 178.515 170.949  0.00  0.00    +0.006 C 
BRANCH  15  16
ATOM     16  C   LIG    1      177.638 178.514 170.130  0.00  0.00    -0.025 A 
ATOM     17  C   LIG    1      177.381 177.440 169.294  0.00  0.00    +0.008 A 
ATOM     18  C   LIG    1      176.222 177.440 168.519  0.00  0.00    +0.001 A 
ATOM     19  C   LIG    1      175.335 178.514 168.589  0.00  0.00    +0.000 A 
ATOM     20  C   LIG    1      175.607 179.589 169.435  0.00  0.00    +0.001 A 
ATOM     21  C   LIG    1      176.767 179.589 170.210  0.00  0.00    +0.008 A 
ENDBRANCH  15  16
ENDBRANCH  13  14
ENDBRANCH  12  13
ENDBRANCH   2  12
BRANCH  22  23
ATOM     23  C   LIG    1      184.316 182.439 174.327  0.00  0.00    +0.197 C 
BRANCH  23  24
ATOM     24  O   LIG    1      185.184 183.454 173.857  0.00  0.00    -0.346 OA
BRANCH  24  25
ATOM     25  C   LIG    1      185.702 184.241 174.923  0.00  0.00    +0.281 C 
ATOM     26  C   LIG    1      187.238 184.233 174.881  0.00  0.00    +0.201 C 
ATOM     27  C   LIG    1      187.788 185.104 173.746  0.00  0.00    +0.178 C 
ATOM     28  C   LIG    1      187.123 186.481 173.770  0.00  0.00    +0.171 C 
ATOM     29  C   LIG    1      185.606 186.345 173.785  0.00  0.00    +0.197 C 
ATOM     36  O   LIG    1      185.182 185.575 174.908  0.00  0.00    -0.346 OA
BRANCH  28  30
ATOM     30  O   LIG    1      187.541 187.239 172.642  0.00  0.00    -0.387 OA
ATOM     31  H   LIG    1      188.056 187.995 172.971  0.00  0.00    +0.210 HD
ENDBRANCH  28  30
BRANCH  27  32
ATOM     32  O   LIG    1      187.526 184.476 172.492  0.00  0.00    -0.386 OA
ATOM     33  H   LIG    1      188.290 184.646 171.914  0.00  0.00    +0.210 HD
ENDBRANCH  27  32
BRANCH  26  34
ATOM     34  O   LIG    1      187.716 184.728 176.129  0.00  0.00    -0.384 OA
ATOM     35  H   LIG    1      187.837 183.975 176.732  0.00  0.00    +0.210 HD
ENDBRANCH  26  34
ENDBRANCH  24  25
ENDBRANCH  23  24
ENDBRANCH  22  23
TORSDOF 13
ENDMDL
MODEL 8
REMARK VINA RESULT:      -7.6      3.988      6.474
REMARK  Name = 9823887
REMARK                            x       y       z     vdW  Elec       q    Type
REMARK                         _______ _______ _______ _____ _____    ______ ____
ROOT
ATOM      1  O   LIG    1      184.630 184.775 173.508  0.00  0.00    -0.341 OA
ATOM      2  C   LIG    1      184.574 183.743 174.490  0.00  0.00    +0.282 C 
ATOM      3  C   LIG    1      185.909 182.999 174.561  0.00  0.00    +0.201 C 
ATOM      4  C   LIG    1      187.073 183.964 174.781  0.00  0.00    +0.179 C 
ATOM      5  C   LIG    1      187.007 185.143 173.811  0.00  0.00    +0.177 C 
ATOM     22  C   LIG    1      185.610 185.769 173.811  0.00  0.00    +0.178 C 
ENDROOT
BRANCH   5   6
ATOM      6  O   LIG    1      187.964 186.126 174.196  0.00  0.00    -0.386 OA
ATOM      7  H   LIG    1      187.573 187.003 174.040  0.00  0.00    +0.210 HD
ENDBRANCH   5   6
BRANCH   4   8
ATOM      8  O   LIG    1      188.307 183.279 174.560  0.00  0.00    -0.386 OA
ATOM      9  H   LIG    1      188.787 183.761 173.865  0.00  0.00    +0.210 HD
ENDBRANCH   4   8
BRANCH   3  10
ATOM     10  O   LIG    1      185.847 182.074 175.647  0.00  0.00    -0.384 OA
ATOM     11  H   LIG    1      186.754 181.912 175.956  0.00  0.00    +0.210 HD
ENDBRANCH   3  10
BRANCH   2  12
ATOM     12  O   LIG    1      183.562 182.800 174.143  0.00  0.00    -0.345 OA
BRANCH  12  13
ATOM     13  C   LIG    1      182.312 183.149 174.715  0.00  0.00    +0.190 C 
BRANCH  13  14
ATOM     14  C   LIG    1      181.237 182.914 173.704  0.00  0.00    +0.001 C 
ATOM     15  C   LIG    1      181.121 181.776 173.002  0.00  0.00    +0.006 C 
BRANCH  15  16
ATOM     16  C   LIG    1      180.071 181.495 172.008  0.00  0.00    -0.025 A 
ATOM     17  C   LIG    1      179.896 182.362 170.941  0.00  0.00    +0.008 A 
ATOM     18  C   LIG    1      178.902 182.095 170.000  0.00  0.00    +0.001 A 
ATOM     19  C   LIG    1      178.096 180.966 170.137  0.00  0.00    +0.000 A 
ATOM     20  C   LIG    1      178.283 180.102 171.216  0.00  0.00    +0.001 A 
ATOM     21  C   LIG    1      179.278 180.369 172.158  0.00  0.00    +0.008 A 
ENDBRANCH  15  16
ENDBRANCH  13  14
ENDBRANCH  12  13
ENDBRANCH   2  12
BRANCH  22  23
ATOM     23  C   LIG    1      185.485 186.873 172.766  0.00  0.00    +0.197 C 
BRANCH  23  24
ATOM     24  O   LIG    1      186.193 186.477 171.605  0.00  0.00    -0.346 OA
BRANCH  24  25
ATOM     25  C   LIG    1      185.335 186.370 170.474  0.00  0.00    +0.281 C 
ATOM     26  C   LIG    1      184.801 187.759 170.090  0.00  0.00    +0.201 C 
ATOM     27  C   LIG    1      185.870 188.620 169.410  0.00  0.00    +0.178 C 
ATOM     28  C   LIG    1      186.551 187.829 168.292  0.00  0.00    +0.171 C 
ATOM     29  C   LIG    1      187.054 186.488 168.813  0.00  0.00    +0.197 C 
ATOM     36  O   LIG    1      185.982 185.731 169.368  0.00  0.00    -0.346 OA
BRANCH  28  30
ATOM     30  O   LIG    1      187.625 188.585 167.751  0.00  0.00    -0.387 OA
ATOM     31  H   LIG    1      188.449 188.105 167.943  0.00  0.00    +0.210 HD
ENDBRANCH  28  30
BRANCH  27  32
ATOM     32  O   LIG    1      186.849 189.014 170.371  0.00  0.00    -0.386 OA
ATOM     33  H   LIG    1      186.643 188.555 171.204  0.00  0.00    +0.210 HD
ENDBRANCH  27  32
BRANCH  26  34
ATOM     34  O   LIG    1      183.703 187.578 169.199  0.00  0.00    -0.384 OA
ATOM     35  H   LIG    1      183.034 187.031 169.643  0.00  0.00    +0.210 HD
ENDBRANCH  26  34
ENDBRANCH  24  25
ENDBRANCH  23  24
ENDBRANCH  22  23
TORSDOF 13
ENDMDL
MODEL 9
REMARK VINA RESULT:      -7.6      3.013      6.008
REMARK  Name = 9823887
REMARK                            x       y       z     vdW  Elec       q    Type
REMARK                         _______ _______ _______ _____ _____    ______ ____
ROOT
ATOM      1  O   LIG    1      185.018 184.713 172.952  0.00  0.00    -0.341 OA
ATOM      2  C   LIG    1      184.786 183.799 174.021  0.00  0.00    +0.282 C 
ATOM      3  C   LIG    1      186.069 183.041 174.366  0.00  0.00    +0.201 C 
ATOM      4  C   LIG    1      187.223 184.002 174.648  0.00  0.00    +0.179 C 
ATOM      5  C   LIG    1      187.339 185.065 173.557  0.00  0.00    +0.177 C 
ATOM     22  C   LIG    1      185.980 185.715 173.286  0.00  0.00    +0.178 C 
ENDROOT
BRANCH   5   6
ATOM      6  O   LIG    1      188.266 186.066 173.969  0.00  0.00    -0.386 OA
ATOM      7  H   LIG    1      188.284 186.758 173.285  0.00  0.00    +0.210 HD
ENDBRANCH   5   6
BRANCH   4   8
ATOM      8  O   LIG    1      188.451 183.272 174.685  0.00  0.00    -0.386 OA
ATOM      9  H   LIG    1      188.533 182.797 173.840  0.00  0.00    +0.210 HD
ENDBRANCH   4   8
BRANCH   3  10
ATOM     10  O   LIG    1      185.820 182.245 175.524  0.00  0.00    -0.384 OA
ATOM     11  H   LIG    1      185.423 182.817 176.203  0.00  0.00    +0.210 HD
ENDBRANCH   3  10
BRANCH   2  12
ATOM     12  O   LIG    1      183.801 182.843 173.634  0.00  0.00    -0.345 OA
BRANCH  12  13
ATOM     13  C   LIG    1      182.546 183.462 173.395  0.00  0.00    +0.190 C 
BRANCH  13  14
ATOM     14  C   LIG    1      181.506 182.399 173.245  0.00  0.00    +0.001 C 
ATOM     15  C   LIG    1      181.723 181.240 172.604  0.00  0.00    +0.006 C 
BRANCH  15  16
ATOM     16  C   LIG    1      180.734 180.160 172.445  0.00  0.00    -0.025 A 
ATOM     17  C   LIG    1      179.395 180.482 172.294  0.00  0.00    +0.008 A 
ATOM     18  C   LIG    1      178.460 179.459 172.142  0.00  0.00    +0.001 A 
ATOM     19  C   LIG    1      178.875 178.127 172.145  0.00  0.00    +0.000 A 
ATOM     20  C   LIG    1      180.226 177.818 172.298  0.00  0.00    +0.001 A 
ATOM     21  C   LIG    1      181.162 178.842 172.449  0.00  0.00    +0.008 A 
ENDBRANCH  15  16
ENDBRANCH  13  14
ENDBRANCH  12  13
ENDBRANCH   2  12
BRANCH  22  23
ATOM     23  C   LIG    1      186.045 186.697 172.120  0.00  0.00    +0.197 C 
BRANCH  23  24
ATOM     24  O   LIG    1      187.145 186.349 171.299  0.00  0.00    -0.346 OA
BRANCH  24  25
ATOM     25  C   LIG    1      186.728 185.956 169.996  0.00  0.00    +0.281 C 
ATOM     26  C   LIG    1      187.807 186.329 168.967  0.00  0.00    +0.201 C 
ATOM     27  C   LIG    1      189.022 185.398 169.042  0.00  0.00    +0.178 C 
ATOM     28  C   LIG    1      188.567 183.938 169.041  0.00  0.00    +0.171 C 
ATOM     29  C   LIG    1      187.519 183.701 170.121  0.00  0.00    +0.197 C 
ATOM     36  O   LIG    1      186.400 184.564 169.934  0.00  0.00    -0.346 OA
BRANCH  28  30
ATOM     30  O   LIG    1      189.685 183.084 169.239  0.00  0.00    -0.387 OA
ATOM     31  H   LIG    1      189.855 183.039 170.196  0.00  0.00    +0.210 HD
ENDBRANCH  28  30
BRANCH  27  32
ATOM     32  O   LIG    1      189.753 185.663 170.239  0.00  0.00    -0.386 OA
ATOM     33  H   LIG    1      189.120 185.650 170.977  0.00  0.00    +0.210 HD
ENDBRANCH  27  32
BRANCH  26  34
ATOM     34  O   LIG    1      187.226 186.243 167.668  0.00  0.00    -0.384 OA
ATOM     35  H   LIG    1      187.878 186.553 167.018  0.00  0.00    +0.210 HD
ENDBRANCH  26  34
ENDBRANCH  24  25
ENDBRANCH  23  24
ENDBRANCH  22  23
TORSDOF 13
ENDMDL
MODEL 10
REMARK VINA RESULT:      -7.6      5.597      7.616
REMARK  Name = 9823887
REMARK                            x       y       z     vdW  Elec       q    Type
REMARK                         _______ _______ _______ _____ _____    ______ ____
ROOT
ATOM      1  O   LIG    1      181.916 186.265 170.425  0.00  0.00    -0.341 OA
ATOM      2  C   LIG    1      180.497 186.384 170.351  0.00  0.00    +0.282 C 
ATOM      3  C   LIG    1      179.826 185.093 170.824  0.00  0.00    +0.201 C 
ATOM      4  C   LIG    1      180.315 184.689 172.214  0.00  0.00    +0.179 C 
ATOM      5  C   LIG    1      181.840 184.728 172.298  0.00  0.00    +0.177 C 
ATOM     22  C   LIG    1      182.380 186.055 171.759  0.00  0.00    +0.178 C 
ENDROOT
BRANCH   5   6
ATOM      6  O   LIG    1      182.242 184.572 173.657  0.00  0.00    -0.386 OA
ATOM      7  H   LIG    1      181.551 184.064 174.117  0.00  0.00    +0.210 HD
ENDBRANCH   5   6
BRANCH   4   8
ATOM      8  O   LIG    1      179.891 183.354 172.498  0.00  0.00    -0.386 OA
ATOM      9  H   LIG    1      180.479 183.002 173.187  0.00  0.00    +0.210 HD
ENDBRANCH   4   8
BRANCH   3  10
ATOM     10  O   LIG    1      178.416 185.311 170.861  0.00  0.00    -0.384 OA
ATOM     11  H   LIG    1      178.074 184.933 171.689  0.00  0.00    +0.210 HD
ENDBRANCH   3  10
BRANCH   2  12
ATOM     12  O   LIG    1      180.102 186.616 169.001  0.00  0.00    -0.345 OA
BRANCH  12  13
ATOM     13  C   LIG    1      180.854 185.821 168.098  0.00  0.00    +0.190 C 
BRANCH  13  14
ATOM     14  C   LIG    1      180.020 185.548 166.887  0.00  0.00    +0.001 C 
ATOM     15  C   LIG    1      180.538 185.192 165.701  0.00  0.00    +0.006 C 
BRANCH  15  16
ATOM     16  C   LIG    1      179.756 184.899 164.487  0.00  0.00    -0.025 A 
ATOM     17  C   LIG    1      178.751 183.947 164.540  0.00  0.00    +0.008 A 
ATOM     18  C   LIG    1      178.012 183.670 163.390  0.00  0.00    +0.001 A 
ATOM     19  C   LIG    1      178.287 184.348 162.203  0.00  0.00    +0.000 A 
ATOM     20  C   LIG    1      179.302 185.304 162.165  0.00  0.00    +0.001 A 
ATOM     21  C   LIG    1      180.042 185.581 163.315  0.00  0.00    +0.008 A 
ENDBRANCH  15  16
ENDBRANCH  13  14
ENDBRANCH  12  13
ENDBRANCH   2  12
BRANCH  22  23
ATOM     23  C   LIG    1      183.905 186.072 171.725  0.00  0.00    +0.197 C 
BRANCH  23  24
ATOM     24  O   LIG    1      184.387 185.997 173.054  0.00  0.00    -0.346 OA
BRANCH  24  25
ATOM     25  C   LIG    1      185.782 185.717 173.095  0.00  0.00    +0.281 C 
ATOM     26  C   LIG    1      186.300 185.852 174.535  0.00  0.00    +0.201 C 
ATOM     27  C   LIG    1      185.867 184.676 175.417  0.00  0.00    +0.178 C 
ATOM     28  C   LIG    1      186.170 183.351 174.714  0.00  0.00    +0.171 C 
ATOM     29  C   LIG    1      185.581 183.341 173.309  0.00  0.00    +0.197 C 
ATOM     36  O   LIG    1      186.088 184.431 172.544  0.00  0.00    -0.346 OA
BRANCH  28  30
ATOM     30  O   LIG    1      185.652 182.271 175.477  0.00  0.00    -0.387 OA
ATOM     31  H   LIG    1      186.279 181.531 175.402  0.00  0.00    +0.210 HD
ENDBRANCH  28  30
BRANCH  27  32
ATOM     32  O   LIG    1      184.467 184.762 175.674  0.00  0.00    -0.386 OA
ATOM     33  H   LIG    1      184.134 183.856 175.791  0.00  0.00    +0.210 HD
ENDBRANCH  27  32
BRANCH  26  34
ATOM     34  O   LIG    1      187.724 185.907 174.488  0.00  0.00    -0.384 OA
ATOM     35  H   LIG    1      188.035 185.276 173.818  0.00  0.00    +0.210 HD
ENDBRANCH  26  34
ENDBRANCH  24  25
ENDBRANCH  23  24
ENDBRANCH  22  23
TORSDOF 13
ENDMDL
