REMARK VINA RESULT:      -7.9      5.562      9.633
REMARK  Name = 9823887
REMARK                            x       y       z     vdW  Elec       q    Type
REMARK                         _______ _______ _______ _____ _____    ______ ____
ROOT
ATOM      1  O   LIG    1      181.806 186.483 170.817  0.00  0.00    -0.341 OA
ATOM      2  C   LIG    1      180.393 186.666 170.863  0.00  0.00    +0.282 C 
ATOM      3  C   LIG    1      179.696 185.358 171.242  0.00  0.00    +0.201 C 
ATOM      4  C   LIG    1      180.261 184.782 172.539  0.00  0.00    +0.179 C 
ATOM      5  C   LIG    1      181.789 184.751 172.512  0.00  0.00    +0.177 C 
ATOM     22  C   LIG    1      182.352 186.107 172.082  0.00  0.00    +0.178 C 
ENDROOT
BRANCH   5   6
ATOM      6  O   LIG    1      182.278 184.427 173.811  0.00  0.00    -0.386 OA
ATOM      7  H   LIG    1      181.565 183.974 174.295  0.00  0.00    +0.210 HD
ENDBRANCH   5   6
BRANCH   4   8
ATOM      8  O   LIG    1      179.795 183.441 172.706  0.00  0.00    -0.386 OA
ATOM      9  H   LIG    1      178.824 183.470 172.711  0.00  0.00    +0.210 HD
ENDBRANCH   4   8
BRANCH   3  10
ATOM     10  O   LIG    1      178.304 185.626 171.408  0.00  0.00    -0.384 OA
ATOM     11  H   LIG    1      178.193 186.154 172.216  0.00  0.00    +0.210 HD
ENDBRANCH   3  10
BRANCH   2  12
ATOM     12  O   LIG    1      179.916 187.064 169.580  0.00  0.00    -0.345 OA
BRANCH  12  13
ATOM     13  C   LIG    1      179.756 188.472 169.501  0.00  0.00    +0.190 C 
BRANCH  13  14
ATOM     14  C   LIG    1      178.642 188.881 170.411  0.00  0.00    +0.001 C 
ATOM     15  C   LIG    1      178.386 190.159 170.733  0.00  0.00    +0.006 C 
BRANCH  15  16
ATOM     16  C   LIG    1      177.293 190.610 171.612  0.00  0.00    -0.025 A 
ATOM     17  C   LIG    1      177.500 190.663 172.981  0.00  0.00    +0.008 A 
ATOM     18  C   LIG    1      176.465 191.090 173.812  0.00  0.00    +0.001 A 
ATOM     19  C   LIG    1      175.236 191.458 173.264  0.00  0.00    +0.000 A 
ATOM     20  C   LIG    1      175.042 191.399 171.884  0.00  0.00    +0.001 A 
ATOM     21  C   LIG    1      176.078 190.972 171.053  0.00  0.00    +0.008 A 
ENDBRANCH  15  16
ENDBRANCH  13  14
ENDBRANCH  12  13
ENDBRANCH   2  12
BRANCH  22  23
ATOM     23  C   LIG    1      183.871 186.068 171.935  0.00  0.00    +0.197 C 
BRANCH  23  24
ATOM     24  O   LIG    1      184.446 185.975 173.226  0.00  0.00    -0.346 OA
BRANCH  24  25
ATOM     25  C   LIG    1      185.825 185.628 173.165  0.00  0.00    +0.281 C 
ATOM     26  C   LIG    1      186.448 185.714 174.567  0.00  0.00    +0.201 C 
ATOM     27  C   LIG    1      186.019 184.545 175.461  0.00  0.00    +0.178 C 
ATOM     28  C   LIG    1      186.207 183.220 174.721  0.00  0.00    +0.171 C 
ATOM     29  C   LIG    1      185.522 183.262 173.362  0.00  0.00    +0.197 C 
ATOM     36  O   LIG    1      186.029 184.338 172.577  0.00  0.00    -0.346 OA
BRANCH  28  30
ATOM     30  O   LIG    1      185.691 182.153 175.504  0.00  0.00    -0.387 OA
ATOM     31  H   LIG    1      184.912 181.799 175.041  0.00  0.00    +0.210 HD
ENDBRANCH  28  30
BRANCH  27  32
ATOM     32  O   LIG    1      184.646 184.695 175.817  0.00  0.00    -0.386 OA
ATOM     33  H   LIG    1      184.314 183.819 176.079  0.00  0.00    +0.210 HD
ENDBRANCH  27  32
BRANCH  26  34
ATOM     34  O   LIG    1      187.866 185.701 174.421  0.00  0.00    -0.384 OA
ATOM     35  H   LIG    1      188.145 186.556 174.054  0.00  0.00    +0.210 HD
ENDBRANCH  26  34
ENDBRANCH  24  25
ENDBRANCH  23  24
ENDBRANCH  22  23
TORSDOF 13
