REMARK VINA RESULT:      -8.0      7.940      9.694
REMARK  Name = 9823887
REMARK                            x       y       z     vdW  Elec       q    Type
REMARK                         _______ _______ _______ _____ _____    ______ ____
ROOT
ATOM      1  O   LIG    1      184.489 187.708 167.674  0.00  0.00    -0.341 OA
ATOM      2  C   LIG    1      183.495 188.667 167.321  0.00  0.00    +0.282 C 
ATOM      3  C   LIG    1      183.210 189.601 168.498  0.00  0.00    +0.201 C 
ATOM      4  C   LIG    1      184.494 190.245 169.020  0.00  0.00    +0.179 C 
ATOM      5  C   LIG    1      185.589 189.202 169.235  0.00  0.00    +0.177 C 
ATOM     22  C   LIG    1      185.743 188.312 167.998  0.00  0.00    +0.178 C 
ENDROOT
BRANCH   5   6
ATOM      6  O   LIG    1      186.825 189.862 169.497  0.00  0.00    -0.386 OA
ATOM      7  H   LIG    1      186.631 190.671 170.001  0.00  0.00    +0.210 HD
ENDBRANCH   5   6
BRANCH   4   8
ATOM      8  O   LIG    1      184.233 190.876 170.275  0.00  0.00    -0.386 OA
ATOM      9  H   LIG    1      185.070 191.258 170.588  0.00  0.00    +0.210 HD
ENDBRANCH   4   8
BRANCH   3  10
ATOM     10  O   LIG    1      182.315 190.620 168.053  0.00  0.00    -0.384 OA
ATOM     11  H   LIG    1      181.712 190.832 168.784  0.00  0.00    +0.210 HD
ENDBRANCH   3  10
BRANCH   2  12
ATOM     12  O   LIG    1      182.280 187.999 166.985  0.00  0.00    -0.345 OA
BRANCH  12  13
ATOM     13  C   LIG    1      181.918 188.235 165.633  0.00  0.00    +0.190 C 
BRANCH  13  14
ATOM     14  C   LIG    1      181.065 187.103 165.159  0.00  0.00    +0.001 C 
ATOM     15  C   LIG    1      180.199 187.210 164.139  0.00  0.00    +0.006 C 
BRANCH  15  16
ATOM     16  C   LIG    1      179.350 186.120 163.628  0.00  0.00    -0.025 A 
ATOM     17  C   LIG    1      179.732 185.442 162.481  0.00  0.00    +0.008 A 
ATOM     18  C   LIG    1      178.928 184.411 161.998  0.00  0.00    +0.001 A 
ATOM     19  C   LIG    1      177.752 184.070 162.667  0.00  0.00    +0.000 A 
ATOM     20  C   LIG    1      177.380 184.761 163.820  0.00  0.00    +0.001 A 
ATOM     21  C   LIG    1      178.185 185.793 164.303  0.00  0.00    +0.008 A 
ENDBRANCH  15  16
ENDBRANCH  13  14
ENDBRANCH  12  13
ENDBRANCH   2  12
BRANCH  22  23
ATOM     23  C   LIG    1      186.749 187.189 168.231  0.00  0.00    +0.197 C 
BRANCH  23  24
ATOM     24  O   LIG    1      187.135 187.205 169.594  0.00  0.00    -0.346 OA
BRANCH  24  25
ATOM     25  C   LIG    1      186.858 185.965 170.236  0.00  0.00    +0.281 C 
ATOM     26  C   LIG    1      188.077 185.517 171.057  0.00  0.00    +0.201 C 
ATOM     27  C   LIG    1      188.240 186.338 172.340  0.00  0.00    +0.178 C 
ATOM     28  C   LIG    1      186.910 186.408 173.093  0.00  0.00    +0.171 C 
ATOM     29  C   LIG    1      185.796 186.888 172.172  0.00  0.00    +0.197 C 
ATOM     36  O   LIG    1      185.675 186.029 171.041  0.00  0.00    -0.346 OA
BRANCH  28  30
ATOM     30  O   LIG    1      187.035 187.273 174.213  0.00  0.00    -0.387 OA
ATOM     31  H   LIG    1      187.960 187.574 174.251  0.00  0.00    +0.210 HD
ENDBRANCH  28  30
BRANCH  27  32
ATOM     32  O   LIG    1      188.665 187.660 172.011  0.00  0.00    -0.386 OA
ATOM     33  H   LIG    1      189.314 187.588 171.290  0.00  0.00    +0.210 HD
ENDBRANCH  27  32
BRANCH  26  34
ATOM     34  O   LIG    1      187.901 184.144 171.394  0.00  0.00    -0.384 OA
ATOM     35  H   LIG    1      188.596 183.890 172.023  0.00  0.00    +0.210 HD
ENDBRANCH  26  34
ENDBRANCH  24  25
ENDBRANCH  23  24
ENDBRANCH  22  23
TORSDOF 13
