MODEL 1
REMARK VINA RESULT:      -5.9      0.000      0.000
REMARK  5 active torsions:
REMARK  status: ('A' for Active; 'I' for Inactive)
REMARK    1  A    between atoms: C_3  and  O_1 
REMARK    2  A    between atoms: C_4  and  O_14 
REMARK    3  A    between atoms: C_7  and  C_8 
REMARK    4  A    between atoms: C_9  and  C_10 
REMARK    5  A    between atoms: C_10  and  O_12 
ROOT
ATOM      1  C   LIG     1     162.554 159.457 141.265  0.00  0.00     0.162 A 
ATOM      2  C   LIG     1     161.803 160.272 142.113  0.00  0.00     0.158 A 
ATOM      3  C   LIG     1     160.469 160.546 141.814  0.00  0.00     0.050 A 
ATOM      4  C   LIG     1     159.885 160.006 140.667  0.00  0.00     0.012 A 
ATOM      5  C   LIG     1     160.636 159.193 139.820  0.00  0.00    -0.021 A 
ATOM      6  C   LIG     1     161.970 158.917 140.118  0.00  0.00     0.057 A 
ENDROOT
BRANCH   5   7
ATOM      7  C   LIG     1     160.027 158.629 138.626  0.00  0.00     0.015 C 
ATOM      8  C   LIG     1     160.195 157.363 138.185  0.00  0.00     0.092 C 
BRANCH   8   9
ATOM      9  C   LIG     1     159.511 156.908 136.958  0.00  0.00     0.330 C 
ATOM     10  O   LIG     1     160.045 156.537 135.926  0.00  0.00    -0.246 OA
BRANCH   9  11
ATOM     11  O   LIG     1     158.174 156.966 137.160  0.00  0.00    -0.478 OA
ATOM     12  H   LIG     1     157.755 156.081 137.101  0.00  0.00     0.295 HD
ENDBRANCH   9  11
ENDBRANCH   8   9
ENDBRANCH   5   7
BRANCH   1  13
ATOM     13  O   LIG     1     163.859 159.183 141.545  0.00  0.00    -0.491 OA
ATOM     14  C   LIG     1     164.844 159.957 140.864  0.00  0.00     0.277 C 
ENDBRANCH   1  13
BRANCH   2  15
ATOM     15  O   LIG     1     162.362 160.805 143.234  0.00  0.00    -0.503 OA
ATOM     16  H   LIG     1     162.601 160.084 143.842  0.00  0.00     0.292 HD
ENDBRANCH   2  15
TORSDOF 5
ENDMDL
MODEL 2
REMARK VINA RESULT:      -5.7      4.564      8.033
REMARK  5 active torsions:
REMARK  status: ('A' for Active; 'I' for Inactive)
REMARK    1  A    between atoms: C_3  and  O_1 
REMARK    2  A    between atoms: C_4  and  O_14 
REMARK    3  A    between atoms: C_7  and  C_8 
REMARK    4  A    between atoms: C_9  and  C_10 
REMARK    5  A    between atoms: C_10  and  O_12 
ROOT
ATOM      1  C   LIG     1     162.767 157.581 132.386  0.00  0.00     0.162 A 
ATOM      2  C   LIG     1     162.491 156.661 131.375  0.00  0.00     0.158 A 
ATOM      3  C   LIG     1     161.636 155.588 131.623  0.00  0.00     0.050 A 
ATOM      4  C   LIG     1     161.055 155.435 132.883  0.00  0.00     0.012 A 
ATOM      5  C   LIG     1     161.331 156.355 133.893  0.00  0.00    -0.021 A 
ATOM      6  C   LIG     1     162.187 157.429 133.646  0.00  0.00     0.057 A 
ENDROOT
BRANCH   5   7
ATOM      7  C   LIG     1     160.725 156.197 135.205  0.00  0.00     0.015 C 
ATOM      8  C   LIG     1     160.511 157.193 136.094  0.00  0.00     0.092 C 
BRANCH   8   9
ATOM      9  C   LIG     1     159.876 156.903 137.394  0.00  0.00     0.330 C 
ATOM     10  O   LIG     1     158.967 157.530 137.913  0.00  0.00    -0.246 OA
BRANCH   9  11
ATOM     11  O   LIG     1     160.468 155.811 137.932  0.00  0.00    -0.478 OA
ATOM     12  H   LIG     1     159.830 155.079 138.073  0.00  0.00     0.295 HD
ENDBRANCH   9  11
ENDBRANCH   8   9
ENDBRANCH   5   7
BRANCH   1  13
ATOM     13  O   LIG     1     163.602 158.633 132.156  0.00  0.00    -0.491 OA
ATOM     14  C   LIG     1     163.020 159.935 132.159  0.00  0.00     0.277 C 
ENDBRANCH   1  13
BRANCH   2  15
ATOM     15  O   LIG     1     163.053 156.798 130.141  0.00  0.00    -0.503 OA
ATOM     16  H   LIG     1     163.342 155.925 129.826  0.00  0.00     0.292 HD
ENDBRANCH   2  15
TORSDOF 5
ENDMDL
MODEL 3
REMARK VINA RESULT:      -5.5      4.397      8.484
REMARK  5 active torsions:
REMARK  status: ('A' for Active; 'I' for Inactive)
REMARK    1  A    between atoms: C_3  and  O_1 
REMARK    2  A    between atoms: C_4  and  O_14 
REMARK    3  A    between atoms: C_7  and  C_8 
REMARK    4  A    between atoms: C_9  and  C_10 
REMARK    5  A    between atoms: C_10  and  O_12 
ROOT
ATOM      1  C   LIG     1     161.442 154.870 132.340  0.00  0.00     0.162 A 
ATOM      2  C   LIG     1     162.112 155.775 131.516  0.00  0.00     0.158 A 
ATOM      3  C   LIG     1     162.498 157.018 132.014  0.00  0.00     0.050 A 
ATOM      4  C   LIG     1     162.214 157.359 133.337  0.00  0.00     0.012 A 
ATOM      5  C   LIG     1     161.544 156.455 134.160  0.00  0.00    -0.021 A 
ATOM      6  C   LIG     1     161.157 155.211 133.663  0.00  0.00     0.057 A 
ENDROOT
BRANCH   5   7
ATOM      7  C   LIG     1     161.248 156.809 135.539  0.00  0.00     0.015 C 
ATOM      8  C   LIG     1     160.051 156.653 136.148  0.00  0.00     0.092 C 
BRANCH   8   9
ATOM      9  C   LIG     1     159.882 157.044 137.561  0.00  0.00     0.330 C 
ATOM     10  O   LIG     1     159.409 158.091 137.972  0.00  0.00    -0.246 OA
BRANCH   9  11
ATOM     11  O   LIG     1     160.340 156.042 138.347  0.00  0.00    -0.478 OA
ATOM     12  H   LIG     1     160.375 155.186 137.868  0.00  0.00     0.295 HD
ENDBRANCH   9  11
ENDBRANCH   8   9
ENDBRANCH   5   7
BRANCH   1  13
ATOM     13  O   LIG     1     161.059 153.652 131.863  0.00  0.00    -0.491 OA
ATOM     14  C   LIG     1     161.225 152.535 132.735  0.00  0.00     0.277 C 
ENDBRANCH   1  13
BRANCH   2  15
ATOM     15  O   LIG     1     162.395 155.454 130.222  0.00  0.00    -0.503 OA
ATOM     16  H   LIG     1     163.139 156.001 129.916  0.00  0.00     0.292 HD
ENDBRANCH   2  15
TORSDOF 5
ENDMDL
MODEL 4
REMARK VINA RESULT:      -5.5     17.604     18.979
REMARK  5 active torsions:
REMARK  status: ('A' for Active; 'I' for Inactive)
REMARK    1  A    between atoms: C_3  and  O_1 
REMARK    2  A    between atoms: C_4  and  O_14 
REMARK    3  A    between atoms: C_7  and  C_8 
REMARK    4  A    between atoms: C_9  and  C_10 
REMARK    5  A    between atoms: C_10  and  O_12 
ROOT
ATOM      1  C   LIG     1     147.259 148.035 143.811  0.00  0.00     0.162 A 
ATOM      2  C   LIG     1     146.914 149.377 143.641  0.00  0.00     0.158 A 
ATOM      3  C   LIG     1     146.290 149.792 142.465  0.00  0.00     0.050 A 
ATOM      4  C   LIG     1     146.010 148.867 141.459  0.00  0.00     0.012 A 
ATOM      5  C   LIG     1     146.354 147.527 141.630  0.00  0.00    -0.021 A 
ATOM      6  C   LIG     1     146.979 147.110 142.805  0.00  0.00     0.057 A 
ENDROOT
BRANCH   5   7
ATOM      7  C   LIG     1     146.062 146.562 140.581  0.00  0.00     0.015 C 
ATOM      8  C   LIG     1     144.985 145.745 140.548  0.00  0.00     0.092 C 
BRANCH   8   9
ATOM      9  C   LIG     1     144.796 144.814 139.419  0.00  0.00     0.330 C 
ATOM     10  O   LIG     1     143.780 144.193 139.153  0.00  0.00    -0.246 OA
BRANCH   9  11
ATOM     11  O   LIG     1     145.947 144.754 138.709  0.00  0.00    -0.478 OA
ATOM     12  H   LIG     1     146.367 143.869 138.764  0.00  0.00     0.295 HD
ENDBRANCH   9  11
ENDBRANCH   8   9
ENDBRANCH   5   7
BRANCH   1  13
ATOM     13  O   LIG     1     147.870 147.617 144.955  0.00  0.00    -0.491 OA
ATOM     14  C   LIG     1     149.228 147.196 144.847  0.00  0.00     0.277 C 
ENDBRANCH   1  13
BRANCH   2  15
ATOM     15  O   LIG     1     147.184 150.289 144.616  0.00  0.00    -0.503 OA
ATOM     16  H   LIG     1     146.749 151.130 144.391  0.00  0.00     0.292 HD
ENDBRANCH   2  15
TORSDOF 5
ENDMDL
MODEL 5
REMARK VINA RESULT:      -5.5     16.784     19.722
REMARK  5 active torsions:
REMARK  status: ('A' for Active; 'I' for Inactive)
REMARK    1  A    between atoms: C_3  and  O_1 
REMARK    2  A    between atoms: C_4  and  O_14 
REMARK    3  A    between atoms: C_7  and  C_8 
REMARK    4  A    between atoms: C_9  and  C_10 
REMARK    5  A    between atoms: C_10  and  O_12 
ROOT
ATOM      1  C   LIG     1     145.057 146.084 140.271  0.00  0.00     0.162 A 
ATOM      2  C   LIG     1     146.036 145.583 139.411  0.00  0.00     0.158 A 
ATOM      3  C   LIG     1     147.289 146.191 139.352  0.00  0.00     0.050 A 
ATOM      4  C   LIG     1     147.564 147.302 140.150  0.00  0.00     0.012 A 
ATOM      5  C   LIG     1     146.587 147.802 141.008  0.00  0.00    -0.021 A 
ATOM      6  C   LIG     1     145.333 147.194 141.069  0.00  0.00     0.057 A 
ENDROOT
BRANCH   5   7
ATOM      7  C   LIG     1     146.874 148.959 141.842  0.00  0.00     0.015 C 
ATOM      8  C   LIG     1     147.568 148.935 143.002  0.00  0.00     0.092 C 
BRANCH   8   9
ATOM      9  C   LIG     1     147.801 150.184 143.752  0.00  0.00     0.330 C 
ATOM     10  O   LIG     1     148.687 150.998 143.548  0.00  0.00    -0.246 OA
BRANCH   9  11
ATOM     11  O   LIG     1     146.861 150.292 144.720  0.00  0.00    -0.478 OA
ATOM     12  H   LIG     1     147.012 149.655 145.451  0.00  0.00     0.295 HD
ENDBRANCH   9  11
ENDBRANCH   8   9
ENDBRANCH   5   7
BRANCH   1  13
ATOM     13  O   LIG     1     143.829 145.498 140.337  0.00  0.00    -0.491 OA
ATOM     14  C   LIG     1     143.553 144.703 141.488  0.00  0.00     0.277 C 
ENDBRANCH   1  13
BRANCH   2  15
ATOM     15  O   LIG     1     145.779 144.500 138.626  0.00  0.00    -0.503 OA
ATOM     16  H   LIG     1     146.385 143.779 138.871  0.00  0.00     0.292 HD
ENDBRANCH   2  15
TORSDOF 5
ENDMDL
MODEL 6
REMARK VINA RESULT:      -5.4      3.710      5.006
REMARK  5 active torsions:
REMARK  status: ('A' for Active; 'I' for Inactive)
REMARK    1  A    between atoms: C_3  and  O_1 
REMARK    2  A    between atoms: C_4  and  O_14 
REMARK    3  A    between atoms: C_7  and  C_8 
REMARK    4  A    between atoms: C_9  and  C_10 
REMARK    5  A    between atoms: C_10  and  O_12 
ROOT
ATOM      1  C   LIG     1     161.255 159.028 137.011  0.00  0.00     0.162 A 
ATOM      2  C   LIG     1     160.179 158.810 137.872  0.00  0.00     0.158 A 
ATOM      3  C   LIG     1     159.402 157.660 137.739  0.00  0.00     0.050 A 
ATOM      4  C   LIG     1     159.699 156.729 136.743  0.00  0.00     0.012 A 
ATOM      5  C   LIG     1     160.773 156.947 135.883  0.00  0.00    -0.021 A 
ATOM      6  C   LIG     1     161.552 158.096 136.016  0.00  0.00     0.057 A 
ENDROOT
BRANCH   5   7
ATOM      7  C   LIG     1     161.083 155.975 134.846  0.00  0.00     0.015 C 
ATOM      8  C   LIG     1     161.056 156.215 133.516  0.00  0.00     0.092 C 
BRANCH   8   9
ATOM      9  C   LIG     1     161.403 155.142 132.563  0.00  0.00     0.330 C 
ATOM     10  O   LIG     1     161.726 153.999 132.844  0.00  0.00    -0.246 OA
BRANCH   9  11
ATOM     11  O   LIG     1     161.305 155.631 131.305  0.00  0.00    -0.478 OA
ATOM     12  H   LIG     1     161.298 154.916 130.633  0.00  0.00     0.295 HD
ENDBRANCH   9  11
ENDBRANCH   8   9
ENDBRANCH   5   7
BRANCH   1  13
ATOM     13  O   LIG     1     162.021 160.148 137.131  0.00  0.00    -0.491 OA
ATOM     14  C   LIG     1     162.547 160.705 135.927  0.00  0.00     0.277 C 
ENDBRANCH   1  13
BRANCH   2  15
ATOM     15  O   LIG     1     159.879 159.713 138.847  0.00  0.00    -0.503 OA
ATOM     16  H   LIG     1     158.916 159.856 138.860  0.00  0.00     0.292 HD
ENDBRANCH   2  15
TORSDOF 5
ENDMDL
MODEL 7
REMARK VINA RESULT:      -5.4     14.174     15.711
REMARK  5 active torsions:
REMARK  status: ('A' for Active; 'I' for Inactive)
REMARK    1  A    between atoms: C_3  and  O_1 
REMARK    2  A    between atoms: C_4  and  O_14 
REMARK    3  A    between atoms: C_7  and  C_8 
REMARK    4  A    between atoms: C_9  and  C_10 
REMARK    5  A    between atoms: C_10  and  O_12 
ROOT
ATOM      1  C   LIG     1     153.640 156.209 152.594  0.00  0.00     0.162 A 
ATOM      2  C   LIG     1     154.823 156.940 152.472  0.00  0.00     0.158 A 
ATOM      3  C   LIG     1     154.782 158.261 152.028  0.00  0.00     0.050 A 
ATOM      4  C   LIG     1     153.560 158.852 151.705  0.00  0.00     0.012 A 
ATOM      5  C   LIG     1     152.379 158.121 151.827  0.00  0.00    -0.021 A 
ATOM      6  C   LIG     1     152.418 156.800 152.271  0.00  0.00     0.057 A 
ENDROOT
BRANCH   5   7
ATOM      7  C   LIG     1     151.106 158.737 151.491  0.00  0.00     0.015 C 
ATOM      8  C   LIG     1     150.634 159.892 152.012  0.00  0.00     0.092 C 
BRANCH   8   9
ATOM      9  C   LIG     1     149.324 160.419 151.579  0.00  0.00     0.330 C 
ATOM     10  O   LIG     1     148.882 160.417 150.442  0.00  0.00    -0.246 OA
BRANCH   9  11
ATOM     11  O   LIG     1     148.677 160.914 152.660  0.00  0.00    -0.478 OA
ATOM     12  H   LIG     1     148.997 160.512 153.496  0.00  0.00     0.295 HD
ENDBRANCH   9  11
ENDBRANCH   8   9
ENDBRANCH   5   7
BRANCH   1  13
ATOM     13  O   LIG     1     153.667 154.917 153.026  0.00  0.00    -0.491 OA
ATOM     14  C   LIG     1     153.371 154.688 154.402  0.00  0.00     0.277 C 
ENDBRANCH   1  13
BRANCH   2  15
ATOM     15  O   LIG     1     156.022 156.374 152.784  0.00  0.00    -0.503 OA
ATOM     16  H   LIG     1     156.387 156.817 153.569  0.00  0.00     0.292 HD
ENDBRANCH   2  15
TORSDOF 5
ENDMDL
MODEL 8
REMARK VINA RESULT:      -5.4      3.091      6.870
REMARK  5 active torsions:
REMARK  status: ('A' for Active; 'I' for Inactive)
REMARK    1  A    between atoms: C_3  and  O_1 
REMARK    2  A    between atoms: C_4  and  O_14 
REMARK    3  A    between atoms: C_7  and  C_8 
REMARK    4  A    between atoms: C_9  and  C_10 
REMARK    5  A    between atoms: C_10  and  O_12 
ROOT
ATOM      1  C   LIG     1     162.253 160.884 140.764  0.00  0.00     0.162 A 
ATOM      2  C   LIG     1     161.464 160.612 141.882  0.00  0.00     0.158 A 
ATOM      3  C   LIG     1     162.019 160.681 143.160  0.00  0.00     0.050 A 
ATOM      4  C   LIG     1     163.362 161.023 143.320  0.00  0.00     0.012 A 
ATOM      5  C   LIG     1     164.150 161.294 142.202  0.00  0.00    -0.021 A 
ATOM      6  C   LIG     1     163.596 161.226 140.924  0.00  0.00     0.057 A 
ENDROOT
BRANCH   5   7
ATOM      7  C   LIG     1     165.549 161.652 142.369  0.00  0.00     0.015 C 
ATOM      8  C   LIG     1     166.465 160.929 143.053  0.00  0.00     0.092 C 
BRANCH   8   9
ATOM      9  C   LIG     1     167.863 161.397 143.140  0.00  0.00     0.330 C 
ATOM     10  O   LIG     1     168.317 162.418 142.652  0.00  0.00    -0.246 OA
BRANCH   9  11
ATOM     11  O   LIG     1     168.576 160.501 143.862  0.00  0.00    -0.478 OA
ATOM     12  H   LIG     1     169.409 160.246 143.411  0.00  0.00     0.295 HD
ENDBRANCH   9  11
ENDBRANCH   8   9
ENDBRANCH   5   7
BRANCH   1  13
ATOM     13  O   LIG     1     161.722 160.818 139.511  0.00  0.00    -0.491 OA
ATOM     14  C   LIG     1     162.029 159.659 138.738  0.00  0.00     0.277 C 
ENDBRANCH   1  13
BRANCH   2  15
ATOM     15  O   LIG     1     160.152 160.276 141.739  0.00  0.00    -0.503 OA
ATOM     16  H   LIG     1     160.075 159.581 141.062  0.00  0.00     0.292 HD
ENDBRANCH   2  15
TORSDOF 5
ENDMDL
MODEL 9
REMARK VINA RESULT:      -5.3     16.419     17.747
REMARK  5 active torsions:
REMARK  status: ('A' for Active; 'I' for Inactive)
REMARK    1  A    between atoms: C_3  and  O_1 
REMARK    2  A    between atoms: C_4  and  O_14 
REMARK    3  A    between atoms: C_7  and  C_8 
REMARK    4  A    between atoms: C_9  and  C_10 
REMARK    5  A    between atoms: C_10  and  O_12 
ROOT
ATOM      1  C   LIG     1     147.894 155.071 150.055  0.00  0.00     0.162 A 
ATOM      2  C   LIG     1     146.758 154.829 149.281  0.00  0.00     0.158 A 
ATOM      3  C   LIG     1     145.889 155.875 148.973  0.00  0.00     0.050 A 
ATOM      4  C   LIG     1     146.154 157.163 149.439  0.00  0.00     0.012 A 
ATOM      5  C   LIG     1     147.289 157.404 150.212  0.00  0.00    -0.021 A 
ATOM      6  C   LIG     1     148.159 156.359 150.520  0.00  0.00     0.057 A 
ENDROOT
BRANCH   5   7
ATOM      7  C   LIG     1     147.566 158.747 150.696  0.00  0.00     0.015 C 
ATOM      8  C   LIG     1     148.787 159.325 150.743  0.00  0.00     0.092 C 
BRANCH   8   9
ATOM      9  C   LIG     1     148.935 160.704 151.250  0.00  0.00     0.330 C 
ATOM     10  O   LIG     1     149.446 161.642 150.660  0.00  0.00    -0.246 OA
BRANCH   9  11
ATOM     11  O   LIG     1     148.404 160.769 152.493  0.00  0.00    -0.478 OA
ATOM     12  H   LIG     1     148.377 159.890 152.927  0.00  0.00     0.295 HD
ENDBRANCH   9  11
ENDBRANCH   8   9
ENDBRANCH   5   7
BRANCH   1  13
ATOM     13  O   LIG     1     148.750 154.057 150.363  0.00  0.00    -0.491 OA
ATOM     14  C   LIG     1     150.089 154.419 150.696  0.00  0.00     0.277 C 
ENDBRANCH   1  13
BRANCH   2  15
ATOM     15  O   LIG     1     146.488 153.575 148.822  0.00  0.00    -0.503 OA
ATOM     16  H   LIG     1     147.318 153.069 148.776  0.00  0.00     0.292 HD
ENDBRANCH   2  15
TORSDOF 5
ENDMDL
MODEL 10
REMARK VINA RESULT:      -5.3     14.317     15.662
REMARK  5 active torsions:
REMARK  status: ('A' for Active; 'I' for Inactive)
REMARK    1  A    between atoms: C_3  and  O_1 
REMARK    2  A    between atoms: C_4  and  O_14 
REMARK    3  A    between atoms: C_7  and  C_8 
REMARK    4  A    between atoms: C_9  and  C_10 
REMARK    5  A    between atoms: C_10  and  O_12 
ROOT
ATOM      1  C   LIG     1     153.442 154.036 152.200  0.00  0.00     0.162 A 
ATOM      2  C   LIG     1     154.820 154.163 152.017  0.00  0.00     0.158 A 
ATOM      3  C   LIG     1     155.401 155.429 151.957  0.00  0.00     0.050 A 
ATOM      4  C   LIG     1     154.606 156.568 152.079  0.00  0.00     0.012 A 
ATOM      5  C   LIG     1     153.230 156.441 152.261  0.00  0.00    -0.021 A 
ATOM      6  C   LIG     1     152.647 155.175 152.322  0.00  0.00     0.057 A 
ENDROOT
BRANCH   5   7
ATOM      7  C   LIG     1     152.401 157.629 152.390  0.00  0.00     0.015 C 
ATOM      8  C   LIG     1     152.744 158.871 151.981  0.00  0.00     0.092 C 
BRANCH   8   9
ATOM      9  C   LIG     1     151.806 159.996 152.160  0.00  0.00     0.330 C 
ATOM     10  O   LIG     1     150.590 159.921 152.236  0.00  0.00    -0.246 OA
BRANCH   9  11
ATOM     11  O   LIG     1     152.516 161.147 152.230  0.00  0.00    -0.478 OA
ATOM     12  H   LIG     1     153.260 161.081 152.866  0.00  0.00     0.295 HD
ENDBRANCH   9  11
ENDBRANCH   8   9
ENDBRANCH   5   7
BRANCH   1  13
ATOM     13  O   LIG     1     152.863 152.804 152.259  0.00  0.00    -0.491 OA
ATOM     14  C   LIG     1     151.970 152.457 151.202  0.00  0.00     0.277 C 
ENDBRANCH   1  13
BRANCH   2  15
ATOM     15  O   LIG     1     155.607 153.057 151.895  0.00  0.00    -0.503 OA
ATOM     16  H   LIG     1     155.794 152.702 152.782  0.00  0.00     0.292 HD
ENDBRANCH   2  15
TORSDOF 5
ENDMDL
