MODEL 1
REMARK VINA RESULT:      -5.3      0.000      0.000
REMARK  10 active torsions:
REMARK  status: ('A' for Active; 'I' for Inactive)
REMARK    1  A    between atoms: C_1  and  C_16 
REMARK    2  A    between atoms: C_1  and  C_2 
REMARK    3  A    between atoms: C_2  and  C_5 
REMARK    4  A    between atoms: C_4  and  C_10 
REMARK    5  A    between atoms: C_6  and  O_12 
REMARK    6  A    between atoms: C_7  and  O_14 
REMARK    7  A    between atoms: C_16  and  C_18 
REMARK    8  A    between atoms: C_19  and  C_20 
REMARK    9  A    between atoms: C_23  and  O_28 
REMARK   10  A    between atoms: C_24  and  O_26 
ROOT
ATOM      1  C   UNL     1       3.304  -5.172   4.590  0.00  0.00     0.158 C 
ENDROOT
BRANCH   1   2
ATOM      2  C   UNL     1       2.489  -4.205   5.426  0.00  0.00     0.164 C 
ATOM      3  O   UNL     1       2.678  -4.050   6.630  0.00  0.00    -0.292 OA
BRANCH   2   4
ATOM      4  C   UNL     1       1.465  -3.411   4.685  0.00  0.00     0.047 C 
ATOM      5  C   UNL     1       1.827  -2.622   3.663  0.00  0.00     0.011 C 
BRANCH   5   6
ATOM      6  C   UNL     1       0.898  -1.792   2.877  0.00  0.00    -0.021 A 
ATOM      7  C   UNL     1       1.274  -1.363   1.614  0.00  0.00     0.057 A 
ATOM      8  C   UNL     1       0.394  -0.577   0.870  0.00  0.00     0.162 A 
ATOM      9  C   UNL     1      -0.849  -0.231   1.399  0.00  0.00     0.158 A 
ATOM     10  C   UNL     1      -1.214  -0.671   2.671  0.00  0.00     0.050 A 
ATOM     11  C   UNL     1      -0.334  -1.457   3.416  0.00  0.00     0.012 A 
BRANCH   8  12
ATOM     12  O   UNL     1       0.760  -0.154  -0.372  0.00  0.00    -0.491 OA
ATOM     13  C   UNL     1       1.501  -1.070  -1.177  0.00  0.00     0.277 C 
ENDBRANCH   8  12
BRANCH   9  14
ATOM     14  O   UNL     1      -1.719   0.535   0.681  0.00  0.00    -0.503 OA
ATOM     15  H   UNL     1      -1.296   0.794  -0.155  0.00  0.00     0.292 HD
ENDBRANCH   9  14
ENDBRANCH   5   6
ENDBRANCH   2   4
ENDBRANCH   1   2
BRANCH   1  16
ATOM     16  C   UNL     1       2.509  -6.258   3.893  0.00  0.00     0.164 C 
ATOM     17  O   UNL     1       2.306  -7.357   4.402  0.00  0.00    -0.292 OA
BRANCH  16  18
ATOM     18  C   UNL     1       1.943  -5.892   2.561  0.00  0.00     0.047 C 
ATOM     19  C   UNL     1       0.618  -5.893   2.364  0.00  0.00     0.011 C 
BRANCH  19  20
ATOM     20  C   UNL     1      -0.039  -5.559   1.087  0.00  0.00    -0.021 A 
ATOM     21  C   UNL     1       0.016  -6.463   0.039  0.00  0.00     0.057 A 
ATOM     22  C   UNL     1      -0.605  -6.146  -1.169  0.00  0.00     0.162 A 
ATOM     23  C   UNL     1      -1.272  -4.930  -1.312  0.00  0.00     0.158 A 
ATOM     24  C   UNL     1      -1.319  -4.030  -0.248  0.00  0.00     0.050 A 
ATOM     25  C   UNL     1      -0.698  -4.347   0.961  0.00  0.00     0.012 A 
BRANCH  22  26
ATOM     26  O   UNL     1      -0.552  -7.034  -2.202  0.00  0.00    -0.491 OA
ATOM     27  C   UNL     1      -1.522  -8.079  -2.209  0.00  0.00     0.277 C 
ENDBRANCH  22  26
BRANCH  23  28
ATOM     28  O   UNL     1      -1.883  -4.611  -2.487  0.00  0.00    -0.503 OA
ATOM     29  H   UNL     1      -2.381  -3.785  -2.358  0.00  0.00     0.292 HD
ENDBRANCH  23  28
ENDBRANCH  19  20
ENDBRANCH  16  18
ENDBRANCH   1  16
TORSDOF 10
ENDMDL
MODEL 2
REMARK VINA RESULT:      -5.2      0.288      5.039
REMARK  10 active torsions:
REMARK  status: ('A' for Active; 'I' for Inactive)
REMARK    1  A    between atoms: C_1  and  C_16 
REMARK    2  A    between atoms: C_1  and  C_2 
REMARK    3  A    between atoms: C_2  and  C_5 
REMARK    4  A    between atoms: C_4  and  C_10 
REMARK    5  A    between atoms: C_6  and  O_12 
REMARK    6  A    between atoms: C_7  and  O_14 
REMARK    7  A    between atoms: C_16  and  C_18 
REMARK    8  A    between atoms: C_19  and  C_20 
REMARK    9  A    between atoms: C_23  and  O_28 
REMARK   10  A    between atoms: C_24  and  O_26 
ROOT
ATOM      1  C   UNL     1       3.098  -5.086   4.787  0.00  0.00     0.158 C 
ENDROOT
BRANCH   1   2
ATOM      2  C   UNL     1       2.446  -6.215   4.012  0.00  0.00     0.164 C 
ATOM      3  O   UNL     1       2.336  -7.351   4.467  0.00  0.00    -0.292 OA
BRANCH   2   4
ATOM      4  C   UNL     1       1.899  -5.850   2.672  0.00  0.00     0.047 C 
ATOM      5  C   UNL     1       0.577  -5.870   2.449  0.00  0.00     0.011 C 
BRANCH   5   6
ATOM      6  C   UNL     1      -0.061  -5.539   1.163  0.00  0.00    -0.021 A 
ATOM      7  C   UNL     1       0.135  -6.372   0.074  0.00  0.00     0.057 A 
ATOM      8  C   UNL     1      -0.469  -6.057  -1.144  0.00  0.00     0.162 A 
ATOM      9  C   UNL     1      -1.259  -4.913  -1.255  0.00  0.00     0.158 A 
ATOM     10  C   UNL     1      -1.446  -4.084  -0.149  0.00  0.00     0.050 A 
ATOM     11  C   UNL     1      -0.843  -4.399   1.069  0.00  0.00     0.012 A 
BRANCH   8  12
ATOM     12  O   UNL     1      -0.280  -6.875  -2.216  0.00  0.00    -0.491 OA
ATOM     13  C   UNL     1      -0.951  -8.133  -2.199  0.00  0.00     0.277 C 
ENDBRANCH   8  12
BRANCH   9  14
ATOM     14  O   UNL     1      -1.856  -4.596  -2.438  0.00  0.00    -0.503 OA
ATOM     15  H   UNL     1      -1.887  -5.389  -3.000  0.00  0.00     0.292 HD
ENDBRANCH   9  14
ENDBRANCH   5   6
ENDBRANCH   2   4
ENDBRANCH   1   2
BRANCH   1  16
ATOM     16  C   UNL     1       2.152  -4.223   5.597  0.00  0.00     0.164 C 
ATOM     17  O   UNL     1       2.217  -4.140   6.821  0.00  0.00    -0.292 OA
BRANCH  16  18
ATOM     18  C   UNL     1       1.157  -3.436   4.809  0.00  0.00     0.047 C 
ATOM     19  C   UNL     1       1.567  -2.570   3.872  0.00  0.00     0.011 C 
BRANCH  19  20
ATOM     20  C   UNL     1       0.668  -1.740   3.050  0.00  0.00    -0.021 A 
ATOM     21  C   UNL     1       1.013  -1.464   1.736  0.00  0.00     0.057 A 
ATOM     22  C   UNL     1       0.163  -0.678   0.959  0.00  0.00     0.162 A 
ATOM     23  C   UNL     1      -1.018  -0.178   1.505  0.00  0.00     0.158 A 
ATOM     24  C   UNL     1      -1.351  -0.464   2.829  0.00  0.00     0.050 A 
ATOM     25  C   UNL     1      -0.501  -1.251   3.607  0.00  0.00     0.012 A 
BRANCH  22  26
ATOM     26  O   UNL     1       0.499  -0.405  -0.333  0.00  0.00    -0.491 OA
ATOM     27  C   UNL     1       1.773  -0.861  -0.783  0.00  0.00     0.277 C 
ENDBRANCH  22  26
BRANCH  23  28
ATOM     28  O   UNL     1      -1.857   0.591   0.755  0.00  0.00    -0.503 OA
ATOM     29  H   UNL     1      -1.351   0.958   0.010  0.00  0.00     0.292 HD
ENDBRANCH  23  28
ENDBRANCH  19  20
ENDBRANCH  16  18
ENDBRANCH   1  16
TORSDOF 10
ENDMDL
MODEL 3
REMARK VINA RESULT:      -5.1      1.027      2.027
REMARK  10 active torsions:
REMARK  status: ('A' for Active; 'I' for Inactive)
REMARK    1  A    between atoms: C_1  and  C_16 
REMARK    2  A    between atoms: C_1  and  C_2 
REMARK    3  A    between atoms: C_2  and  C_5 
REMARK    4  A    between atoms: C_4  and  C_10 
REMARK    5  A    between atoms: C_6  and  O_12 
REMARK    6  A    between atoms: C_7  and  O_14 
REMARK    7  A    between atoms: C_16  and  C_18 
REMARK    8  A    between atoms: C_19  and  C_20 
REMARK    9  A    between atoms: C_23  and  O_28 
REMARK   10  A    between atoms: C_24  and  O_26 
ROOT
ATOM      1  C   UNL     1       2.190  -5.284   4.927  0.00  0.00     0.158 C 
ENDROOT
BRANCH   1   2
ATOM      2  C   UNL     1       2.870  -3.933   4.833  0.00  0.00     0.164 C 
ATOM      3  O   UNL     1       3.910  -3.673   5.435  0.00  0.00    -0.292 OA
BRANCH   2   4
ATOM      4  C   UNL     1       2.223  -2.942   3.923  0.00  0.00     0.047 C 
ATOM      5  C   UNL     1       0.892  -2.781   3.931  0.00  0.00     0.011 C 
BRANCH   5   6
ATOM      6  C   UNL     1       0.157  -1.841   3.068  0.00  0.00    -0.021 A 
ATOM      7  C   UNL     1      -1.218  -1.736   3.194  0.00  0.00     0.057 A 
ATOM      8  C   UNL     1      -1.914  -0.847   2.375  0.00  0.00     0.162 A 
ATOM      9  C   UNL     1      -1.224  -0.074   1.442  0.00  0.00     0.158 A 
ATOM     10  C   UNL     1       0.161  -0.190   1.326  0.00  0.00     0.050 A 
ATOM     11  C   UNL     1       0.857  -1.080   2.145  0.00  0.00     0.012 A 
BRANCH   8  12
ATOM     12  O   UNL     1      -3.266  -0.740   2.498  0.00  0.00    -0.491 OA
ATOM     13  C   UNL     1      -3.791  -0.633   3.820  0.00  0.00     0.277 C 
ENDBRANCH   8  12
BRANCH   9  14
ATOM     14  O   UNL     1      -1.891   0.801   0.637  0.00  0.00    -0.503 OA
ATOM     15  H   UNL     1      -2.535   0.308   0.100  0.00  0.00     0.292 HD
ENDBRANCH   9  14
ENDBRANCH   5   6
ENDBRANCH   2   4
ENDBRANCH   1   2
BRANCH   1  16
ATOM     16  C   UNL     1       2.504  -6.249   3.801  0.00  0.00     0.164 C 
ATOM     17  O   UNL     1       3.149  -7.279   3.974  0.00  0.00    -0.292 OA
BRANCH  16  18
ATOM     18  C   UNL     1       1.937  -5.893   2.466  0.00  0.00     0.047 C 
ATOM     19  C   UNL     1       0.611  -5.893   2.270  0.00  0.00     0.011 C 
BRANCH  19  20
ATOM     20  C   UNL     1      -0.046  -5.568   0.992  0.00  0.00    -0.021 A 
ATOM     21  C   UNL     1      -0.064  -6.514  -0.021  0.00  0.00     0.057 A 
ATOM     22  C   UNL     1      -0.686  -6.205  -1.231  0.00  0.00     0.162 A 
ATOM     23  C   UNL     1      -1.280  -4.957  -1.412  0.00  0.00     0.158 A 
ATOM     24  C   UNL     1      -1.253  -4.015  -0.383  0.00  0.00     0.050 A 
ATOM     25  C   UNL     1      -0.631  -4.323   0.827  0.00  0.00     0.012 A 
BRANCH  22  26
ATOM     26  O   UNL     1      -0.706  -7.133  -2.229  0.00  0.00    -0.491 OA
ATOM     27  C   UNL     1      -1.754  -8.100  -2.195  0.00  0.00     0.277 C 
ENDBRANCH  22  26
BRANCH  23  28
ATOM     28  O   UNL     1      -1.891  -4.645  -2.589  0.00  0.00    -0.503 OA
ATOM     29  H   UNL     1      -2.027  -3.682  -2.617  0.00  0.00     0.292 HD
ENDBRANCH  23  28
ENDBRANCH  19  20
ENDBRANCH  16  18
ENDBRANCH   1  16
TORSDOF 10
ENDMDL
MODEL 4
REMARK VINA RESULT:      -5.0      1.344      5.287
REMARK  10 active torsions:
REMARK  status: ('A' for Active; 'I' for Inactive)
REMARK    1  A    between atoms: C_1  and  C_16 
REMARK    2  A    between atoms: C_1  and  C_2 
REMARK    3  A    between atoms: C_2  and  C_5 
REMARK    4  A    between atoms: C_4  and  C_10 
REMARK    5  A    between atoms: C_6  and  O_12 
REMARK    6  A    between atoms: C_7  and  O_14 
REMARK    7  A    between atoms: C_16  and  C_18 
REMARK    8  A    between atoms: C_19  and  C_20 
REMARK    9  A    between atoms: C_23  and  O_28 
REMARK   10  A    between atoms: C_24  and  O_26 
ROOT
ATOM      1  C   UNL     1       3.023  -4.997   4.686  0.00  0.00     0.158 C 
ENDROOT
BRANCH   1   2
ATOM      2  C   UNL     1       2.486  -6.128   3.830  0.00  0.00     0.164 C 
ATOM      3  O   UNL     1       2.486  -7.298   4.206  0.00  0.00    -0.292 OA
BRANCH   2   4
ATOM      4  C   UNL     1       1.912  -5.727   2.512  0.00  0.00     0.047 C 
ATOM      5  C   UNL     1       0.620  -5.958   2.236  0.00  0.00     0.011 C 
BRANCH   5   6
ATOM      6  C   UNL     1      -0.039  -5.612   0.965  0.00  0.00    -0.021 A 
ATOM      7  C   UNL     1      -0.128  -6.565  -0.036  0.00  0.00     0.057 A 
ATOM      8  C   UNL     1      -0.751  -6.236  -1.240  0.00  0.00     0.162 A 
ATOM      9  C   UNL     1      -1.278  -4.958  -1.425  0.00  0.00     0.158 A 
ATOM     10  C   UNL     1      -1.181  -4.009  -0.408  0.00  0.00     0.050 A 
ATOM     11  C   UNL     1      -0.557  -4.337   0.796  0.00  0.00     0.012 A 
BRANCH   8  12
ATOM     12  O   UNL     1      -0.841  -7.172  -2.225  0.00  0.00    -0.491 OA
ATOM     13  C   UNL     1      -1.916  -8.106  -2.137  0.00  0.00     0.277 C 
ENDBRANCH   8  12
BRANCH   9  14
ATOM     14  O   UNL     1      -1.891  -4.625  -2.595  0.00  0.00    -0.503 OA
ATOM     15  H   UNL     1      -2.605  -5.262  -2.771  0.00  0.00     0.292 HD
ENDBRANCH   9  14
ENDBRANCH   5   6
ENDBRANCH   2   4
ENDBRANCH   1   2
BRANCH   1  16
ATOM     16  C   UNL     1       1.976  -4.197   5.435  0.00  0.00     0.164 C 
ATOM     17  O   UNL     1       1.687  -4.422   6.607  0.00  0.00    -0.292 OA
BRANCH  16  18
ATOM     18  C   UNL     1       1.347  -3.079   4.672  0.00  0.00     0.047 C 
ATOM     19  C   UNL     1       0.055  -3.140   4.322  0.00  0.00     0.011 C 
BRANCH  19  20
ATOM     20  C   UNL     1      -0.656  -2.097   3.560  0.00  0.00    -0.021 A 
ATOM     21  C   UNL     1      -2.009  -2.250   3.301  0.00  0.00     0.057 A 
ATOM     22  C   UNL     1      -2.681  -1.263   2.580  0.00  0.00     0.162 A 
ATOM     23  C   UNL     1      -1.991  -0.139   2.127  0.00  0.00     0.158 A 
ATOM     24  C   UNL     1      -0.630   0.000   2.395  0.00  0.00     0.050 A 
ATOM     25  C   UNL     1       0.043  -0.987   3.117  0.00  0.00     0.012 A 
BRANCH  22  26
ATOM     26  O   UNL     1      -4.011  -1.409   2.324  0.00  0.00    -0.491 OA
ATOM     27  C   UNL     1      -4.752  -2.251   3.205  0.00  0.00     0.277 C 
ENDBRANCH  22  26
BRANCH  23  28
ATOM     28  O   UNL     1      -2.637   0.832   1.422  0.00  0.00    -0.503 OA
ATOM     29  H   UNL     1      -3.580   0.808   1.661  0.00  0.00     0.292 HD
ENDBRANCH  23  28
ENDBRANCH  19  20
ENDBRANCH  16  18
ENDBRANCH   1  16
TORSDOF 10
ENDMDL
MODEL 5
REMARK VINA RESULT:      -4.8      1.124      1.449
REMARK  10 active torsions:
REMARK  status: ('A' for Active; 'I' for Inactive)
REMARK    1  A    between atoms: C_1  and  C_16 
REMARK    2  A    between atoms: C_1  and  C_2 
REMARK    3  A    between atoms: C_2  and  C_5 
REMARK    4  A    between atoms: C_4  and  C_10 
REMARK    5  A    between atoms: C_6  and  O_12 
REMARK    6  A    between atoms: C_7  and  O_14 
REMARK    7  A    between atoms: C_16  and  C_18 
REMARK    8  A    between atoms: C_19  and  C_20 
REMARK    9  A    between atoms: C_23  and  O_28 
REMARK   10  A    between atoms: C_24  and  O_26 
ROOT
ATOM      1  C   UNL     1       2.514  -5.011   5.067  0.00  0.00     0.158 C 
ENDROOT
BRANCH   1   2
ATOM      2  C   UNL     1       1.258  -4.860   5.903  0.00  0.00     0.164 C 
ATOM      3  O   UNL     1       1.161  -5.319   7.039  0.00  0.00    -0.292 OA
BRANCH   2   4
ATOM      4  C   UNL     1       0.153  -4.075   5.278  0.00  0.00     0.047 C 
ATOM      5  C   UNL     1       0.426  -3.007   4.515  0.00  0.00     0.011 C 
BRANCH   5   6
ATOM      6  C   UNL     1      -0.589  -2.162   3.863  0.00  0.00    -0.021 A 
ATOM      7  C   UNL     1      -0.184  -1.159   2.998  0.00  0.00     0.057 A 
ATOM      8  C   UNL     1      -1.146  -0.358   2.382  0.00  0.00     0.162 A 
ATOM      9  C   UNL     1      -2.500  -0.572   2.639  0.00  0.00     0.158 A 
ATOM     10  C   UNL     1      -2.893  -1.587   3.513  0.00  0.00     0.050 A 
ATOM     11  C   UNL     1      -1.931  -2.388   4.129  0.00  0.00     0.012 A 
BRANCH   8  12
ATOM     12  O   UNL     1      -0.751   0.629   1.531  0.00  0.00    -0.491 OA
ATOM     13  C   UNL     1       0.413   0.380   0.745  0.00  0.00     0.277 C 
ENDBRANCH   8  12
BRANCH   9  14
ATOM     14  O   UNL     1      -3.450   0.201   2.043  0.00  0.00    -0.503 OA
ATOM     15  H   UNL     1      -4.257  -0.326   1.920  0.00  0.00     0.292 HD
ENDBRANCH   9  14
ENDBRANCH   5   6
ENDBRANCH   2   4
ENDBRANCH   1   2
BRANCH   1  16
ATOM     16  C   UNL     1       2.442  -6.055   3.970  0.00  0.00     0.164 C 
ATOM     17  O   UNL     1       2.802  -7.216   4.140  0.00  0.00    -0.292 OA
BRANCH  16  18
ATOM     18  C   UNL     1       1.859  -5.594   2.675  0.00  0.00     0.047 C 
ATOM     19  C   UNL     1       0.643  -6.008   2.295  0.00  0.00     0.011 C 
BRANCH  19  20
ATOM     20  C   UNL     1      -0.016  -5.621   1.034  0.00  0.00    -0.021 A 
ATOM     21  C   UNL     1      -0.136  -6.556   0.017  0.00  0.00     0.057 A 
ATOM     22  C   UNL     1      -0.759  -6.189  -1.176  0.00  0.00     0.162 A 
ATOM     23  C   UNL     1      -1.251  -4.895  -1.337  0.00  0.00     0.158 A 
ATOM     24  C   UNL     1      -1.123  -3.966  -0.305  0.00  0.00     0.050 A 
ATOM     25  C   UNL     1      -0.500  -4.332   0.889  0.00  0.00     0.012 A 
BRANCH  22  26
ATOM     26  O   UNL     1      -0.879  -7.106  -2.177  0.00  0.00    -0.491 OA
ATOM     27  C   UNL     1      -1.883  -8.107  -2.024  0.00  0.00     0.277 C 
ENDBRANCH  22  26
BRANCH  23  28
ATOM     28  O   UNL     1      -1.863  -4.526  -2.497  0.00  0.00    -0.503 OA
ATOM     29  H   UNL     1      -2.703  -4.089  -2.275  0.00  0.00     0.292 HD
ENDBRANCH  23  28
ENDBRANCH  19  20
ENDBRANCH  16  18
ENDBRANCH   1  16
TORSDOF 10
ENDMDL
MODEL 6
REMARK VINA RESULT:      -4.8      2.439      5.332
REMARK  10 active torsions:
REMARK  status: ('A' for Active; 'I' for Inactive)
REMARK    1  A    between atoms: C_1  and  C_16 
REMARK    2  A    between atoms: C_1  and  C_2 
REMARK    3  A    between atoms: C_2  and  C_5 
REMARK    4  A    between atoms: C_4  and  C_10 
REMARK    5  A    between atoms: C_6  and  O_12 
REMARK    6  A    between atoms: C_7  and  O_14 
REMARK    7  A    between atoms: C_16  and  C_18 
REMARK    8  A    between atoms: C_19  and  C_20 
REMARK    9  A    between atoms: C_23  and  O_28 
REMARK   10  A    between atoms: C_24  and  O_26 
ROOT
ATOM      1  C   UNL     1       1.850  -3.636   5.513  0.00  0.00     0.158 C 
ENDROOT
BRANCH   1   2
ATOM      2  C   UNL     1       1.078  -4.819   4.961  0.00  0.00     0.164 C 
ATOM      3  O   UNL     1       1.026  -5.902   5.538  0.00  0.00    -0.292 OA
BRANCH   2   4
ATOM      4  C   UNL     1       0.340  -4.573   3.686  0.00  0.00     0.047 C 
ATOM      5  C   UNL     1       0.677  -5.231   2.569  0.00  0.00     0.011 C 
BRANCH   5   6
ATOM      6  C   UNL     1       0.021  -5.054   1.262  0.00  0.00    -0.021 A 
ATOM      7  C   UNL     1      -0.248  -6.165   0.480  0.00  0.00     0.057 A 
ATOM      8  C   UNL     1      -0.868  -5.997  -0.758  0.00  0.00     0.162 A 
ATOM      9  C   UNL     1      -1.212  -4.718  -1.196  0.00  0.00     0.158 A 
ATOM     10  C   UNL     1      -0.934  -3.608  -0.398  0.00  0.00     0.050 A 
ATOM     11  C   UNL     1      -0.314  -3.777   0.840  0.00  0.00     0.012 A 
BRANCH   8  12
ATOM     12  O   UNL     1      -1.136  -7.088  -1.528  0.00  0.00    -0.491 OA
ATOM     13  C   UNL     1      -0.094  -7.546  -2.388  0.00  0.00     0.277 C 
ENDBRANCH   8  12
BRANCH   9  14
ATOM     14  O   UNL     1      -1.820  -4.540  -2.402  0.00  0.00    -0.503 OA
ATOM     15  H   UNL     1      -2.102  -3.613  -2.480  0.00  0.00     0.292 HD
ENDBRANCH   9  14
ENDBRANCH   5   6
ENDBRANCH   2   4
ENDBRANCH   1   2
BRANCH   1  16
ATOM     16  C   UNL     1       3.332  -3.623   5.195  0.00  0.00     0.164 C 
ATOM     17  O   UNL     1       4.193  -3.800   6.052  0.00  0.00    -0.292 OA
BRANCH  16  18
ATOM     18  C   UNL     1       3.684  -3.426   3.757  0.00  0.00     0.047 C 
ATOM     19  C   UNL     1       3.258  -2.340   3.098  0.00  0.00     0.011 C 
BRANCH  19  20
ATOM     20  C   UNL     1       3.541  -2.059   1.678  0.00  0.00    -0.021 A 
ATOM     21  C   UNL     1       4.812  -2.297   1.179  0.00  0.00     0.057 A 
ATOM     22  C   UNL     1       5.078  -2.030  -0.164  0.00  0.00     0.162 A 
ATOM     23  C   UNL     1       4.072  -1.529  -0.988  0.00  0.00     0.158 A 
ATOM     24  C   UNL     1       2.798  -1.294  -0.471  0.00  0.00     0.050 A 
ATOM     25  C   UNL     1       2.531  -1.561   0.872  0.00  0.00     0.012 A 
BRANCH  22  26
ATOM     26  O   UNL     1       6.326  -2.264  -0.658  0.00  0.00    -0.491 OA
ATOM     27  C   UNL     1       6.826  -3.596  -0.557  0.00  0.00     0.277 C 
ENDBRANCH  22  26
BRANCH  23  28
ATOM     28  O   UNL     1       4.320  -1.265  -2.301  0.00  0.00    -0.503 OA
ATOM     29  H   UNL     1       5.169  -0.794  -2.364  0.00  0.00     0.292 HD
ENDBRANCH  23  28
ENDBRANCH  19  20
ENDBRANCH  16  18
ENDBRANCH   1  16
TORSDOF 10
ENDMDL
MODEL 7
REMARK VINA RESULT:      -4.7      1.241      5.262
REMARK  10 active torsions:
REMARK  status: ('A' for Active; 'I' for Inactive)
REMARK    1  A    between atoms: C_1  and  C_16 
REMARK    2  A    between atoms: C_1  and  C_2 
REMARK    3  A    between atoms: C_2  and  C_5 
REMARK    4  A    between atoms: C_4  and  C_10 
REMARK    5  A    between atoms: C_6  and  O_12 
REMARK    6  A    between atoms: C_7  and  O_14 
REMARK    7  A    between atoms: C_16  and  C_18 
REMARK    8  A    between atoms: C_19  and  C_20 
REMARK    9  A    between atoms: C_23  and  O_28 
REMARK   10  A    between atoms: C_24  and  O_26 
ROOT
ATOM      1  C   UNL     1       2.668  -5.095   4.735  0.00  0.00     0.158 C 
ENDROOT
BRANCH   1   2
ATOM      2  C   UNL     1       2.448  -6.330   3.883  0.00  0.00     0.164 C 
ATOM      3  O   UNL     1       2.691  -7.464   4.288  0.00  0.00    -0.292 OA
BRANCH   2   4
ATOM      4  C   UNL     1       1.869  -6.088   2.528  0.00  0.00     0.047 C 
ATOM      5  C   UNL     1       0.630  -5.592   2.397  0.00  0.00     0.011 C 
BRANCH   5   6
ATOM      6  C   UNL     1      -0.034  -5.328   1.110  0.00  0.00    -0.021 A 
ATOM      7  C   UNL     1      -0.253  -6.376   0.231  0.00  0.00     0.057 A 
ATOM      8  C   UNL     1      -0.881  -6.125  -0.989  0.00  0.00     0.162 A 
ATOM      9  C   UNL     1      -1.282  -4.829  -1.313  0.00  0.00     0.158 A 
ATOM     10  C   UNL     1      -1.055  -3.784  -0.418  0.00  0.00     0.050 A 
ATOM     11  C   UNL     1      -0.427  -4.035   0.802  0.00  0.00     0.012 A 
BRANCH   8  12
ATOM     12  O   UNL     1      -1.099  -7.154  -1.855  0.00  0.00    -0.491 OA
ATOM     13  C   UNL     1       0.029  -7.643  -2.579  0.00  0.00     0.277 C 
ENDBRANCH   8  12
BRANCH   9  14
ATOM     14  O   UNL     1      -1.899  -4.571  -2.500  0.00  0.00    -0.503 OA
ATOM     15  H   UNL     1      -2.857  -4.699  -2.393  0.00  0.00     0.292 HD
ENDBRANCH   9  14
ENDBRANCH   5   6
ENDBRANCH   2   4
ENDBRANCH   1   2
BRANCH   1  16
ATOM     16  C   UNL     1       3.496  -4.001   4.092  0.00  0.00     0.164 C 
ATOM     17  O   UNL     1       4.693  -3.856   4.323  0.00  0.00    -0.292 OA
BRANCH  16  18
ATOM     18  C   UNL     1       2.774  -3.131   3.116  0.00  0.00     0.047 C 
ATOM     19  C   UNL     1       3.456  -2.433   2.198  0.00  0.00     0.011 C 
BRANCH  19  20
ATOM     20  C   UNL     1       2.841  -1.539   1.199  0.00  0.00    -0.021 A 
ATOM     21  C   UNL     1       1.508  -1.186   1.336  0.00  0.00     0.057 A 
ATOM     22  C   UNL     1       0.926  -0.341   0.390  0.00  0.00     0.162 A 
ATOM     23  C   UNL     1       1.684   0.137  -0.678  0.00  0.00     0.158 A 
ATOM     24  C   UNL     1       3.024  -0.228  -0.802  0.00  0.00     0.050 A 
ATOM     25  C   UNL     1       3.607  -1.073   0.144  0.00  0.00     0.012 A 
BRANCH  22  26
ATOM     26  O   UNL     1      -0.384   0.010   0.521  0.00  0.00    -0.491 OA
ATOM     27  C   UNL     1      -1.058  -0.428   1.700  0.00  0.00     0.277 C 
ENDBRANCH  22  26
BRANCH  23  28
ATOM     28  O   UNL     1       1.127   0.963  -1.607  0.00  0.00    -0.503 OA
ATOM     29  H   UNL     1       0.957   1.825  -1.188  0.00  0.00     0.292 HD
ENDBRANCH  23  28
ENDBRANCH  19  20
ENDBRANCH  16  18
ENDBRANCH   1  16
TORSDOF 10
ENDMDL
MODEL 8
REMARK VINA RESULT:      -4.7      2.488      3.273
REMARK  10 active torsions:
REMARK  status: ('A' for Active; 'I' for Inactive)
REMARK    1  A    between atoms: C_1  and  C_16 
REMARK    2  A    between atoms: C_1  and  C_2 
REMARK    3  A    between atoms: C_2  and  C_5 
REMARK    4  A    between atoms: C_4  and  C_10 
REMARK    5  A    between atoms: C_6  and  O_12 
REMARK    6  A    between atoms: C_7  and  O_14 
REMARK    7  A    between atoms: C_16  and  C_18 
REMARK    8  A    between atoms: C_19  and  C_20 
REMARK    9  A    between atoms: C_23  and  O_28 
REMARK   10  A    between atoms: C_24  and  O_26 
ROOT
ATOM      1  C   UNL     1       1.848  -3.645   5.395  0.00  0.00     0.158 C 
ENDROOT
BRANCH   1   2
ATOM      2  C   UNL     1       3.327  -3.642   5.059  0.00  0.00     0.164 C 
ATOM      3  O   UNL     1       4.198  -3.814   5.908  0.00  0.00    -0.292 OA
BRANCH   2   4
ATOM      4  C   UNL     1       3.664  -3.462   3.616  0.00  0.00     0.047 C 
ATOM      5  C   UNL     1       3.369  -2.315   2.988  0.00  0.00     0.011 C 
BRANCH   5   6
ATOM      6  C   UNL     1       3.649  -2.042   1.568  0.00  0.00    -0.021 A 
ATOM      7  C   UNL     1       4.914  -2.296   1.064  0.00  0.00     0.057 A 
ATOM      8  C   UNL     1       5.179  -2.037  -0.281  0.00  0.00     0.162 A 
ATOM      9  C   UNL     1       4.175  -1.526  -1.103  0.00  0.00     0.158 A 
ATOM     10  C   UNL     1       2.906  -1.275  -0.582  0.00  0.00     0.050 A 
ATOM     11  C   UNL     1       2.641  -1.534   0.763  0.00  0.00     0.012 A 
BRANCH   8  12
ATOM     12  O   UNL     1       6.422  -2.288  -0.780  0.00  0.00    -0.491 OA
ATOM     13  C   UNL     1       6.913  -3.621  -0.657  0.00  0.00     0.277 C 
ENDBRANCH   8  12
BRANCH   9  14
ATOM     14  O   UNL     1       4.420  -1.271  -2.419  0.00  0.00    -0.503 OA
ATOM     15  H   UNL     1       3.595  -0.979  -2.844  0.00  0.00     0.292 HD
ENDBRANCH   9  14
ENDBRANCH   5   6
ENDBRANCH   2   4
ENDBRANCH   1   2
BRANCH   1  16
ATOM     16  C   UNL     1       1.073  -4.850   4.900  0.00  0.00     0.164 C 
ATOM     17  O   UNL     1       1.043  -5.913   5.513  0.00  0.00    -0.292 OA
BRANCH  16  18
ATOM     18  C   UNL     1       0.303  -4.650   3.636  0.00  0.00     0.047 C 
ATOM     19  C   UNL     1       0.727  -5.199   2.490  0.00  0.00     0.011 C 
BRANCH  19  20
ATOM     20  C   UNL     1       0.047  -5.053   1.190  0.00  0.00    -0.021 A 
ATOM     21  C   UNL     1      -0.204  -6.182   0.425  0.00  0.00     0.057 A 
ATOM     22  C   UNL     1      -0.847  -6.042  -0.805  0.00  0.00     0.162 A 
ATOM     23  C   UNL     1      -1.227  -4.778  -1.254  0.00  0.00     0.158 A 
ATOM     24  C   UNL     1      -0.967  -3.652  -0.473  0.00  0.00     0.050 A 
ATOM     25  C   UNL     1      -0.324  -3.791   0.758  0.00  0.00     0.012 A 
BRANCH  22  26
ATOM     26  O   UNL     1      -1.096  -7.149  -1.559  0.00  0.00    -0.491 OA
ATOM     27  C   UNL     1      -0.119  -7.503  -2.535  0.00  0.00     0.277 C 
ENDBRANCH  22  26
BRANCH  23  28
ATOM     28  O   UNL     1      -1.856  -4.630  -2.453  0.00  0.00    -0.503 OA
ATOM     29  H   UNL     1      -1.726  -3.716  -2.757  0.00  0.00     0.292 HD
ENDBRANCH  23  28
ENDBRANCH  19  20
ENDBRANCH  16  18
ENDBRANCH   1  16
TORSDOF 10
ENDMDL
MODEL 9
REMARK VINA RESULT:      -4.6      1.462      2.166
REMARK  10 active torsions:
REMARK  status: ('A' for Active; 'I' for Inactive)
REMARK    1  A    between atoms: C_1  and  C_16 
REMARK    2  A    between atoms: C_1  and  C_2 
REMARK    3  A    between atoms: C_2  and  C_5 
REMARK    4  A    between atoms: C_4  and  C_10 
REMARK    5  A    between atoms: C_6  and  O_12 
REMARK    6  A    between atoms: C_7  and  O_14 
REMARK    7  A    between atoms: C_16  and  C_18 
REMARK    8  A    between atoms: C_19  and  C_20 
REMARK    9  A    between atoms: C_23  and  O_28 
REMARK   10  A    between atoms: C_24  and  O_26 
ROOT
ATOM      1  C   UNL     1       3.458  -5.438   4.471  0.00  0.00     0.158 C 
ENDROOT
BRANCH   1   2
ATOM      2  C   UNL     1       4.443  -4.999   3.405  0.00  0.00     0.164 C 
ATOM      3  O   UNL     1       5.485  -5.610   3.177  0.00  0.00    -0.292 OA
BRANCH   2   4
ATOM      4  C   UNL     1       4.048  -3.799   2.611  0.00  0.00     0.047 C 
ATOM      5  C   UNL     1       3.303  -2.832   3.167  0.00  0.00     0.011 C 
BRANCH   5   6
ATOM      6  C   UNL     1       2.852  -1.617   2.468  0.00  0.00    -0.021 A 
ATOM      7  C   UNL     1       1.642  -1.630   1.794  0.00  0.00     0.057 A 
ATOM      8  C   UNL     1       1.216  -0.479   1.131  0.00  0.00     0.162 A 
ATOM      9  C   UNL     1       2.006   0.670   1.153  0.00  0.00     0.158 A 
ATOM     10  C   UNL     1       3.222   0.669   1.836  0.00  0.00     0.050 A 
ATOM     11  C   UNL     1       3.649  -0.482   2.498  0.00  0.00     0.012 A 
BRANCH   8  12
ATOM     12  O   UNL     1       0.026  -0.489   0.468  0.00  0.00    -0.491 OA
ATOM     13  C   UNL     1      -1.158  -0.399   1.259  0.00  0.00     0.277 C 
ENDBRANCH   8  12
BRANCH   9  14
ATOM     14  O   UNL     1       1.600   1.802   0.512  0.00  0.00    -0.503 OA
ATOM     15  H   UNL     1       2.172   2.540   0.781  0.00  0.00     0.292 HD
ENDBRANCH   9  14
ENDBRANCH   5   6
ENDBRANCH   2   4
ENDBRANCH   1   2
BRANCH   1  16
ATOM     16  C   UNL     1       2.403  -6.425   4.013  0.00  0.00     0.164 C 
ATOM     17  O   UNL     1       2.007  -7.345   4.723  0.00  0.00    -0.292 OA
BRANCH  16  18
ATOM     18  C   UNL     1       1.835  -6.181   2.653  0.00  0.00     0.047 C 
ATOM     19  C   UNL     1       0.638  -5.594   2.515  0.00  0.00     0.011 C 
BRANCH  19  20
ATOM     20  C   UNL     1      -0.014  -5.320   1.222  0.00  0.00    -0.021 A 
ATOM     21  C   UNL     1       0.077  -6.256   0.204  0.00  0.00     0.057 A 
ATOM     22  C   UNL     1      -0.540  -5.995  -1.020  0.00  0.00     0.162 A 
ATOM     23  C   UNL     1      -1.238  -4.803  -1.209  0.00  0.00     0.158 A 
ATOM     24  C   UNL     1      -1.320  -3.870  -0.175  0.00  0.00     0.050 A 
ATOM     25  C   UNL     1      -0.704  -4.131   1.049  0.00  0.00     0.012 A 
BRANCH  22  26
ATOM     26  O   UNL     1      -0.453  -6.913  -2.023  0.00  0.00    -0.491 OA
ATOM     27  C   UNL     1      -1.410  -7.971  -2.019  0.00  0.00     0.277 C 
ENDBRANCH  22  26
BRANCH  23  28
ATOM     28  O   UNL     1      -1.846  -4.538  -2.399  0.00  0.00    -0.503 OA
ATOM     29  H   UNL     1      -1.574  -5.217  -3.040  0.00  0.00     0.292 HD
ENDBRANCH  23  28
ENDBRANCH  19  20
ENDBRANCH  16  18
ENDBRANCH   1  16
TORSDOF 10
ENDMDL
MODEL 10
REMARK VINA RESULT:      -4.5      3.082      5.722
REMARK  10 active torsions:
REMARK  status: ('A' for Active; 'I' for Inactive)
REMARK    1  A    between atoms: C_1  and  C_16 
REMARK    2  A    between atoms: C_1  and  C_2 
REMARK    3  A    between atoms: C_2  and  C_5 
REMARK    4  A    between atoms: C_4  and  C_10 
REMARK    5  A    between atoms: C_6  and  O_12 
REMARK    6  A    between atoms: C_7  and  O_14 
REMARK    7  A    between atoms: C_16  and  C_18 
REMARK    8  A    between atoms: C_19  and  C_20 
REMARK    9  A    between atoms: C_23  and  O_28 
REMARK   10  A    between atoms: C_24  and  O_26 
ROOT
ATOM      1  C   UNL     1       1.505  -3.470   5.840  0.00  0.00     0.158 C 
ENDROOT
BRANCH   1   2
ATOM      2  C   UNL     1       1.953  -4.390   4.720  0.00  0.00     0.164 C 
ATOM      3  O   UNL     1       2.734  -5.320   4.902  0.00  0.00    -0.292 OA
BRANCH   2   4
ATOM      4  C   UNL     1       1.348  -4.124   3.382  0.00  0.00     0.047 C 
ATOM      5  C   UNL     1       0.637  -5.074   2.757  0.00  0.00     0.011 C 
BRANCH   5   6
ATOM      6  C   UNL     1       0.010  -4.916   1.433  0.00  0.00    -0.021 A 
ATOM      7  C   UNL     1      -0.386  -6.042   0.731  0.00  0.00     0.057 A 
ATOM      8  C   UNL     1      -0.979  -5.892  -0.523  0.00  0.00     0.162 A 
ATOM      9  C   UNL     1      -1.168  -4.618  -1.056  0.00  0.00     0.158 A 
ATOM     10  C   UNL     1      -0.764  -3.492  -0.337  0.00  0.00     0.050 A 
ATOM     11  C   UNL     1      -0.170  -3.642   0.917  0.00  0.00     0.012 A 
BRANCH   8  12
ATOM     12  O   UNL     1      -1.371  -6.998  -1.215  0.00  0.00    -0.491 OA
ATOM     13  C   UNL     1      -0.347  -7.767  -1.843  0.00  0.00     0.277 C 
ENDBRANCH   8  12
BRANCH   9  14
ATOM     14  O   UNL     1      -1.748  -4.457  -2.279  0.00  0.00    -0.503 OA
ATOM     15  H   UNL     1      -2.707  -4.350  -2.162  0.00  0.00     0.292 HD
ENDBRANCH   9  14
ENDBRANCH   5   6
ENDBRANCH   2   4
ENDBRANCH   1   2
BRANCH   1  16
ATOM     16  C   UNL     1       0.309  -3.952   6.636  0.00  0.00     0.164 C 
ATOM     17  O   UNL     1       0.406  -4.362   7.789  0.00  0.00    -0.292 OA
BRANCH  16  18
ATOM     18  C   UNL     1      -1.012  -3.851   5.946  0.00  0.00     0.047 C 
ATOM     19  C   UNL     1      -1.403  -2.694   5.397  0.00  0.00     0.011 C 
BRANCH  19  20
ATOM     20  C   UNL     1      -2.688  -2.488   4.705  0.00  0.00    -0.021 A 
ATOM     21  C   UNL     1      -3.869  -2.577   5.426  0.00  0.00     0.057 A 
ATOM     22  C   UNL     1      -5.085  -2.383   4.771  0.00  0.00     0.162 A 
ATOM     23  C   UNL     1      -5.104  -2.104   3.405  0.00  0.00     0.158 A 
ATOM     24  C   UNL     1      -3.908  -2.018   2.693  0.00  0.00     0.050 A 
ATOM     25  C   UNL     1      -2.691  -2.212   3.348  0.00  0.00     0.012 A 
BRANCH  22  26
ATOM     26  O   UNL     1      -6.247  -2.469   5.476  0.00  0.00    -0.491 OA
ATOM     27  C   UNL     1      -6.737  -3.778   5.763  0.00  0.00     0.277 C 
ENDBRANCH  22  26
BRANCH  23  28
ATOM     28  O   UNL     1      -6.285  -1.911   2.754  0.00  0.00    -0.503 OA
ATOM     29  H   UNL     1      -6.293  -1.008   2.394  0.00  0.00     0.292 HD
ENDBRANCH  23  28
ENDBRANCH  19  20
ENDBRANCH  16  18
ENDBRANCH   1  16
TORSDOF 10
ENDMDL
