MODEL 1
REMARK VINA RESULT:      -9.2      0.000      0.000
REMARK  16 active torsions:
REMARK  status: ('A' for Active; 'I' for Inactive)
REMARK    1  A    between atoms: O_2  and  C_22 
REMARK    2  A    between atoms: O_2  and  C_26 
REMARK    3  A    between atoms: O_4  and  C_18 
REMARK    4  A    between atoms: O_5  and  C_19 
REMARK    5  A    between atoms: O_6  and  C_25 
REMARK    6  A    between atoms: O_6  and  C_29 
REMARK    7  A    between atoms: O_7  and  C_20 
REMARK    8  A    between atoms: O_8  and  C_21 
REMARK    9  A    between atoms: O_9  and  C_23 
REMARK   10  A    between atoms: O_10  and  C_24 
REMARK   11  A    between atoms: O_13  and  C_35 
REMARK   12  A    between atoms: O_14  and  C_40 
REMARK   13  A    between atoms: O_15  and  C_41 
REMARK   14  A    between atoms: O_16  and  C_43 
REMARK   15  A    between atoms: C_17  and  C_26 
REMARK   16  A    between atoms: C_30  and  C_33 
ROOT
HETATM    1  O   UNK     0     148.359 199.850 167.315  0.00  0.00    -0.348 OA
HETATM    2  C   UNK     0     148.724 201.033 168.029  0.00  0.00     0.180 C 
HETATM    3  C   UNK     0     147.478 201.873 168.321  0.00  0.00     0.180 C 
HETATM    4  C   UNK     0     146.729 202.198 167.028  0.00  0.00     0.183 C 
HETATM    5  C   UNK     0     146.505 200.942 166.187  0.00  0.00     0.205 C 
HETATM    6  C   UNK     0     147.795 200.136 166.037  0.00  0.00     0.298 C 
ENDROOT
BRANCH   2   7
HETATM    7  C   UNK     0     149.425 200.597 169.312  0.00  0.00     0.205 C 
BRANCH   7   8
HETATM    8  O   UNK     0     150.815 200.859 169.192  0.00  0.00    -0.356 OA
BRANCH   8   9
HETATM    9  C   UNK     0     151.321 200.426 167.934  0.00  0.00     0.291 C 
HETATM   10  O   UNK     0     151.986 199.161 168.020  0.00  0.00    -0.351 OA
HETATM   11  C   UNK     0     153.165 199.173 168.830  0.00  0.00     0.152 C 
HETATM   12  C   UNK     0     154.194 200.177 168.292  0.00  0.00     0.178 C 
HETATM   13  C   UNK     0     153.712 197.747 168.843  0.00  0.00     0.042 C 
HETATM   14  C   UNK     0     153.557 201.561 168.157  0.00  0.00     0.183 C 
HETATM   15  C   UNK     0     152.254 201.489 167.358  0.00  0.00     0.204 C 
BRANCH  12  16
HETATM   16  O   UNK     0     155.298 200.282 169.188  0.00  0.00    -0.390 OA
HETATM   17  H   UNK     0     156.029 199.754 168.825  0.00  0.00     0.210 HD
ENDBRANCH  12  16
BRANCH  14  18
HETATM   18  O   UNK     0     154.475 202.440 167.511  0.00  0.00    -0.390 OA
HETATM   19  H   UNK     0     155.276 202.489 168.061  0.00  0.00     0.210 HD
ENDBRANCH  14  18
BRANCH  15  20
HETATM   20  O   UNK     0     152.533 201.135 166.003  0.00  0.00    -0.388 OA
HETATM   21  H   UNK     0     153.356 200.617 165.984  0.00  0.00     0.210 HD
ENDBRANCH  15  20
ENDBRANCH   8   9
ENDBRANCH   7   8
ENDBRANCH   2   7
BRANCH   6  22
HETATM   22  O   UNK     0     147.477 198.916 165.368  0.00  0.00    -0.311 OA
BRANCH  22  23
HETATM   23  C   UNK     0     148.383 197.923 165.666  0.00  0.00     0.157 A 
HETATM   24  C   UNK     0     148.030 196.747 166.216  0.00  0.00     0.124 A 
HETATM   25  O   UNK     0     148.919 195.740 166.559  0.00  0.00    -0.306 OA
HETATM   26  C   UNK     0     150.253 195.932 166.307  0.00  0.00     0.096 A 
HETATM   27  C   UNK     0     150.753 197.099 165.733  0.00  0.00     0.084 A 
HETATM   28  C   UNK     0     151.122 194.897 166.653  0.00  0.00     0.075 A 
HETATM   29  C   UNK     0     149.816 198.176 165.380  0.00  0.00     0.223 A 
HETATM   30  C   UNK     0     152.124 197.240 165.500  0.00  0.00     0.085 A 
HETATM   31  O   UNK     0     150.197 199.225 164.878  0.00  0.00    -0.284 OA
HETATM   32  C   UNK     0     152.991 196.203 165.847  0.00  0.00     0.074 A 
HETATM   33  C   UNK     0     152.491 195.034 166.422  0.00  0.00     0.071 A 
BRANCH  24  34
HETATM   34  C   UNK     0     146.632 196.412 166.540  0.00  0.00     0.004 A 
HETATM   35  C   UNK     0     145.904 197.223 167.411  0.00  0.00     0.053 A 
HETATM   36  C   UNK     0     144.580 196.908 167.717  0.00  0.00     0.099 A 
HETATM   37  C   UNK     0     143.984 195.781 167.153  0.00  0.00     0.098 A 
HETATM   38  C   UNK     0     144.711 194.969 166.283  0.00  0.00     0.040 A 
HETATM   39  C   UNK     0     146.034 195.285 165.976  0.00  0.00     0.017 A 
BRANCH  36  40
HETATM   40  O   UNK     0     143.880 197.707 168.570  0.00  0.00    -0.358 OA
HETATM   41  H   UNK     0     142.978 197.833 168.234  0.00  0.00     0.217 HD
ENDBRANCH  36  40
BRANCH  37  42
HETATM   42  O   UNK     0     142.691 195.463 167.443  0.00  0.00    -0.358 OA
HETATM   43  H   UNK     0     142.518 194.540 167.199  0.00  0.00     0.217 HD
ENDBRANCH  37  42
ENDBRANCH  24  34
BRANCH  30  44
HETATM   44  O   UNK     0     152.663 198.359 164.943  0.00  0.00    -0.360 OA
HETATM   45  H   UNK     0     153.606 198.207 164.757  0.00  0.00     0.217 HD
ENDBRANCH  30  44
BRANCH  33  46
HETATM   46  O   UNK     0     153.341 194.025 166.759  0.00  0.00    -0.361 OA
HETATM   47  H   UNK     0     152.830 193.306 167.169  0.00  0.00     0.217 HD
ENDBRANCH  33  46
ENDBRANCH  22  23
ENDBRANCH   6  22
BRANCH   3  48
HETATM   48  O   UNK     0     147.867 203.087 168.958  0.00  0.00    -0.390 OA
HETATM   49  H   UNK     0     148.757 202.960 169.329  0.00  0.00     0.210 HD
ENDBRANCH   3  48
BRANCH   5  50
HETATM   50  O   UNK     0     146.057 201.317 164.885  0.00  0.00    -0.388 OA
HETATM   51  H   UNK     0     146.443 202.183 164.671  0.00  0.00     0.210 HD
ENDBRANCH   5  50
BRANCH   4  52
HETATM   52  O   UNK     0     145.466 202.765 167.382  0.00  0.00    -0.390 OA
HETATM   53  H   UNK     0     145.630 203.672 167.692  0.00  0.00     0.210 HD
ENDBRANCH   4  52
TORSDOF 16
ENDMDL
MODEL 2
REMARK VINA RESULT:      -9.1      2.767      8.011
REMARK  16 active torsions:
REMARK  status: ('A' for Active; 'I' for Inactive)
REMARK    1  A    between atoms: O_2  and  C_22 
REMARK    2  A    between atoms: O_2  and  C_26 
REMARK    3  A    between atoms: O_4  and  C_18 
REMARK    4  A    between atoms: O_5  and  C_19 
REMARK    5  A    between atoms: O_6  and  C_25 
REMARK    6  A    between atoms: O_6  and  C_29 
REMARK    7  A    between atoms: O_7  and  C_20 
REMARK    8  A    between atoms: O_8  and  C_21 
REMARK    9  A    between atoms: O_9  and  C_23 
REMARK   10  A    between atoms: O_10  and  C_24 
REMARK   11  A    between atoms: O_13  and  C_35 
REMARK   12  A    between atoms: O_14  and  C_40 
REMARK   13  A    between atoms: O_15  and  C_41 
REMARK   14  A    between atoms: O_16  and  C_43 
REMARK   15  A    between atoms: C_17  and  C_26 
REMARK   16  A    between atoms: C_30  and  C_33 
ROOT
HETATM    1  O   UNK     0     151.729 197.459 166.928  0.00  0.00    -0.348 OA
HETATM    2  C   UNK     0     150.778 196.469 167.326  0.00  0.00     0.180 C 
HETATM    3  C   UNK     0     151.487 195.335 168.071  0.00  0.00     0.180 C 
HETATM    4  C   UNK     0     152.605 194.739 167.216  0.00  0.00     0.183 C 
HETATM    5  C   UNK     0     153.510 195.832 166.647  0.00  0.00     0.205 C 
HETATM    6  C   UNK     0     152.692 196.953 166.006  0.00  0.00     0.298 C 
ENDROOT
BRANCH   2   7
HETATM    7  C   UNK     0     149.737 197.158 168.202  0.00  0.00     0.205 C 
BRANCH   7   8
HETATM    8  O   UNK     0     149.008 198.085 167.412  0.00  0.00    -0.356 OA
BRANCH   8   9
HETATM    9  C   UNK     0     147.607 197.969 167.633  0.00  0.00     0.291 C 
HETATM   10  O   UNK     0     147.093 196.698 167.224  0.00  0.00    -0.351 OA
HETATM   11  C   UNK     0     147.198 196.448 165.819  0.00  0.00     0.152 C 
HETATM   12  C   UNK     0     146.440 197.510 165.011  0.00  0.00     0.178 C 
HETATM   13  C   UNK     0     146.650 195.044 165.573  0.00  0.00     0.042 C 
HETATM   14  C   UNK     0     146.923 198.909 165.399  0.00  0.00     0.183 C 
HETATM   15  C   UNK     0     146.876 199.103 166.916  0.00  0.00     0.204 C 
BRANCH  12  16
HETATM   16  O   UNK     0     146.675 197.331 163.616  0.00  0.00    -0.390 OA
HETATM   17  H   UNK     0     147.623 197.155 163.493  0.00  0.00     0.210 HD
ENDBRANCH  12  16
BRANCH  14  18
HETATM   18  O   UNK     0     146.102 199.883 164.759  0.00  0.00    -0.390 OA
HETATM   19  H   UNK     0     145.194 199.768 165.087  0.00  0.00     0.210 HD
ENDBRANCH  14  18
BRANCH  15  20
HETATM   20  O   UNK     0     145.520 199.099 167.365  0.00  0.00    -0.388 OA
HETATM   21  H   UNK     0     145.352 198.259 167.826  0.00  0.00     0.210 HD
ENDBRANCH  15  20
ENDBRANCH   8   9
ENDBRANCH   7   8
ENDBRANCH   2   7
BRANCH   6  22
HETATM   22  O   UNK     0     153.592 197.995 165.631  0.00  0.00    -0.311 OA
BRANCH  22  23
HETATM   23  C   UNK     0     153.136 198.687 164.531  0.00  0.00     0.157 A 
HETATM   24  C   UNK     0     152.874 200.006 164.549  0.00  0.00     0.124 A 
HETATM   25  O   UNK     0     152.384 200.726 163.471  0.00  0.00    -0.306 OA
HETATM   26  C   UNK     0     152.163 200.066 162.290  0.00  0.00     0.096 A 
HETATM   27  C   UNK     0     152.400 198.703 162.131  0.00  0.00     0.084 A 
HETATM   28  C   UNK     0     151.679 200.819 161.220  0.00  0.00     0.075 A 
HETATM   29  C   UNK     0     152.908 197.930 163.276  0.00  0.00     0.223 A 
HETATM   30  C   UNK     0     152.156 198.081 160.903  0.00  0.00     0.085 A 
HETATM   31  O   UNK     0     153.130 196.730 163.197  0.00  0.00    -0.284 OA
HETATM   32  C   UNK     0     151.672 198.838 159.834  0.00  0.00     0.074 A 
HETATM   33  C   UNK     0     151.434 200.203 159.992  0.00  0.00     0.071 A 
BRANCH  24  34
HETATM   34  C   UNK     0     153.065 200.835 165.753  0.00  0.00     0.004 A 
HETATM   35  C   UNK     0     154.284 201.477 165.973  0.00  0.00     0.053 A 
HETATM   36  C   UNK     0     154.464 202.263 167.111  0.00  0.00     0.099 A 
HETATM   37  C   UNK     0     153.426 202.405 168.031  0.00  0.00     0.098 A 
HETATM   38  C   UNK     0     152.207 201.762 167.813  0.00  0.00     0.040 A 
HETATM   39  C   UNK     0     152.027 200.978 166.674  0.00  0.00     0.017 A 
BRANCH  36  40
HETATM   40  O   UNK     0     155.660 202.884 167.315  0.00  0.00    -0.358 OA
HETATM   41  H   UNK     0     155.526 203.678 167.857  0.00  0.00     0.217 HD
ENDBRANCH  36  40
BRANCH  37  42
HETATM   42  O   UNK     0     153.590 203.170 169.146  0.00  0.00    -0.358 OA
HETATM   43  H   UNK     0     154.516 203.137 169.433  0.00  0.00     0.217 HD
ENDBRANCH  37  42
ENDBRANCH  24  34
BRANCH  30  44
HETATM   44  O   UNK     0     152.370 196.753 160.696  0.00  0.00    -0.360 OA
HETATM   45  H   UNK     0     153.170 196.634 160.155  0.00  0.00     0.217 HD
ENDBRANCH  30  44
BRANCH  33  46
HETATM   46  O   UNK     0     150.962 200.936 158.947  0.00  0.00    -0.361 OA
HETATM   47  H   UNK     0     150.738 200.336 158.215  0.00  0.00     0.217 HD
ENDBRANCH  33  46
ENDBRANCH  22  23
ENDBRANCH   6  22
BRANCH   3  48
HETATM   48  O   UNK     0     150.542 194.317 168.388  0.00  0.00    -0.390 OA
HETATM   49  H   UNK     0     149.752 194.458 167.840  0.00  0.00     0.210 HD
ENDBRANCH   3  48
BRANCH   5  50
HETATM   50  O   UNK     0     154.360 195.270 165.647  0.00  0.00    -0.388 OA
HETATM   51  H   UNK     0     154.207 194.311 165.625  0.00  0.00     0.210 HD
ENDBRANCH   5  50
BRANCH   4  52
HETATM   52  O   UNK     0     153.376 193.866 168.043  0.00  0.00    -0.390 OA
HETATM   53  H   UNK     0     153.425 194.270 168.926  0.00  0.00     0.210 HD
ENDBRANCH   4  52
TORSDOF 16
ENDMDL
MODEL 3
REMARK VINA RESULT:      -8.9     23.828     27.807
REMARK  16 active torsions:
REMARK  status: ('A' for Active; 'I' for Inactive)
REMARK    1  A    between atoms: O_2  and  C_22 
REMARK    2  A    between atoms: O_2  and  C_26 
REMARK    3  A    between atoms: O_4  and  C_18 
REMARK    4  A    between atoms: O_5  and  C_19 
REMARK    5  A    between atoms: O_6  and  C_25 
REMARK    6  A    between atoms: O_6  and  C_29 
REMARK    7  A    between atoms: O_7  and  C_20 
REMARK    8  A    between atoms: O_8  and  C_21 
REMARK    9  A    between atoms: O_9  and  C_23 
REMARK   10  A    between atoms: O_10  and  C_24 
REMARK   11  A    between atoms: O_13  and  C_35 
REMARK   12  A    between atoms: O_14  and  C_40 
REMARK   13  A    between atoms: O_15  and  C_41 
REMARK   14  A    between atoms: O_16  and  C_43 
REMARK   15  A    between atoms: C_17  and  C_26 
REMARK   16  A    between atoms: C_30  and  C_33 
ROOT
HETATM    1  O   UNK     0     169.765 179.972 172.462  0.00  0.00    -0.348 OA
HETATM    2  C   UNK     0     170.500 178.767 172.239  0.00  0.00     0.180 C 
HETATM    3  C   UNK     0     171.198 178.334 173.530  0.00  0.00     0.180 C 
HETATM    4  C   UNK     0     172.091 179.453 174.065  0.00  0.00     0.183 C 
HETATM    5  C   UNK     0     171.338 180.782 174.127  0.00  0.00     0.205 C 
HETATM    6  C   UNK     0     170.606 181.067 172.815  0.00  0.00     0.298 C 
ENDROOT
BRANCH   2   7
HETATM    7  C   UNK     0     169.513 177.711 171.749  0.00  0.00     0.205 C 
BRANCH   7   8
HETATM    8  O   UNK     0     168.917 178.161 170.541  0.00  0.00    -0.356 OA
BRANCH   8   9
HETATM    9  C   UNK     0     169.783 177.962 169.428  0.00  0.00     0.291 C 
HETATM   10  O   UNK     0     169.707 179.032 168.480  0.00  0.00    -0.351 OA
HETATM   11  C   UNK     0     168.431 179.165 167.848  0.00  0.00     0.152 C 
HETATM   12  C   UNK     0     168.051 177.882 167.096  0.00  0.00     0.178 C 
HETATM   13  C   UNK     0     168.519 180.369 166.913  0.00  0.00     0.042 C 
HETATM   14  C   UNK     0     168.119 176.681 168.040  0.00  0.00     0.183 C 
HETATM   15  C   UNK     0     169.467 176.625 168.760  0.00  0.00     0.204 C 
BRANCH  12  16
HETATM   16  O   UNK     0     166.719 177.978 166.596  0.00  0.00    -0.390 OA
HETATM   17  H   UNK     0     166.112 177.732 167.314  0.00  0.00     0.210 HD
ENDBRANCH  12  16
BRANCH  14  18
HETATM   18  O   UNK     0     167.918 175.483 167.292  0.00  0.00    -0.390 OA
HETATM   19  H   UNK     0     168.075 174.731 167.889  0.00  0.00     0.210 HD
ENDBRANCH  14  18
BRANCH  15  20
HETATM   20  O   UNK     0     170.509 176.351 167.822  0.00  0.00    -0.388 OA
HETATM   21  H   UNK     0     170.648 175.389 167.791  0.00  0.00     0.210 HD
ENDBRANCH  15  20
ENDBRANCH   8   9
ENDBRANCH   7   8
ENDBRANCH   2   7
BRANCH   6  22
HETATM   22  O   UNK     0     169.817 182.242 172.998  0.00  0.00    -0.311 OA
BRANCH  22  23
HETATM   23  C   UNK     0     169.844 183.050 171.883  0.00  0.00     0.157 A 
HETATM   24  C   UNK     0     168.807 183.166 171.034  0.00  0.00     0.124 A 
HETATM   25  O   UNK     0     168.814 183.945 169.887  0.00  0.00    -0.306 OA
HETATM   26  C   UNK     0     169.940 184.669 169.594  0.00  0.00     0.096 A 
HETATM   27  C   UNK     0     171.081 184.647 170.394  0.00  0.00     0.084 A 
HETATM   28  C   UNK     0     169.913 185.451 168.438  0.00  0.00     0.075 A 
HETATM   29  C   UNK     0     171.085 183.812 171.605  0.00  0.00     0.223 A 
HETATM   30  C   UNK     0     172.202 185.405 170.045  0.00  0.00     0.085 A 
HETATM   31  O   UNK     0     172.060 183.749 172.342  0.00  0.00    -0.284 OA
HETATM   32  C   UNK     0     172.172 186.186 168.889  0.00  0.00     0.074 A 
HETATM   33  C   UNK     0     171.030 186.209 168.088  0.00  0.00     0.071 A 
BRANCH  24  34
HETATM   34  C   UNK     0     167.539 182.441 171.229  0.00  0.00     0.004 A 
HETATM   35  C   UNK     0     167.399 181.139 170.749  0.00  0.00     0.053 A 
HETATM   36  C   UNK     0     166.199 180.452 170.935  0.00  0.00     0.099 A 
HETATM   37  C   UNK     0     165.138 181.068 171.599  0.00  0.00     0.098 A 
HETATM   38  C   UNK     0     165.278 182.371 172.077  0.00  0.00     0.040 A 
HETATM   39  C   UNK     0     166.478 183.057 171.893  0.00  0.00     0.017 A 
BRANCH  36  40
HETATM   40  O   UNK     0     166.074 179.180 170.461  0.00  0.00    -0.358 OA
HETATM   41  H   UNK     0     166.804 178.634 170.793  0.00  0.00     0.217 HD
ENDBRANCH  36  40
BRANCH  37  42
HETATM   42  O   UNK     0     163.962 180.407 171.787  0.00  0.00    -0.358 OA
HETATM   43  H   UNK     0     163.717 179.938 170.974  0.00  0.00     0.217 HD
ENDBRANCH  37  42
ENDBRANCH  24  34
BRANCH  30  44
HETATM   44  O   UNK     0     173.341 185.418 170.790  0.00  0.00    -0.360 OA
HETATM   45  H   UNK     0     174.001 184.828 170.387  0.00  0.00     0.217 HD
ENDBRANCH  30  44
BRANCH  33  46
HETATM   46  O   UNK     0     171.005 186.972 166.961  0.00  0.00    -0.361 OA
HETATM   47  H   UNK     0     171.135 186.398 166.187  0.00  0.00     0.217 HD
ENDBRANCH  33  46
ENDBRANCH  22  23
ENDBRANCH   6  22
BRANCH   3  48
HETATM   48  O   UNK     0     171.993 177.180 173.272  0.00  0.00    -0.390 OA
HETATM   49  H   UNK     0     172.702 177.148 173.936  0.00  0.00     0.210 HD
ENDBRANCH   3  48
BRANCH   5  50
HETATM   50  O   UNK     0     172.264 181.842 174.363  0.00  0.00    -0.388 OA
HETATM   51  H   UNK     0     172.097 182.195 175.253  0.00  0.00     0.210 HD
ENDBRANCH   5  50
BRANCH   4  52
HETATM   52  O   UNK     0     172.518 179.087 175.379  0.00  0.00    -0.390 OA
HETATM   53  H   UNK     0     172.552 179.901 175.911  0.00  0.00     0.210 HD
ENDBRANCH   4  52
TORSDOF 16
ENDMDL
MODEL 4
REMARK VINA RESULT:      -8.9      2.698      7.660
REMARK  16 active torsions:
REMARK  status: ('A' for Active; 'I' for Inactive)
REMARK    1  A    between atoms: O_2  and  C_22 
REMARK    2  A    between atoms: O_2  and  C_26 
REMARK    3  A    between atoms: O_4  and  C_18 
REMARK    4  A    between atoms: O_5  and  C_19 
REMARK    5  A    between atoms: O_6  and  C_25 
REMARK    6  A    between atoms: O_6  and  C_29 
REMARK    7  A    between atoms: O_7  and  C_20 
REMARK    8  A    between atoms: O_8  and  C_21 
REMARK    9  A    between atoms: O_9  and  C_23 
REMARK   10  A    between atoms: O_10  and  C_24 
REMARK   11  A    between atoms: O_13  and  C_35 
REMARK   12  A    between atoms: O_14  and  C_40 
REMARK   13  A    between atoms: O_15  and  C_41 
REMARK   14  A    between atoms: O_16  and  C_43 
REMARK   15  A    between atoms: C_17  and  C_26 
REMARK   16  A    between atoms: C_30  and  C_33 
ROOT
HETATM    1  O   UNK     0     151.925 196.910 166.109  0.00  0.00    -0.348 OA
HETATM    2  C   UNK     0     151.069 195.817 166.445  0.00  0.00     0.180 C 
HETATM    3  C   UNK     0     151.417 195.290 167.839  0.00  0.00     0.180 C 
HETATM    4  C   UNK     0     152.893 194.900 167.918  0.00  0.00     0.183 C 
HETATM    5  C   UNK     0     153.791 196.017 167.383  0.00  0.00     0.205 C 
HETATM    6  C   UNK     0     153.296 196.526 166.029  0.00  0.00     0.298 C 
ENDROOT
BRANCH   2   7
HETATM    7  C   UNK     0     149.631 196.322 166.374  0.00  0.00     0.205 C 
BRANCH   7   8
HETATM    8  O   UNK     0     149.602 197.533 165.633  0.00  0.00    -0.356 OA
BRANCH   8   9
HETATM    9  C   UNK     0     148.514 198.361 166.030  0.00  0.00     0.291 C 
HETATM   10  O   UNK     0     148.580 199.666 165.448  0.00  0.00    -0.351 OA
HETATM   11  C   UNK     0     149.711 200.437 165.863  0.00  0.00     0.152 C 
HETATM   12  C   UNK     0     149.716 200.633 167.386  0.00  0.00     0.178 C 
HETATM   13  C   UNK     0     149.643 201.767 165.116  0.00  0.00     0.042 C 
HETATM   14  C   UNK     0     149.635 199.278 168.090  0.00  0.00     0.183 C 
HETATM   15  C   UNK     0     148.464 198.452 167.555  0.00  0.00     0.204 C 
BRANCH  12  16
HETATM   16  O   UNK     0     150.921 201.276 167.797  0.00  0.00    -0.390 OA
HETATM   17  H   UNK     0     151.630 200.610 167.795  0.00  0.00     0.210 HD
ENDBRANCH  12  16
BRANCH  14  18
HETATM   18  O   UNK     0     149.482 199.486 169.492  0.00  0.00    -0.390 OA
HETATM   19  H   UNK     0     150.369 199.617 169.871  0.00  0.00     0.210 HD
ENDBRANCH  14  18
BRANCH  15  20
HETATM   20  O   UNK     0     147.228 199.071 167.913  0.00  0.00    -0.388 OA
HETATM   21  H   UNK     0     146.500 198.503 167.606  0.00  0.00     0.210 HD
ENDBRANCH  15  20
ENDBRANCH   8   9
ENDBRANCH   7   8
ENDBRANCH   2   7
BRANCH   6  22
HETATM   22  O   UNK     0     154.092 197.654 165.666  0.00  0.00    -0.311 OA
BRANCH  22  23
HETATM   23  C   UNK     0     153.564 198.319 164.582  0.00  0.00     0.157 A 
HETATM   24  C   UNK     0     153.368 199.650 164.561  0.00  0.00     0.124 A 
HETATM   25  O   UNK     0     152.810 200.346 163.500  0.00  0.00    -0.306 OA
HETATM   26  C   UNK     0     152.445 199.646 162.379  0.00  0.00     0.096 A 
HETATM   27  C   UNK     0     152.601 198.267 162.265  0.00  0.00     0.084 A 
HETATM   28  C   UNK     0     151.895 200.375 161.324  0.00  0.00     0.075 A 
HETATM   29  C   UNK     0     153.181 197.521 163.393  0.00  0.00     0.223 A 
HETATM   30  C   UNK     0     152.209 197.605 161.098  0.00  0.00     0.085 A 
HETATM   31  O   UNK     0     153.337 196.308 163.353  0.00  0.00    -0.284 OA
HETATM   32  C   UNK     0     151.660 198.337 160.044  0.00  0.00     0.074 A 
HETATM   33  C   UNK     0     151.503 199.719 160.157  0.00  0.00     0.071 A 
BRANCH  24  34
HETATM   34  C   UNK     0     153.714 200.519 165.699  0.00  0.00     0.004 A 
HETATM   35  C   UNK     0     154.185 199.960 166.887  0.00  0.00     0.053 A 
HETATM   36  C   UNK     0     154.514 200.783 167.964  0.00  0.00     0.099 A 
HETATM   37  C   UNK     0     154.370 202.166 167.854  0.00  0.00     0.098 A 
HETATM   38  C   UNK     0     153.898 202.726 166.667  0.00  0.00     0.040 A 
HETATM   39  C   UNK     0     153.571 201.903 165.590  0.00  0.00     0.017 A 
BRANCH  36  40
HETATM   40  O   UNK     0     154.971 200.224 169.120  0.00  0.00    -0.358 OA
HETATM   41  H   UNK     0     155.531 200.862 169.591  0.00  0.00     0.217 HD
ENDBRANCH  36  40
BRANCH  37  42
HETATM   42  O   UNK     0     154.688 202.980 168.899  0.00  0.00    -0.358 OA
HETATM   43  H   UNK     0     153.985 202.945 169.567  0.00  0.00     0.217 HD
ENDBRANCH  37  42
ENDBRANCH  24  34
BRANCH  30  44
HETATM   44  O   UNK     0     152.340 196.260 160.936  0.00  0.00    -0.360 OA
HETATM   45  H   UNK     0     153.006 196.078 160.251  0.00  0.00     0.217 HD
ENDBRANCH  30  44
BRANCH  33  46
HETATM   46  O   UNK     0     150.966 200.429 159.126  0.00  0.00    -0.361 OA
HETATM   47  H   UNK     0     150.806 201.341 159.422  0.00  0.00     0.217 HD
ENDBRANCH  33  46
ENDBRANCH  22  23
ENDBRANCH   6  22
BRANCH   3  48
HETATM   48  O   UNK     0     150.613 194.149 168.126  0.00  0.00    -0.390 OA
HETATM   49  H   UNK     0     149.726 194.461 168.373  0.00  0.00     0.210 HD
ENDBRANCH   3  48
BRANCH   5  50
HETATM   50  O   UNK     0     155.118 195.520 167.218  0.00  0.00    -0.388 OA
HETATM   51  H   UNK     0     155.548 196.037 166.516  0.00  0.00     0.210 HD
ENDBRANCH   5  50
BRANCH   4  52
HETATM   52  O   UNK     0     153.211 194.651 169.289  0.00  0.00    -0.390 OA
HETATM   53  H   UNK     0     153.462 193.715 169.364  0.00  0.00     0.210 HD
ENDBRANCH   4  52
TORSDOF 16
ENDMDL
MODEL 5
REMARK VINA RESULT:      -8.8     14.104     17.122
REMARK  16 active torsions:
REMARK  status: ('A' for Active; 'I' for Inactive)
REMARK    1  A    between atoms: O_2  and  C_22 
REMARK    2  A    between atoms: O_2  and  C_26 
REMARK    3  A    between atoms: O_4  and  C_18 
REMARK    4  A    between atoms: O_5  and  C_19 
REMARK    5  A    between atoms: O_6  and  C_25 
REMARK    6  A    between atoms: O_6  and  C_29 
REMARK    7  A    between atoms: O_7  and  C_20 
REMARK    8  A    between atoms: O_8  and  C_21 
REMARK    9  A    between atoms: O_9  and  C_23 
REMARK   10  A    between atoms: O_10  and  C_24 
REMARK   11  A    between atoms: O_13  and  C_35 
REMARK   12  A    between atoms: O_14  and  C_40 
REMARK   13  A    between atoms: O_15  and  C_41 
REMARK   14  A    between atoms: O_16  and  C_43 
REMARK   15  A    between atoms: C_17  and  C_26 
REMARK   16  A    between atoms: C_30  and  C_33 
ROOT
HETATM    1  O   UNK     0     155.699 187.035 158.525  0.00  0.00    -0.348 OA
HETATM    2  C   UNK     0     155.688 186.809 159.936  0.00  0.00     0.180 C 
HETATM    3  C   UNK     0     156.101 185.367 160.237  0.00  0.00     0.180 C 
HETATM    4  C   UNK     0     155.199 184.378 159.498  0.00  0.00     0.183 C 
HETATM    5  C   UNK     0     155.077 184.742 158.018  0.00  0.00     0.205 C 
HETATM    6  C   UNK     0     154.750 186.224 157.835  0.00  0.00     0.298 C 
ENDROOT
BRANCH   2   7
HETATM    7  C   UNK     0     156.644 187.816 160.569  0.00  0.00     0.205 C 
BRANCH   7   8
HETATM    8  O   UNK     0     157.801 187.131 161.024  0.00  0.00    -0.356 OA
BRANCH   8   9
HETATM    9  C   UNK     0     158.899 187.317 160.136  0.00  0.00     0.291 C 
HETATM   10  O   UNK     0     159.538 186.083 159.793  0.00  0.00    -0.351 OA
HETATM   11  C   UNK     0     160.155 185.414 160.897  0.00  0.00     0.152 C 
HETATM   12  C   UNK     0     161.226 186.299 161.550  0.00  0.00     0.178 C 
HETATM   13  C   UNK     0     160.741 184.111 160.360  0.00  0.00     0.042 C 
HETATM   14  C   UNK     0     160.625 187.651 161.940  0.00  0.00     0.183 C 
HETATM   15  C   UNK     0     159.902 188.291 160.753  0.00  0.00     0.204 C 
BRANCH  12  16
HETATM   16  O   UNK     0     161.725 185.679 162.733  0.00  0.00    -0.390 OA
HETATM   17  H   UNK     0     161.535 186.268 163.482  0.00  0.00     0.210 HD
ENDBRANCH  12  16
BRANCH  14  18
HETATM   18  O   UNK     0     161.664 188.512 162.397  0.00  0.00    -0.390 OA
HETATM   19  H   UNK     0     162.133 188.055 163.117  0.00  0.00     0.210 HD
ENDBRANCH  14  18
BRANCH  15  20
HETATM   20  O   UNK     0     160.846 188.643 159.740  0.00  0.00    -0.388 OA
HETATM   21  H   UNK     0     161.063 187.843 159.232  0.00  0.00     0.210 HD
ENDBRANCH  15  20
ENDBRANCH   8   9
ENDBRANCH   7   8
ENDBRANCH   2   7
BRANCH   6  22
HETATM   22  O   UNK     0     154.794 186.515 156.438  0.00  0.00    -0.311 OA
BRANCH  22  23
HETATM   23  C   UNK     0     154.241 187.745 156.159  0.00  0.00     0.157 A 
HETATM   24  C   UNK     0     154.962 188.879 156.099  0.00  0.00     0.124 A 
HETATM   25  O   UNK     0     154.432 190.136 155.853  0.00  0.00    -0.306 OA
HETATM   26  C   UNK     0     153.083 190.245 155.633  0.00  0.00     0.096 A 
HETATM   27  C   UNK     0     152.223 189.150 155.657  0.00  0.00     0.084 A 
HETATM   28  C   UNK     0     152.581 191.522 155.378  0.00  0.00     0.075 A 
HETATM   29  C   UNK     0     152.777 187.815 155.931  0.00  0.00     0.223 A 
HETATM   30  C   UNK     0     150.855 189.321 155.427  0.00  0.00     0.085 A 
HETATM   31  O   UNK     0     152.069 186.818 155.971  0.00  0.00    -0.284 OA
HETATM   32  C   UNK     0     150.355 190.600 155.172  0.00  0.00     0.074 A 
HETATM   33  C   UNK     0     151.216 191.697 155.147  0.00  0.00     0.071 A 
BRANCH  24  34
HETATM   34  C   UNK     0     156.419 188.903 156.318  0.00  0.00     0.004 A 
HETATM   35  C   UNK     0     157.216 187.867 155.830  0.00  0.00     0.053 A 
HETATM   36  C   UNK     0     158.595 187.890 156.036  0.00  0.00     0.099 A 
HETATM   37  C   UNK     0     159.178 188.950 156.731  0.00  0.00     0.098 A 
HETATM   38  C   UNK     0     158.382 189.986 157.219  0.00  0.00     0.040 A 
HETATM   39  C   UNK     0     157.003 189.963 157.012  0.00  0.00     0.017 A 
BRANCH  36  40
HETATM   40  O   UNK     0     159.362 186.871 155.556  0.00  0.00    -0.358 OA
HETATM   41  H   UNK     0     159.244 186.084 156.112  0.00  0.00     0.217 HD
ENDBRANCH  36  40
BRANCH  37  42
HETATM   42  O   UNK     0     160.524 188.984 156.937  0.00  0.00    -0.358 OA
HETATM   43  H   UNK     0     160.939 189.582 156.296  0.00  0.00     0.217 HD
ENDBRANCH  37  42
ENDBRANCH  24  34
BRANCH  30  44
HETATM   44  O   UNK     0     149.972 188.286 155.440  0.00  0.00    -0.360 OA
HETATM   45  H   UNK     0     150.145 187.701 154.682  0.00  0.00     0.217 HD
ENDBRANCH  30  44
BRANCH  33  46
HETATM   46  O   UNK     0     150.724 192.942 154.898  0.00  0.00    -0.361 OA
HETATM   47  H   UNK     0     151.103 193.565 155.540  0.00  0.00     0.217 HD
ENDBRANCH  33  46
ENDBRANCH  22  23
ENDBRANCH   6  22
BRANCH   3  48
HETATM   48  O   UNK     0     156.004 185.133 161.640  0.00  0.00    -0.390 OA
HETATM   49  H   UNK     0     156.872 185.321 162.037  0.00  0.00     0.210 HD
ENDBRANCH   3  48
BRANCH   5  50
HETATM   50  O   UNK     0     154.027 183.976 157.427  0.00  0.00    -0.388 OA
HETATM   51  H   UNK     0     153.401 184.592 157.013  0.00  0.00     0.210 HD
ENDBRANCH   5  50
BRANCH   4  52
HETATM   52  O   UNK     0     155.777 183.077 159.621  0.00  0.00    -0.390 OA
HETATM   53  H   UNK     0     156.540 183.153 160.219  0.00  0.00     0.210 HD
ENDBRANCH   4  52
TORSDOF 16
ENDMDL
MODEL 6
REMARK VINA RESULT:      -8.8     21.052     25.268
REMARK  16 active torsions:
REMARK  status: ('A' for Active; 'I' for Inactive)
REMARK    1  A    between atoms: O_2  and  C_22 
REMARK    2  A    between atoms: O_2  and  C_26 
REMARK    3  A    between atoms: O_4  and  C_18 
REMARK    4  A    between atoms: O_5  and  C_19 
REMARK    5  A    between atoms: O_6  and  C_25 
REMARK    6  A    between atoms: O_6  and  C_29 
REMARK    7  A    between atoms: O_7  and  C_20 
REMARK    8  A    between atoms: O_8  and  C_21 
REMARK    9  A    between atoms: O_9  and  C_23 
REMARK   10  A    between atoms: O_10  and  C_24 
REMARK   11  A    between atoms: O_13  and  C_35 
REMARK   12  A    between atoms: O_14  and  C_40 
REMARK   13  A    between atoms: O_15  and  C_41 
REMARK   14  A    between atoms: O_16  and  C_43 
REMARK   15  A    between atoms: C_17  and  C_26 
REMARK   16  A    between atoms: C_30  and  C_33 
ROOT
HETATM    1  O   UNK     0     165.371 180.842 171.474  0.00  0.00    -0.348 OA
HETATM    2  C   UNK     0     166.528 180.003 171.472  0.00  0.00     0.180 C 
HETATM    3  C   UNK     0     166.783 179.468 170.061  0.00  0.00     0.180 C 
HETATM    4  C   UNK     0     165.551 178.736 169.529  0.00  0.00     0.183 C 
HETATM    5  C   UNK     0     164.287 179.578 169.705  0.00  0.00     0.205 C 
HETATM    6  C   UNK     0     164.184 180.134 171.125  0.00  0.00     0.298 C 
ENDROOT
BRANCH   2   7
HETATM    7  C   UNK     0     167.700 180.838 171.980  0.00  0.00     0.205 C 
BRANCH   7   8
HETATM    8  O   UNK     0     168.674 179.973 172.544  0.00  0.00    -0.356 OA
BRANCH   8   9
HETATM    9  C   UNK     0     169.967 180.220 172.002  0.00  0.00     0.291 C 
HETATM   10  O   UNK     0     170.703 179.014 171.775  0.00  0.00    -0.351 OA
HETATM   11  C   UNK     0     171.011 178.281 172.965  0.00  0.00     0.152 C 
HETATM   12  C   UNK     0     171.844 179.130 173.935  0.00  0.00     0.178 C 
HETATM   13  C   UNK     0     171.750 177.017 172.532  0.00  0.00     0.042 C 
HETATM   14  C   UNK     0     171.130 180.451 174.224  0.00  0.00     0.183 C 
HETATM   15  C   UNK     0     170.743 181.159 172.924  0.00  0.00     0.204 C 
BRANCH  12  16
HETATM   16  O   UNK     0     172.018 178.440 175.171  0.00  0.00    -0.390 OA
HETATM   17  H   UNK     0     171.312 177.776 175.244  0.00  0.00     0.210 HD
ENDBRANCH  12  16
BRANCH  14  18
HETATM   18  O   UNK     0     171.987 181.289 174.997  0.00  0.00    -0.390 OA
HETATM   19  H   UNK     0     171.690 182.208 174.877  0.00  0.00     0.210 HD
ENDBRANCH  14  18
BRANCH  15  20
HETATM   20  O   UNK     0     171.918 181.579 172.229  0.00  0.00    -0.388 OA
HETATM   21  H   UNK     0     171.812 182.514 171.983  0.00  0.00     0.210 HD
ENDBRANCH  15  20
ENDBRANCH   8   9
ENDBRANCH   7   8
ENDBRANCH   2   7
BRANCH   6  22
HETATM   22  O   UNK     0     163.065 181.019 171.171  0.00  0.00    -0.311 OA
BRANCH  22  23
HETATM   23  C   UNK     0     163.279 182.063 172.044  0.00  0.00     0.157 A 
HETATM   24  C   UNK     0     162.861 182.048 173.323  0.00  0.00     0.124 A 
HETATM   25  O   UNK     0     163.032 183.093 174.218  0.00  0.00    -0.306 OA
HETATM   26  C   UNK     0     163.687 184.219 173.792  0.00  0.00     0.096 A 
HETATM   27  C   UNK     0     164.178 184.362 172.496  0.00  0.00     0.084 A 
HETATM   28  C   UNK     0     163.851 185.250 174.718  0.00  0.00     0.075 A 
HETATM   29  C   UNK     0     163.989 183.262 171.538  0.00  0.00     0.223 A 
HETATM   30  C   UNK     0     164.837 185.534 172.116  0.00  0.00     0.085 A 
HETATM   31  O   UNK     0     164.393 183.333 170.385  0.00  0.00    -0.284 OA
HETATM   32  C   UNK     0     165.000 186.563 173.045  0.00  0.00     0.074 A 
HETATM   33  C   UNK     0     164.509 186.421 174.343  0.00  0.00     0.071 A 
BRANCH  24  34
HETATM   34  C   UNK     0     162.143 180.902 173.909  0.00  0.00     0.004 A 
HETATM   35  C   UNK     0     162.828 179.720 174.193  0.00  0.00     0.053 A 
HETATM   36  C   UNK     0     162.149 178.636 174.748  0.00  0.00     0.099 A 
HETATM   37  C   UNK     0     160.785 178.733 175.020  0.00  0.00     0.098 A 
HETATM   38  C   UNK     0     160.099 179.914 174.735  0.00  0.00     0.040 A 
HETATM   39  C   UNK     0     160.778 180.998 174.181  0.00  0.00     0.017 A 
BRANCH  36  40
HETATM   40  O   UNK     0     162.829 177.487 175.020  0.00  0.00    -0.358 OA
HETATM   41  H   UNK     0     162.476 177.081 175.828  0.00  0.00     0.217 HD
ENDBRANCH  36  40
BRANCH  37  42
HETATM   42  O   UNK     0     160.111 177.681 175.563  0.00  0.00    -0.358 OA
HETATM   43  H   UNK     0     159.962 177.840 176.508  0.00  0.00     0.217 HD
ENDBRANCH  37  42
ENDBRANCH  24  34
BRANCH  30  44
HETATM   44  O   UNK     0     165.335 185.724 170.863  0.00  0.00    -0.360 OA
HETATM   45  H   UNK     0     166.232 186.097 170.923  0.00  0.00     0.217 HD
ENDBRANCH  30  44
BRANCH  33  46
HETATM   46  O   UNK     0     164.671 187.428 175.245  0.00  0.00    -0.361 OA
HETATM   47  H   UNK     0     163.820 187.884 175.365  0.00  0.00     0.217 HD
ENDBRANCH  33  46
ENDBRANCH  22  23
ENDBRANCH   6  22
BRANCH   3  48
HETATM   48  O   UNK     0     167.888 178.569 170.091  0.00  0.00    -0.390 OA
HETATM   49  H   UNK     0     167.571 177.713 170.427  0.00  0.00     0.210 HD
ENDBRANCH   3  48
BRANCH   5  50
HETATM   50  O   UNK     0     163.139 178.768 169.456  0.00  0.00    -0.388 OA
HETATM   51  H   UNK     0     162.571 178.800 170.244  0.00  0.00     0.210 HD
ENDBRANCH   5  50
BRANCH   4  52
HETATM   52  O   UNK     0     165.758 178.476 168.139  0.00  0.00    -0.390 OA
HETATM   53  H   UNK     0     166.631 178.834 167.903  0.00  0.00     0.210 HD
ENDBRANCH   4  52
TORSDOF 16
ENDMDL
MODEL 7
REMARK VINA RESULT:      -8.7      2.560      6.855
REMARK  16 active torsions:
REMARK  status: ('A' for Active; 'I' for Inactive)
REMARK    1  A    between atoms: O_2  and  C_22 
REMARK    2  A    between atoms: O_2  and  C_26 
REMARK    3  A    between atoms: O_4  and  C_18 
REMARK    4  A    between atoms: O_5  and  C_19 
REMARK    5  A    between atoms: O_6  and  C_25 
REMARK    6  A    between atoms: O_6  and  C_29 
REMARK    7  A    between atoms: O_7  and  C_20 
REMARK    8  A    between atoms: O_8  and  C_21 
REMARK    9  A    between atoms: O_9  and  C_23 
REMARK   10  A    between atoms: O_10  and  C_24 
REMARK   11  A    between atoms: O_13  and  C_35 
REMARK   12  A    between atoms: O_14  and  C_40 
REMARK   13  A    between atoms: O_15  and  C_41 
REMARK   14  A    between atoms: O_16  and  C_43 
REMARK   15  A    between atoms: C_17  and  C_26 
REMARK   16  A    between atoms: C_30  and  C_33 
ROOT
HETATM    1  O   UNK     0     149.876 199.358 165.475  0.00  0.00    -0.348 OA
HETATM    2  C   UNK     0     149.440 198.321 166.356  0.00  0.00     0.180 C 
HETATM    3  C   UNK     0     147.945 198.476 166.645  0.00  0.00     0.180 C 
HETATM    4  C   UNK     0     147.642 199.864 167.209  0.00  0.00     0.183 C 
HETATM    5  C   UNK     0     148.273 200.960 166.350  0.00  0.00     0.205 C 
HETATM    6  C   UNK     0     149.741 200.656 166.050  0.00  0.00     0.298 C 
ENDROOT
BRANCH   2   7
HETATM    7  C   UNK     0     149.750 196.987 165.684  0.00  0.00     0.205 C 
BRANCH   7   8
HETATM    8  O   UNK     0     151.087 196.617 165.986  0.00  0.00    -0.356 OA
BRANCH   8   9
HETATM    9  C   UNK     0     151.205 196.131 167.319  0.00  0.00     0.291 C 
HETATM   10  O   UNK     0     151.953 197.016 168.158  0.00  0.00    -0.351 OA
HETATM   11  C   UNK     0     153.322 197.173 167.773  0.00  0.00     0.152 C 
HETATM   12  C   UNK     0     154.057 195.825 167.788  0.00  0.00     0.178 C 
HETATM   13  C   UNK     0     153.946 198.174 168.742  0.00  0.00     0.042 C 
HETATM   14  C   UNK     0     153.312 194.811 166.918  0.00  0.00     0.183 C 
HETATM   15  C   UNK     0     151.834 194.738 167.306  0.00  0.00     0.204 C 
BRANCH  12  16
HETATM   16  O   UNK     0     155.375 195.975 167.264  0.00  0.00    -0.390 OA
HETATM   17  H   UNK     0     155.612 196.917 167.319  0.00  0.00     0.210 HD
ENDBRANCH  12  16
BRANCH  14  18
HETATM   18  O   UNK     0     153.918 193.529 167.069  0.00  0.00    -0.390 OA
HETATM   19  H   UNK     0     153.449 193.062 167.782  0.00  0.00     0.210 HD
ENDBRANCH  14  18
BRANCH  15  20
HETATM   20  O   UNK     0     151.702 194.190 168.618  0.00  0.00    -0.388 OA
HETATM   21  H   UNK     0     151.712 194.921 169.259  0.00  0.00     0.210 HD
ENDBRANCH  15  20
ENDBRANCH   8   9
ENDBRANCH   7   8
ENDBRANCH   2   7
BRANCH   6  22
HETATM   22  O   UNK     0     150.216 201.640 165.133  0.00  0.00    -0.311 OA
BRANCH  22  23
HETATM   23  C   UNK     0     151.487 202.062 165.455  0.00  0.00     0.157 A 
HETATM   24  C   UNK     0     152.597 201.529 164.914  0.00  0.00     0.124 A 
HETATM   25  O   UNK     0     153.891 201.907 165.239  0.00  0.00    -0.306 OA
HETATM   26  C   UNK     0     154.067 202.906 166.162  0.00  0.00     0.096 A 
HETATM   27  C   UNK     0     153.004 203.549 166.792  0.00  0.00     0.084 A 
HETATM   28  C   UNK     0     155.380 203.272 166.461  0.00  0.00     0.075 A 
HETATM   29  C   UNK     0     151.630 203.143 166.460  0.00  0.00     0.223 A 
HETATM   30  C   UNK     0     153.244 204.561 167.726  0.00  0.00     0.085 A 
HETATM   31  O   UNK     0     150.657 203.667 166.986  0.00  0.00    -0.284 OA
HETATM   32  C   UNK     0     154.558 204.924 168.023  0.00  0.00     0.074 A 
HETATM   33  C   UNK     0     155.624 204.282 167.392  0.00  0.00     0.071 A 
BRANCH  24  34
HETATM   34  C   UNK     0     152.551 200.448 163.913  0.00  0.00     0.004 A 
HETATM   35  C   UNK     0     152.898 199.146 164.276  0.00  0.00     0.053 A 
HETATM   36  C   UNK     0     152.852 198.122 163.330  0.00  0.00     0.099 A 
HETATM   37  C   UNK     0     152.460 198.400 162.021  0.00  0.00     0.098 A 
HETATM   38  C   UNK     0     152.114 199.701 161.657  0.00  0.00     0.040 A 
HETATM   39  C   UNK     0     152.158 200.725 162.604  0.00  0.00     0.017 A 
BRANCH  36  40
HETATM   40  O   UNK     0     153.195 196.855 163.696  0.00  0.00    -0.358 OA
HETATM   41  H   UNK     0     152.434 196.264 163.578  0.00  0.00     0.217 HD
ENDBRANCH  36  40
BRANCH  37  42
HETATM   42  O   UNK     0     152.411 197.408 161.088  0.00  0.00    -0.358 OA
HETATM   43  H   UNK     0     152.431 196.544 161.528  0.00  0.00     0.217 HD
ENDBRANCH  37  42
ENDBRANCH  24  34
BRANCH  30  44
HETATM   44  O   UNK     0     152.242 205.219 168.370  0.00  0.00    -0.360 OA
HETATM   45  H   UNK     0     151.631 204.573 168.766  0.00  0.00     0.217 HD
ENDBRANCH  30  44
BRANCH  33  46
HETATM   46  O   UNK     0     156.904 204.640 167.686  0.00  0.00    -0.361 OA
HETATM   47  H   UNK     0     157.502 204.241 167.031  0.00  0.00     0.217 HD
ENDBRANCH  33  46
ENDBRANCH  22  23
ENDBRANCH   6  22
BRANCH   3  48
HETATM   48  O   UNK     0     147.542 197.487 167.589  0.00  0.00    -0.390 OA
HETATM   49  H   UNK     0     147.484 197.910 168.462  0.00  0.00     0.210 HD
ENDBRANCH   3  48
BRANCH   5  50
HETATM   50  O   UNK     0     148.207 202.205 167.045  0.00  0.00    -0.388 OA
HETATM   51  H   UNK     0     147.273 202.468 167.104  0.00  0.00     0.210 HD
ENDBRANCH   5  50
BRANCH   4  52
HETATM   52  O   UNK     0     146.223 200.033 167.228  0.00  0.00    -0.390 OA
HETATM   53  H   UNK     0     145.954 200.336 166.344  0.00  0.00     0.210 HD
ENDBRANCH   4  52
TORSDOF 16
ENDMDL
MODEL 8
REMARK VINA RESULT:      -8.7     19.149     21.954
REMARK  16 active torsions:
REMARK  status: ('A' for Active; 'I' for Inactive)
REMARK    1  A    between atoms: O_2  and  C_22 
REMARK    2  A    between atoms: O_2  and  C_26 
REMARK    3  A    between atoms: O_4  and  C_18 
REMARK    4  A    between atoms: O_5  and  C_19 
REMARK    5  A    between atoms: O_6  and  C_25 
REMARK    6  A    between atoms: O_6  and  C_29 
REMARK    7  A    between atoms: O_7  and  C_20 
REMARK    8  A    between atoms: O_8  and  C_21 
REMARK    9  A    between atoms: O_9  and  C_23 
REMARK   10  A    between atoms: O_10  and  C_24 
REMARK   11  A    between atoms: O_13  and  C_35 
REMARK   12  A    between atoms: O_14  and  C_40 
REMARK   13  A    between atoms: O_15  and  C_41 
REMARK   14  A    between atoms: O_16  and  C_43 
REMARK   15  A    between atoms: C_17  and  C_26 
REMARK   16  A    between atoms: C_30  and  C_33 
ROOT
HETATM    1  O   UNK     0     154.314 193.014 147.309  0.00  0.00    -0.348 OA
HETATM    2  C   UNK     0     153.646 193.750 146.284  0.00  0.00     0.180 C 
HETATM    3  C   UNK     0     153.368 195.177 146.763  0.00  0.00     0.180 C 
HETATM    4  C   UNK     0     152.568 195.166 148.066  0.00  0.00     0.183 C 
HETATM    5  C   UNK     0     153.200 194.227 149.095  0.00  0.00     0.205 C 
HETATM    6  C   UNK     0     153.516 192.863 148.482  0.00  0.00     0.298 C 
ENDROOT
BRANCH   2   7
HETATM    7  C   UNK     0     154.541 193.733 145.049  0.00  0.00     0.205 C 
BRANCH   7   8
HETATM    8  O   UNK     0     155.899 193.757 145.462  0.00  0.00    -0.356 OA
BRANCH   8   9
HETATM    9  C   UNK     0     156.719 194.442 144.520  0.00  0.00     0.291 C 
HETATM   10  O   UNK     0     157.683 193.580 143.907  0.00  0.00    -0.351 OA
HETATM   11  C   UNK     0     158.651 193.044 144.815  0.00  0.00     0.152 C 
HETATM   12  C   UNK     0     159.438 194.166 145.506  0.00  0.00     0.178 C 
HETATM   13  C   UNK     0     159.561 192.124 144.005  0.00  0.00     0.042 C 
HETATM   14  C   UNK     0     158.476 195.145 146.181  0.00  0.00     0.183 C 
HETATM   15  C   UNK     0     157.407 195.626 145.198  0.00  0.00     0.204 C 
BRANCH  12  16
HETATM   16  O   UNK     0     160.294 193.623 146.510  0.00  0.00    -0.390 OA
HETATM   17  H   UNK     0     159.735 193.184 147.173  0.00  0.00     0.210 HD
ENDBRANCH  12  16
BRANCH  14  18
HETATM   18  O   UNK     0     159.213 196.259 146.680  0.00  0.00    -0.390 OA
HETATM   19  H   UNK     0     160.000 195.914 147.136  0.00  0.00     0.210 HD
ENDBRANCH  14  18
BRANCH  15  20
HETATM   20  O   UNK     0     158.007 196.423 144.177  0.00  0.00    -0.388 OA
HETATM   21  H   UNK     0     158.357 197.233 144.586  0.00  0.00     0.210 HD
ENDBRANCH  15  20
ENDBRANCH   8   9
ENDBRANCH   7   8
ENDBRANCH   2   7
BRANCH   6  22
HETATM   22  O   UNK     0     154.229 192.099 149.454  0.00  0.00    -0.311 OA
BRANCH  22  23
HETATM   23  C   UNK     0     153.906 190.761 149.383  0.00  0.00     0.157 A 
HETATM   24  C   UNK     0     154.783 189.813 149.008  0.00  0.00     0.124 A 
HETATM   25  O   UNK     0     154.482 188.464 148.895  0.00  0.00    -0.306 OA
HETATM   26  C   UNK     0     153.212 188.049 149.203  0.00  0.00     0.096 A 
HETATM   27  C   UNK     0     152.210 188.926 149.614  0.00  0.00     0.084 A 
HETATM   28  C   UNK     0     152.942 186.685 149.090  0.00  0.00     0.075 A 
HETATM   29  C   UNK     0     152.519 190.360 149.722  0.00  0.00     0.223 A 
HETATM   30  C   UNK     0     150.932 188.446 149.914  0.00  0.00     0.085 A 
HETATM   31  O   UNK     0     151.679 191.177 150.072  0.00  0.00    -0.284 OA
HETATM   32  C   UNK     0     150.665 187.081 149.800  0.00  0.00     0.074 A 
HETATM   33  C   UNK     0     151.668 186.202 149.389  0.00  0.00     0.071 A 
BRANCH  24  34
HETATM   34  C   UNK     0     156.178 190.121 148.647  0.00  0.00     0.004 A 
HETATM   35  C   UNK     0     157.082 190.518 149.633  0.00  0.00     0.053 A 
HETATM   36  C   UNK     0     158.403 190.809 149.292  0.00  0.00     0.099 A 
HETATM   37  C   UNK     0     158.820 190.704 147.965  0.00  0.00     0.098 A 
HETATM   38  C   UNK     0     157.916 190.308 146.980  0.00  0.00     0.040 A 
HETATM   39  C   UNK     0     156.596 190.016 147.321  0.00  0.00     0.017 A 
BRANCH  36  40
HETATM   40  O   UNK     0     159.276 191.197 150.264  0.00  0.00    -0.358 OA
HETATM   41  H   UNK     0     158.812 191.740 150.922  0.00  0.00     0.217 HD
ENDBRANCH  36  40
BRANCH  37  42
HETATM   42  O   UNK     0     160.108 190.985 147.621  0.00  0.00    -0.358 OA
HETATM   43  H   UNK     0     160.124 191.455 146.772  0.00  0.00     0.217 HD
ENDBRANCH  37  42
ENDBRANCH  24  34
BRANCH  30  44
HETATM   44  O   UNK     0     149.918 189.260 150.318  0.00  0.00    -0.360 OA
HETATM   45  H   UNK     0     149.070 188.904 150.001  0.00  0.00     0.217 HD
ENDBRANCH  30  44
BRANCH  33  46
HETATM   46  O   UNK     0     151.403 184.872 149.279  0.00  0.00    -0.361 OA
HETATM   47  H   UNK     0     150.725 184.630 149.933  0.00  0.00     0.217 HD
ENDBRANCH  33  46
ENDBRANCH  22  23
ENDBRANCH   6  22
BRANCH   3  48
HETATM   48  O   UNK     0     152.628 195.874 145.764  0.00  0.00    -0.390 OA
HETATM   49  H   UNK     0     152.858 196.817 145.821  0.00  0.00     0.210 HD
ENDBRANCH   3  48
BRANCH   5  50
HETATM   50  O   UNK     0     152.293 194.032 150.179  0.00  0.00    -0.388 OA
HETATM   51  H   UNK     0     152.745 193.506 150.859  0.00  0.00     0.210 HD
ENDBRANCH   5  50
BRANCH   4  52
HETATM   52  O   UNK     0     152.551 196.497 148.585  0.00  0.00    -0.390 OA
HETATM   53  H   UNK     0     152.036 196.481 149.410  0.00  0.00     0.210 HD
ENDBRANCH   4  52
TORSDOF 16
ENDMDL
MODEL 9
REMARK VINA RESULT:      -8.7     18.771     21.944
REMARK  16 active torsions:
REMARK  status: ('A' for Active; 'I' for Inactive)
REMARK    1  A    between atoms: O_2  and  C_22 
REMARK    2  A    between atoms: O_2  and  C_26 
REMARK    3  A    between atoms: O_4  and  C_18 
REMARK    4  A    between atoms: O_5  and  C_19 
REMARK    5  A    between atoms: O_6  and  C_25 
REMARK    6  A    between atoms: O_6  and  C_29 
REMARK    7  A    between atoms: O_7  and  C_20 
REMARK    8  A    between atoms: O_8  and  C_21 
REMARK    9  A    between atoms: O_9  and  C_23 
REMARK   10  A    between atoms: O_10  and  C_24 
REMARK   11  A    between atoms: O_13  and  C_35 
REMARK   12  A    between atoms: O_14  and  C_40 
REMARK   13  A    between atoms: O_15  and  C_41 
REMARK   14  A    between atoms: O_16  and  C_43 
REMARK   15  A    between atoms: C_17  and  C_26 
REMARK   16  A    between atoms: C_30  and  C_33 
ROOT
HETATM    1  O   UNK     0     153.044 191.724 146.939  0.00  0.00    -0.348 OA
HETATM    2  C   UNK     0     151.936 191.957 146.068  0.00  0.00     0.180 C 
HETATM    3  C   UNK     0     152.388 192.772 144.854  0.00  0.00     0.180 C 
HETATM    4  C   UNK     0     153.049 194.078 145.294  0.00  0.00     0.183 C 
HETATM    5  C   UNK     0     154.112 193.829 146.363  0.00  0.00     0.205 C 
HETATM    6  C   UNK     0     153.577 192.931 147.479  0.00  0.00     0.298 C 
ENDROOT
BRANCH   2   7
HETATM    7  C   UNK     0     151.379 190.596 145.660  0.00  0.00     0.205 C 
BRANCH   7   8
HETATM    8  O   UNK     0     152.098 189.579 146.342  0.00  0.00    -0.356 OA
BRANCH   8   9
HETATM    9  C   UNK     0     151.368 188.357 146.373  0.00  0.00     0.291 C 
HETATM   10  O   UNK     0     150.655 188.177 147.600  0.00  0.00    -0.351 OA
HETATM   11  C   UNK     0     151.494 188.055 148.753  0.00  0.00     0.152 C 
HETATM   12  C   UNK     0     152.447 186.859 148.617  0.00  0.00     0.178 C 
HETATM   13  C   UNK     0     150.572 187.916 149.963  0.00  0.00     0.042 C 
HETATM   14  C   UNK     0     153.244 186.968 147.317  0.00  0.00     0.183 C 
HETATM   15  C   UNK     0     152.314 187.184 146.121  0.00  0.00     0.204 C 
BRANCH  12  16
HETATM   16  O   UNK     0     153.371 186.838 149.703  0.00  0.00    -0.390 OA
HETATM   17  H   UNK     0     153.311 187.693 150.162  0.00  0.00     0.210 HD
ENDBRANCH  12  16
BRANCH  14  18
HETATM   18  O   UNK     0     154.005 185.776 147.131  0.00  0.00    -0.390 OA
HETATM   19  H   UNK     0     153.638 185.096 147.723  0.00  0.00     0.210 HD
ENDBRANCH  14  18
BRANCH  15  20
HETATM   20  O   UNK     0     151.516 186.019 145.908  0.00  0.00    -0.388 OA
HETATM   21  H   UNK     0     150.650 186.299 145.566  0.00  0.00     0.210 HD
ENDBRANCH  15  20
ENDBRANCH   8   9
ENDBRANCH   7   8
ENDBRANCH   2   7
BRANCH   6  22
HETATM   22  O   UNK     0     154.661 192.628 148.357  0.00  0.00    -0.311 OA
BRANCH  22  23
HETATM   23  C   UNK     0     154.277 191.762 149.357  0.00  0.00     0.157 A 
HETATM   24  C   UNK     0     154.895 190.590 149.591  0.00  0.00     0.124 A 
HETATM   25  O   UNK     0     154.514 189.681 150.566  0.00  0.00    -0.306 OA
HETATM   26  C   UNK     0     153.447 189.992 151.369  0.00  0.00     0.096 A 
HETATM   27  C   UNK     0     152.725 191.176 151.239  0.00  0.00     0.084 A 
HETATM   28  C   UNK     0     153.094 189.062 152.347  0.00  0.00     0.075 A 
HETATM   29  C   UNK     0     153.115 192.138 150.198  0.00  0.00     0.223 A 
HETATM   30  C   UNK     0     151.644 191.439 152.086  0.00  0.00     0.085 A 
HETATM   31  O   UNK     0     152.514 193.191 150.034  0.00  0.00    -0.284 OA
HETATM   32  C   UNK     0     151.293 190.507 153.064  0.00  0.00     0.074 A 
HETATM   33  C   UNK     0     152.017 189.321 153.195  0.00  0.00     0.071 A 
BRANCH  24  34
HETATM   34  C   UNK     0     156.052 190.133 148.801  0.00  0.00     0.004 A 
HETATM   35  C   UNK     0     157.311 190.694 149.017  0.00  0.00     0.053 A 
HETATM   36  C   UNK     0     158.406 190.260 148.271  0.00  0.00     0.099 A 
HETATM   37  C   UNK     0     158.243 189.266 147.306  0.00  0.00     0.098 A 
HETATM   38  C   UNK     0     156.985 188.706 147.089  0.00  0.00     0.040 A 
HETATM   39  C   UNK     0     155.890 189.138 147.836  0.00  0.00     0.017 A 
BRANCH  36  40
HETATM   40  O   UNK     0     159.630 190.817 148.491  0.00  0.00    -0.358 OA
HETATM   41  H   UNK     0     159.525 191.665 148.952  0.00  0.00     0.217 HD
ENDBRANCH  36  40
BRANCH  37  42
HETATM   42  O   UNK     0     159.306 188.834 146.571  0.00  0.00    -0.358 OA
HETATM   43  H   UNK     0     159.016 188.623 145.670  0.00  0.00     0.217 HD
ENDBRANCH  37  42
ENDBRANCH  24  34
BRANCH  30  44
HETATM   44  O   UNK     0     150.905 192.579 152.001  0.00  0.00    -0.360 OA
HETATM   45  H   UNK     0     150.104 192.409 151.476  0.00  0.00     0.217 HD
ENDBRANCH  30  44
BRANCH  33  46
HETATM   46  O   UNK     0     151.671 188.415 154.150  0.00  0.00    -0.361 OA
HETATM   47  H   UNK     0     151.511 188.884 154.987  0.00  0.00     0.217 HD
ENDBRANCH  33  46
ENDBRANCH  22  23
ENDBRANCH   6  22
BRANCH   3  48
HETATM   48  O   UNK     0     151.258 193.067 144.038  0.00  0.00    -0.390 OA
HETATM   49  H   UNK     0     151.185 192.373 143.361  0.00  0.00     0.210 HD
ENDBRANCH   3  48
BRANCH   5  50
HETATM   50  O   UNK     0     154.506 195.073 146.940  0.00  0.00    -0.388 OA
HETATM   51  H   UNK     0     155.465 195.171 146.819  0.00  0.00     0.210 HD
ENDBRANCH   5  50
BRANCH   4  52
HETATM   52  O   UNK     0     153.659 194.672 144.146  0.00  0.00    -0.390 OA
HETATM   53  H   UNK     0     153.351 194.181 143.365  0.00  0.00     0.210 HD
ENDBRANCH   4  52
TORSDOF 16
ENDMDL
