REMARK VINA RESULT:      -6.5      6.480     11.755
REMARK  5 active torsions:
REMARK  status: ('A' for Active; 'I' for Inactive)
REMARK    1  A    between atoms: O_2  and  C_13 
REMARK    2  A    between atoms: O_4  and  C_16 
REMARK    3  A    between atoms: O_5  and  C_19 
REMARK    4  A    between atoms: O_6  and  C_21 
REMARK    5  A    between atoms: C_9  and  C_10 
ROOT
HETATM    1  O   UNK     0     178.384 175.626 170.689  0.00  0.00    -0.309 OA
HETATM    2  O   UNK     0     181.413 172.963 170.117  0.00  0.00    -0.287 OA
HETATM    3  C   UNK     0     180.722 175.044 170.996  0.00  0.00     0.081 A 
HETATM    4  C   UNK     0     179.642 175.909 171.158  0.00  0.00     0.095 A 
HETATM    5  C   UNK     0     178.183 174.430 170.017  0.00  0.00     0.090 A 
HETATM    6  C   UNK     0     180.511 173.769 170.292  0.00  0.00     0.190 A 
HETATM    7  C   UNK     0     179.140 173.513 169.804  0.00  0.00     0.094 A 
HETATM    8  C   UNK     0     181.981 175.384 171.496  0.00  0.00     0.085 A 
HETATM    9  C   UNK     0     179.814 177.123 171.823  0.00  0.00     0.075 A 
HETATM   10  C   UNK     0     181.070 177.466 172.325  0.00  0.00     0.071 A 
HETATM   11  C   UNK     0     182.151 176.599 172.161  0.00  0.00     0.074 A 
ENDROOT
BRANCH   5  12
HETATM   12  C   UNK     0     176.795 174.224 169.560  0.00  0.00     0.001 A 
HETATM   13  C   UNK     0     175.856 175.251 169.680  0.00  0.00     0.053 A 
HETATM   14  C   UNK     0     174.544 175.056 169.248  0.00  0.00     0.099 A 
HETATM   15  C   UNK     0     174.167 173.833 168.694  0.00  0.00     0.098 A 
HETATM   16  C   UNK     0     175.100 172.804 168.574  0.00  0.00     0.040 A 
HETATM   17  C   UNK     0     176.413 173.000 169.006  0.00  0.00     0.017 A 
BRANCH  14  18
HETATM   18  O   UNK     0     173.640 176.068 169.372  0.00  0.00    -0.358 OA
HETATM   19  H   UNK     0     172.978 175.974 168.666  0.00  0.00     0.217 HD
ENDBRANCH  14  18
BRANCH  15  20
HETATM   20  O   UNK     0     172.889 173.631 168.268  0.00  0.00    -0.358 OA
HETATM   21  H   UNK     0     172.312 173.515 169.042  0.00  0.00     0.217 HD
ENDBRANCH  15  20
ENDBRANCH   5  12
BRANCH   8  22
HETATM   22  O   UNK     0     183.067 174.573 171.363  0.00  0.00    -0.360 OA
HETATM   23  H   UNK     0     182.793 173.645 171.298  0.00  0.00     0.217 HD
ENDBRANCH   8  22
BRANCH  10  24
HETATM   24  O   UNK     0     181.242 178.651 172.975  0.00  0.00    -0.361 OA
HETATM   25  H   UNK     0     180.570 178.727 173.674  0.00  0.00     0.217 HD
ENDBRANCH  10  24
TORSDOF 5
