REMARK VINA RESULT:      -6.5      4.345      5.797
REMARK  5 active torsions:
REMARK  status: ('A' for Active; 'I' for Inactive)
REMARK    1  A    between atoms: O_2  and  C_13 
REMARK    2  A    between atoms: O_4  and  C_16 
REMARK    3  A    between atoms: O_5  and  C_19 
REMARK    4  A    between atoms: O_6  and  C_21 
REMARK    5  A    between atoms: C_9  and  C_10 
ROOT
HETATM    1  O   UNK     0     183.037 185.604 172.656  0.00  0.00    -0.309 OA
HETATM    2  O   UNK     0     184.085 187.820 169.402  0.00  0.00    -0.287 OA
HETATM    3  C   UNK     0     182.357 186.826 170.670  0.00  0.00     0.081 A 
HETATM    4  C   UNK     0     182.069 186.064 171.801  0.00  0.00     0.095 A 
HETATM    5  C   UNK     0     184.362 185.904 172.377  0.00  0.00     0.090 A 
HETATM    6  C   UNK     0     183.761 187.154 170.375  0.00  0.00     0.190 A 
HETATM    7  C   UNK     0     184.766 186.633 171.324  0.00  0.00     0.094 A 
HETATM    8  C   UNK     0     181.329 187.268 169.835  0.00  0.00     0.085 A 
HETATM    9  C   UNK     0     180.747 185.740 172.105  0.00  0.00     0.075 A 
HETATM   10  C   UNK     0     179.716 186.181 171.273  0.00  0.00     0.071 A 
HETATM   11  C   UNK     0     180.007 186.942 170.141  0.00  0.00     0.074 A 
ENDROOT
BRANCH   5  12
HETATM   12  C   UNK     0     185.320 185.365 173.362  0.00  0.00     0.001 A 
HETATM   13  C   UNK     0     185.390 185.912 174.646  0.00  0.00     0.053 A 
HETATM   14  C   UNK     0     186.295 185.404 175.576  0.00  0.00     0.099 A 
HETATM   15  C   UNK     0     187.135 184.346 175.227  0.00  0.00     0.098 A 
HETATM   16  C   UNK     0     187.069 183.798 173.946  0.00  0.00     0.040 A 
HETATM   17  C   UNK     0     186.163 184.307 173.015  0.00  0.00     0.017 A 
BRANCH  14  18
HETATM   18  O   UNK     0     186.352 185.948 176.825  0.00  0.00    -0.358 OA
HETATM   19  H   UNK     0     185.542 185.699 177.303  0.00  0.00     0.217 HD
ENDBRANCH  14  18
BRANCH  15  20
HETATM   20  O   UNK     0     188.023 183.840 176.127  0.00  0.00    -0.358 OA
HETATM   21  H   UNK     0     187.575 183.170 176.671  0.00  0.00     0.217 HD
ENDBRANCH  15  20
ENDBRANCH   5  12
BRANCH   8  22
HETATM   22  O   UNK     0     181.560 188.014 168.719  0.00  0.00    -0.360 OA
HETATM   23  H   UNK     0     181.487 188.960 168.922  0.00  0.00     0.217 HD
ENDBRANCH   8  22
BRANCH  10  24
HETATM   24  O   UNK     0     178.424 185.866 171.567  0.00  0.00    -0.361 OA
HETATM   25  H   UNK     0     178.016 185.448 170.790  0.00  0.00     0.217 HD
ENDBRANCH  10  24
TORSDOF 5
