REMARK VINA RESULT:      -6.5      5.041      9.906
REMARK  5 active torsions:
REMARK  status: ('A' for Active; 'I' for Inactive)
REMARK    1  A    between atoms: O_2  and  C_13 
REMARK    2  A    between atoms: O_4  and  C_16 
REMARK    3  A    between atoms: O_5  and  C_19 
REMARK    4  A    between atoms: O_6  and  C_21 
REMARK    5  A    between atoms: C_9  and  C_10 
ROOT
HETATM    1  O   UNK     0     179.526 177.593 170.999  0.00  0.00    -0.309 OA
HETATM    2  O   UNK     0     181.877 174.798 169.196  0.00  0.00    -0.287 OA
HETATM    3  C   UNK     0     181.751 176.729 170.551  0.00  0.00     0.081 A 
HETATM    4  C   UNK     0     180.889 177.651 171.140  0.00  0.00     0.095 A 
HETATM    5  C   UNK     0     178.984 176.576 170.228  0.00  0.00     0.090 A 
HETATM    6  C   UNK     0     181.180 175.642 169.739  0.00  0.00     0.190 A 
HETATM    7  C   UNK     0     179.708 175.625 169.615  0.00  0.00     0.094 A 
HETATM    8  C   UNK     0     183.132 176.838 170.730  0.00  0.00     0.085 A 
HETATM    9  C   UNK     0     181.404 178.690 171.916  0.00  0.00     0.075 A 
HETATM   10  C   UNK     0     182.783 178.802 172.097  0.00  0.00     0.071 A 
HETATM   11  C   UNK     0     183.644 177.878 171.506  0.00  0.00     0.074 A 
ENDROOT
BRANCH   5  12
HETATM   12  C   UNK     0     177.511 176.603 170.146  0.00  0.00     0.001 A 
HETATM   13  C   UNK     0     176.791 177.623 170.775  0.00  0.00     0.053 A 
HETATM   14  C   UNK     0     175.399 177.648 170.698  0.00  0.00     0.099 A 
HETATM   15  C   UNK     0     174.721 176.654 169.992  0.00  0.00     0.098 A 
HETATM   16  C   UNK     0     175.435 175.635 169.364  0.00  0.00     0.040 A 
HETATM   17  C   UNK     0     176.828 175.609 169.441  0.00  0.00     0.017 A 
BRANCH  14  18
HETATM   18  O   UNK     0     174.711 178.649 171.316  0.00  0.00    -0.358 OA
HETATM   19  H   UNK     0     174.515 178.367 172.226  0.00  0.00     0.217 HD
ENDBRANCH  14  18
BRANCH  15  20
HETATM   20  O   UNK     0     173.362 176.669 169.909  0.00  0.00    -0.358 OA
HETATM   21  H   UNK     0     173.082 177.473 169.438  0.00  0.00     0.217 HD
ENDBRANCH  15  20
ENDBRANCH   5  12
BRANCH   8  22
HETATM   22  O   UNK     0     184.015 175.962 170.175  0.00  0.00    -0.360 OA
HETATM   23  H   UNK     0     184.906 176.108 170.527  0.00  0.00     0.217 HD
ENDBRANCH   8  22
BRANCH  10  24
HETATM   24  O   UNK     0     183.289 179.815 172.854  0.00  0.00    -0.361 OA
HETATM   25  H   UNK     0     183.359 180.615 172.305  0.00  0.00     0.217 HD
ENDBRANCH  10  24
TORSDOF 5
