MODEL 1
REMARK VINA RESULT:      -5.2      0.000      0.000
REMARK  4 active torsions:
REMARK  status: ('A' for Active; 'I' for Inactive)
REMARK    1  A    between atoms: O_1  and  C_10 
REMARK    2  A    between atoms: O_1  and  C_11 
REMARK    3  A    between atoms: N_3  and  C_7 
REMARK    4  A    between atoms: C_4  and  C_10 
ROOT
HETATM    1  O   UNK     0     -17.217  51.063  16.499  0.00  0.00    -0.318 OA
ENDROOT
BRANCH   1   2
HETATM    2  C   UNK     0     -17.776  50.237  17.436  0.00  0.00     0.293 C 
HETATM    3  O   UNK     0     -18.957  50.305  17.803  0.00  0.00    -0.259 OA
BRANCH   2   4
HETATM    4  C   UNK     0     -16.811  49.274  17.943  0.00  0.00     0.039 A 
HETATM    5  C   UNK     0     -15.623  49.719  18.523  0.00  0.00     0.020 A 
HETATM    6  C   UNK     0     -14.697  48.795  19.009  0.00  0.00     0.030 A 
HETATM    7  C   UNK     0     -14.959  47.428  18.916  0.00  0.00     0.025 A 
HETATM    8  C   UNK     0     -16.147  46.985  18.336  0.00  0.00     0.030 A 
HETATM    9  C   UNK     0     -17.074  47.907  17.849  0.00  0.00     0.020 A 
BRANCH   7  10
HETATM   10  N   UNK     0     -14.023  46.495  19.407  0.00  0.00    -0.399 N 
HETATM   11  H   UNK     0     -13.179  46.303  18.885  0.00  0.00     0.156 HD
HETATM   12  H   UNK     0     -14.197  46.017  20.282  0.00  0.00     0.156 HD
ENDBRANCH   7  10
ENDBRANCH   2   4
ENDBRANCH   1   2
BRANCH   1  13
HETATM   13  C   UNK     0     -16.972  50.501  15.205  0.00  0.00     0.174 C 
HETATM   14  C   UNK     0     -18.115  50.869  14.284  0.00  0.00     0.034 C 
ENDBRANCH   1  13
TORSDOF 4
ENDMDL
MODEL 2
REMARK VINA RESULT:      -4.7     17.746     18.294
REMARK  4 active torsions:
REMARK  status: ('A' for Active; 'I' for Inactive)
REMARK    1  A    between atoms: O_1  and  C_10 
REMARK    2  A    between atoms: O_1  and  C_11 
REMARK    3  A    between atoms: N_3  and  C_7 
REMARK    4  A    between atoms: C_4  and  C_10 
ROOT
HETATM    1  O   UNK     0      -9.918  61.500   5.302  0.00  0.00    -0.318 OA
ENDROOT
BRANCH   1   2
HETATM    2  C   UNK     0      -8.808  61.033   5.952  0.00  0.00     0.293 C 
HETATM    3  O   UNK     0      -8.193  61.671   6.816  0.00  0.00    -0.259 OA
BRANCH   2   4
HETATM    4  C   UNK     0      -8.445  59.700   5.499  0.00  0.00     0.039 A 
HETATM    5  C   UNK     0      -7.179  59.187   5.786  0.00  0.00     0.020 A 
HETATM    6  C   UNK     0      -6.831  57.908   5.350  0.00  0.00     0.030 A 
HETATM    7  C   UNK     0      -7.748  57.142   4.630  0.00  0.00     0.025 A 
HETATM    8  C   UNK     0      -9.012  57.655   4.344  0.00  0.00     0.030 A 
HETATM    9  C   UNK     0      -9.361  58.934   4.778  0.00  0.00     0.020 A 
BRANCH   7  10
HETATM   10  N   UNK     0      -7.395  55.850   4.191  0.00  0.00    -0.399 N 
HETATM   11  H   UNK     0      -6.538  55.421   4.514  0.00  0.00     0.156 HD
HETATM   12  H   UNK     0      -7.998  55.350   3.550  0.00  0.00     0.156 HD
ENDBRANCH   7  10
ENDBRANCH   2   4
ENDBRANCH   1   2
BRANCH   1  13
HETATM   13  C   UNK     0      -9.777  62.730   4.582  0.00  0.00     0.174 C 
HETATM   14  C   UNK     0     -10.558  63.811   5.297  0.00  0.00     0.034 C 
ENDBRANCH   1  13
TORSDOF 4
ENDMDL
MODEL 3
REMARK VINA RESULT:      -4.7     16.758     18.534
REMARK  4 active torsions:
REMARK  status: ('A' for Active; 'I' for Inactive)
REMARK    1  A    between atoms: O_1  and  C_10 
REMARK    2  A    between atoms: O_1  and  C_11 
REMARK    3  A    between atoms: N_3  and  C_7 
REMARK    4  A    between atoms: C_4  and  C_10 
ROOT
HETATM    1  O   UNK     0     -18.371  29.916  19.748  0.00  0.00    -0.318 OA
ENDROOT
BRANCH   1   2
HETATM    2  C   UNK     0     -17.739  30.053  20.954  0.00  0.00     0.293 C 
HETATM    3  O   UNK     0     -17.890  29.276  21.906  0.00  0.00    -0.259 OA
BRANCH   2   4
HETATM    4  C   UNK     0     -16.873  31.221  20.974  0.00  0.00     0.039 A 
HETATM    5  C   UNK     0     -15.574  31.118  21.471  0.00  0.00     0.020 A 
HETATM    6  C   UNK     0     -14.744  32.239  21.491  0.00  0.00     0.030 A 
HETATM    7  C   UNK     0     -15.213  33.463  21.015  0.00  0.00     0.025 A 
HETATM    8  C   UNK     0     -16.512  33.566  20.519  0.00  0.00     0.030 A 
HETATM    9  C   UNK     0     -17.343  32.446  20.499  0.00  0.00     0.020 A 
BRANCH   7  10
HETATM   10  N   UNK     0     -14.374  34.596  21.036  0.00  0.00    -0.399 N 
HETATM   11  H   UNK     0     -14.718  35.487  20.704  0.00  0.00     0.156 HD
HETATM   12  H   UNK     0     -13.426  34.518  21.381  0.00  0.00     0.156 HD
ENDBRANCH   7  10
ENDBRANCH   2   4
ENDBRANCH   1   2
BRANCH   1  13
HETATM   13  C   UNK     0     -19.608  29.196  19.744  0.00  0.00     0.174 C 
HETATM   14  C   UNK     0     -19.373  27.818  19.163  0.00  0.00     0.034 C 
ENDBRANCH   1  13
TORSDOF 4
ENDMDL
MODEL 4
REMARK VINA RESULT:      -4.7     16.783     18.164
REMARK  4 active torsions:
REMARK  status: ('A' for Active; 'I' for Inactive)
REMARK    1  A    between atoms: O_1  and  C_10 
REMARK    2  A    between atoms: O_1  and  C_11 
REMARK    3  A    between atoms: N_3  and  C_7 
REMARK    4  A    between atoms: C_4  and  C_10 
ROOT
HETATM    1  O   UNK     0     -19.093  30.624  22.672  0.00  0.00    -0.318 OA
ENDROOT
BRANCH   1   2
HETATM    2  C   UNK     0     -17.995  30.293  21.926  0.00  0.00     0.293 C 
HETATM    3  O   UNK     0     -17.802  29.171  21.438  0.00  0.00    -0.259 OA
BRANCH   2   4
HETATM    4  C   UNK     0     -17.088  31.420  21.781  0.00  0.00     0.039 A 
HETATM    5  C   UNK     0     -16.733  31.871  20.509  0.00  0.00     0.020 A 
HETATM    6  C   UNK     0     -15.861  32.952  20.371  0.00  0.00     0.030 A 
HETATM    7  C   UNK     0     -15.346  33.582  21.504  0.00  0.00     0.025 A 
HETATM    8  C   UNK     0     -15.700  33.131  22.774  0.00  0.00     0.030 A 
HETATM    9  C   UNK     0     -16.571  32.050  22.914  0.00  0.00     0.020 A 
BRANCH   7  10
HETATM   10  N   UNK     0     -14.465  34.674  21.363  0.00  0.00    -0.399 N 
HETATM   11  H   UNK     0     -13.485  34.513  21.174  0.00  0.00     0.156 HD
HETATM   12  H   UNK     0     -14.813  35.620  21.453  0.00  0.00     0.156 HD
ENDBRANCH   7  10
ENDBRANCH   2   4
ENDBRANCH   1   2
BRANCH   1  13
HETATM   13  C   UNK     0     -20.074  31.457  22.043  0.00  0.00     0.174 C 
HETATM   14  C   UNK     0     -20.732  30.682  20.922  0.00  0.00     0.034 C 
ENDBRANCH   1  13
TORSDOF 4
ENDMDL
MODEL 5
REMARK VINA RESULT:      -4.5     17.493     18.930
REMARK  4 active torsions:
REMARK  status: ('A' for Active; 'I' for Inactive)
REMARK    1  A    between atoms: O_1  and  C_10 
REMARK    2  A    between atoms: O_1  and  C_11 
REMARK    3  A    between atoms: N_3  and  C_7 
REMARK    4  A    between atoms: C_4  and  C_10 
ROOT
HETATM    1  O   UNK     0      -9.568  62.988   4.860  0.00  0.00    -0.318 OA
ENDROOT
BRANCH   1   2
HETATM    2  C   UNK     0     -10.107  61.771   5.176  0.00  0.00     0.293 C 
HETATM    3  O   UNK     0     -11.306  61.587   5.421  0.00  0.00    -0.259 OA
BRANCH   2   4
HETATM    4  C   UNK     0      -9.095  60.726   5.189  0.00  0.00     0.039 A 
HETATM    5  C   UNK     0      -7.806  60.998   4.730  0.00  0.00     0.020 A 
HETATM    6  C   UNK     0      -6.836  59.996   4.742  0.00  0.00     0.030 A 
HETATM    7  C   UNK     0      -7.154  58.722   5.213  0.00  0.00     0.025 A 
HETATM    8  C   UNK     0      -8.442  58.451   5.672  0.00  0.00     0.030 A 
HETATM    9  C   UNK     0      -9.413  59.452   5.660  0.00  0.00     0.020 A 
BRANCH   7  10
HETATM   10  N   UNK     0      -6.173  57.710   5.225  0.00  0.00    -0.399 N 
HETATM   11  H   UNK     0      -5.852  57.306   4.355  0.00  0.00     0.156 HD
HETATM   12  H   UNK     0      -5.791  57.385   6.104  0.00  0.00     0.156 HD
ENDBRANCH   7  10
ENDBRANCH   2   4
ENDBRANCH   1   2
BRANCH   1  13
HETATM   13  C   UNK     0     -10.290  64.147   5.292  0.00  0.00     0.174 C 
HETATM   14  C   UNK     0      -9.654  65.379   4.685  0.00  0.00     0.034 C 
ENDBRANCH   1  13
TORSDOF 4
ENDMDL
MODEL 6
REMARK VINA RESULT:      -4.5     13.357     14.312
REMARK  4 active torsions:
REMARK  status: ('A' for Active; 'I' for Inactive)
REMARK    1  A    between atoms: O_1  and  C_10 
REMARK    2  A    between atoms: O_1  and  C_11 
REMARK    3  A    between atoms: N_3  and  C_7 
REMARK    4  A    between atoms: C_4  and  C_10 
ROOT
HETATM    1  O   UNK     0      -9.409  40.346  11.946  0.00  0.00    -0.318 OA
ENDROOT
BRANCH   1   2
HETATM    2  C   UNK     0     -10.631  39.754  11.774  0.00  0.00     0.293 C 
HETATM    3  O   UNK     0     -11.636  40.035  12.439  0.00  0.00    -0.259 OA
BRANCH   2   4
HETATM    4  C   UNK     0     -10.597  38.756  10.717  0.00  0.00     0.039 A 
HETATM    5  C   UNK     0     -10.687  39.152   9.382  0.00  0.00     0.020 A 
HETATM    6  C   UNK     0     -10.656  38.194   8.367  0.00  0.00     0.030 A 
HETATM    7  C   UNK     0     -10.532  36.842   8.687  0.00  0.00     0.025 A 
HETATM    8  C   UNK     0     -10.442  36.447  10.022  0.00  0.00     0.030 A 
HETATM    9  C   UNK     0     -10.474  37.404  11.037  0.00  0.00     0.020 A 
BRANCH   7  10
HETATM   10  N   UNK     0     -10.500  35.875   7.662  0.00  0.00    -0.399 N 
HETATM   11  H   UNK     0     -10.401  34.896   7.893  0.00  0.00     0.156 HD
HETATM   12  H   UNK     0     -10.575  36.161   6.694  0.00  0.00     0.156 HD
ENDBRANCH   7  10
ENDBRANCH   2   4
ENDBRANCH   1   2
BRANCH   1  13
HETATM   13  C   UNK     0      -9.395  41.771  12.085  0.00  0.00     0.174 C 
HETATM   14  C   UNK     0      -9.334  42.399  10.710  0.00  0.00     0.034 C 
ENDBRANCH   1  13
TORSDOF 4
ENDMDL
MODEL 7
REMARK VINA RESULT:      -4.5     19.580     21.126
REMARK  4 active torsions:
REMARK  status: ('A' for Active; 'I' for Inactive)
REMARK    1  A    between atoms: O_1  and  C_10 
REMARK    2  A    between atoms: O_1  and  C_11 
REMARK    3  A    between atoms: N_3  and  C_7 
REMARK    4  A    between atoms: C_4  and  C_10 
ROOT
HETATM    1  O   UNK     0      -9.978  45.358  35.263  0.00  0.00    -0.318 OA
ENDROOT
BRANCH   1   2
HETATM    2  C   UNK     0      -9.436  45.227  36.513  0.00  0.00     0.293 C 
HETATM    3  O   UNK     0      -8.614  46.016  36.997  0.00  0.00    -0.259 OA
BRANCH   2   4
HETATM    4  C   UNK     0      -9.947  44.050  37.196  0.00  0.00     0.039 A 
HETATM    5  C   UNK     0      -9.757  42.784  36.640  0.00  0.00     0.020 A 
HETATM    6  C   UNK     0     -10.248  41.654  37.295  0.00  0.00     0.030 A 
HETATM    7  C   UNK     0     -10.928  41.789  38.506  0.00  0.00     0.025 A 
HETATM    8  C   UNK     0     -11.118  43.054  39.061  0.00  0.00     0.030 A 
HETATM    9  C   UNK     0     -10.628  44.185  38.406  0.00  0.00     0.020 A 
BRANCH   7  10
HETATM   10  N   UNK     0     -11.424  40.647  39.167  0.00  0.00    -0.399 N 
HETATM   11  H   UNK     0     -11.546  39.782  38.659  0.00  0.00     0.156 HD
HETATM   12  H   UNK     0     -11.659  40.694  40.150  0.00  0.00     0.156 HD
ENDBRANCH   7  10
ENDBRANCH   2   4
ENDBRANCH   1   2
BRANCH   1  13
HETATM   13  C   UNK     0     -11.231  46.046  35.170  0.00  0.00     0.174 C 
HETATM   14  C   UNK     0     -11.426  46.523  33.747  0.00  0.00     0.034 C 
ENDBRANCH   1  13
TORSDOF 4
ENDMDL
MODEL 8
REMARK VINA RESULT:      -4.4     12.632     13.681
REMARK  4 active torsions:
REMARK  status: ('A' for Active; 'I' for Inactive)
REMARK    1  A    between atoms: O_1  and  C_10 
REMARK    2  A    between atoms: O_1  and  C_11 
REMARK    3  A    between atoms: N_3  and  C_7 
REMARK    4  A    between atoms: C_4  and  C_10 
ROOT
HETATM    1  O   UNK     0     -12.239  38.288  10.698  0.00  0.00    -0.318 OA
ENDROOT
BRANCH   1   2
HETATM    2  C   UNK     0     -10.903  38.334  10.992  0.00  0.00     0.293 C 
HETATM    3  O   UNK     0     -10.230  37.344  11.309  0.00  0.00    -0.259 OA
BRANCH   2   4
HETATM    4  C   UNK     0     -10.379  39.686  10.888  0.00  0.00     0.039 A 
HETATM    5  C   UNK     0     -10.123  40.240   9.633  0.00  0.00     0.020 A 
HETATM    6  C   UNK     0      -9.619  41.537   9.533  0.00  0.00     0.030 A 
HETATM    7  C   UNK     0      -9.372  42.281  10.687  0.00  0.00     0.025 A 
HETATM    8  C   UNK     0      -9.627  41.727  11.941  0.00  0.00     0.030 A 
HETATM    9  C   UNK     0     -10.130  40.429  12.042  0.00  0.00     0.020 A 
BRANCH   7  10
HETATM   10  N   UNK     0      -8.863  43.591  10.586  0.00  0.00    -0.399 N 
HETATM   11  H   UNK     0      -7.997  43.761  10.092  0.00  0.00     0.156 HD
HETATM   12  H   UNK     0      -9.362  44.363  11.008  0.00  0.00     0.156 HD
ENDBRANCH   7  10
ENDBRANCH   2   4
ENDBRANCH   1   2
BRANCH   1  13
HETATM   13  C   UNK     0     -12.695  37.164   9.936  0.00  0.00     0.174 C 
HETATM   14  C   UNK     0     -13.529  36.271  10.829  0.00  0.00     0.034 C 
ENDBRANCH   1  13
TORSDOF 4
ENDMDL
MODEL 9
REMARK VINA RESULT:      -4.4     14.448     15.529
REMARK  4 active torsions:
REMARK  status: ('A' for Active; 'I' for Inactive)
REMARK    1  A    between atoms: O_1  and  C_10 
REMARK    2  A    between atoms: O_1  and  C_11 
REMARK    3  A    between atoms: N_3  and  C_7 
REMARK    4  A    between atoms: C_4  and  C_10 
ROOT
HETATM    1  O   UNK     0     -32.246  50.926  21.999  0.00  0.00    -0.318 OA
ENDROOT
BRANCH   1   2
HETATM    2  C   UNK     0     -30.929  50.634  22.231  0.00  0.00     0.293 C 
HETATM    3  O   UNK     0     -30.066  51.485  22.483  0.00  0.00    -0.259 OA
BRANCH   2   4
HETATM    4  C   UNK     0     -30.675  49.205  22.142  0.00  0.00     0.039 A 
HETATM    5  C   UNK     0     -31.707  48.334  21.792  0.00  0.00     0.020 A 
HETATM    6  C   UNK     0     -31.463  46.962  21.708  0.00  0.00     0.030 A 
HETATM    7  C   UNK     0     -30.188  46.463  21.974  0.00  0.00     0.025 A 
HETATM    8  C   UNK     0     -29.157  47.334  22.324  0.00  0.00     0.030 A 
HETATM    9  C   UNK     0     -29.400  48.705  22.409  0.00  0.00     0.020 A 
BRANCH   7  10
HETATM   10  N   UNK     0     -29.942  45.077  21.889  0.00  0.00    -0.399 N 
HETATM   11  H   UNK     0     -29.233  44.652  22.471  0.00  0.00     0.156 HD
HETATM   12  H   UNK     0     -30.474  44.507  21.244  0.00  0.00     0.156 HD
ENDBRANCH   7  10
ENDBRANCH   2   4
ENDBRANCH   1   2
BRANCH   1  13
HETATM   13  C   UNK     0     -32.938  51.650  23.022  0.00  0.00     0.174 C 
HETATM   14  C   UNK     0     -34.297  51.020  23.239  0.00  0.00     0.034 C 
ENDBRANCH   1  13
TORSDOF 4
ENDMDL
