MODEL 1
REMARK VINA RESULT:    -8.088      0.000      0.000
REMARK INTER + INTRA:         -12.081
REMARK INTER:                 -10.925
REMARK INTRA:                  -1.156
REMARK UNBOUND:                -1.156
REMARK  Name = 14749097
REMARK  9 active torsions:
REMARK  status: ('A' for Active; 'I' for Inactive)
REMARK    1  A    between atoms: O_2  and  C_14
REMARK    2  A    between atoms: O_2  and  C_16
REMARK    3  A    between atoms: O_3  and  C_11
REMARK    4  A    between atoms: O_4  and  C_12
REMARK    5  A    between atoms: O_5  and  C_13
REMARK    6  A    between atoms: O_8  and  C_22
REMARK    7  A    between atoms: O_9  and  C_27
REMARK    8  A    between atoms: O_10  and  C_30
REMARK    9  A    between atoms: C_17  and  C_21
REMARK                            x       y       z     vdW  Elec       q    Type
REMARK                         _______ _______ _______ _____ _____    ______ ____
ROOT
ATOM      1  O   UNL     1     -25.378  -1.844  53.948  0.00  0.00    +0.000 OA
ATOM      2  O   UNL     1     -25.327  -0.222  57.687  0.00  0.00    +0.000 OA
ATOM      3  C   UNL     1     -25.849  -2.076  56.309  0.00  0.00    +0.000 A 
ATOM      4  C   UNL     1     -25.843  -2.547  55.048  0.00  0.00    +0.000 A 
ATOM      5  C   UNL     1     -25.345  -0.705  56.562  0.00  0.00    +0.000 A 
ATOM      6  C   UNL     1     -24.864   0.041  55.389  0.00  0.00    +0.000 A 
ATOM      7  C   UNL     1     -24.907  -0.570  54.138  0.00  0.00    +0.000 A 
ATOM      8  C   UNL     1     -24.373   1.342  55.522  0.00  0.00    +0.000 A 
ATOM      9  C   UNL     1     -24.456   0.116  53.010  0.00  0.00    +0.000 A 
ATOM     10  C   UNL     1     -23.922   2.027  54.392  0.00  0.00    +0.000 A 
ATOM     11  C   UNL     1     -23.963   1.415  53.139  0.00  0.00    +0.000 A 
ENDROOT
BRANCH   4  12
ATOM     12  C   UNL     1     -26.319  -3.900  54.706  0.00  0.00    +0.000 A 
ATOM     13  C   UNL     1     -27.637  -4.266  54.979  0.00  0.00    +0.000 A 
ATOM     14  C   UNL     1     -25.450  -4.814  54.109  0.00  0.00    +0.000 A 
ATOM     15  C   UNL     1     -28.087  -5.545  54.655  0.00  0.00    +0.000 A 
ATOM     16  C   UNL     1     -25.900  -6.094  53.785  0.00  0.00    +0.000 A 
ATOM     17  C   UNL     1     -27.219  -6.460  54.058  0.00  0.00    +0.000 A 
BRANCH  17  18
ATOM     18  O   UNL     1     -27.658  -7.708  53.742  0.00  0.00    +0.000 OA
ATOM     19  H   UNL     1     -27.462  -8.309  54.481  0.00  0.00    +0.000 HD
ENDBRANCH  17  18
ENDBRANCH   4  12
BRANCH   8  20
ATOM     20  O   UNL     1     -24.309   1.985  56.722  0.00  0.00    +0.000 OA
ATOM     21  H   UNL     1     -23.831   2.824  56.632  0.00  0.00    +0.000 HD
ENDBRANCH   8  20
BRANCH  11  22
ATOM     22  O   UNL     1     -23.524   2.087  52.040  0.00  0.00    +0.000 OA
ATOM     23  H   UNL     1     -24.290   2.338  51.495  0.00  0.00    +0.000 HD
ENDBRANCH  11  22
BRANCH   3  24
ATOM     24  O   UNL     1     -26.288  -2.815  57.386  0.00  0.00    +0.000 OA
BRANCH  24  29
ATOM     25  O   UNL     1     -24.772  -4.581  57.810  0.00  0.00    +0.000 OA
ATOM     26  C   UNL     1     -26.662  -4.290  59.963  0.00  0.00    +0.000 C 
ATOM     27  C   UNL     1     -25.586  -3.242  59.670  0.00  0.00    +0.000 C 
ATOM     28  C   UNL     1     -26.216  -5.664  59.457  0.00  0.00    +0.000 C 
ATOM     29  C   UNL     1     -25.198  -3.270  58.189  0.00  0.00    +0.000 C 
ATOM     30  C   UNL     1     -25.775  -5.586  57.999  0.00  0.00    +0.000 C 
BRANCH  26  31
ATOM     31  O   UNL     1     -26.912  -4.371  61.363  0.00  0.00    +0.000 OA
ATOM     32  H   UNL     1     -26.742  -5.289  61.635  0.00  0.00    +0.000 HD
ENDBRANCH  26  31
BRANCH  27  33
ATOM     33  O   UNL     1     -26.053  -1.940  60.003  0.00  0.00    +0.000 OA
ATOM     34  H   UNL     1     -25.991  -1.389  59.205  0.00  0.00    +0.000 HD
ENDBRANCH  27  33
BRANCH  28  35
ATOM     35  O   UNL     1     -25.109  -6.117  60.241  0.00  0.00    +0.000 OA
ATOM     36  H   UNL     1     -24.356  -5.532  60.049  0.00  0.00    +0.000 HD
ENDBRANCH  28  35
ENDBRANCH  24  29
ENDBRANCH   3  24
TORSDOF 9
ENDMDL
MODEL 2
REMARK VINA RESULT:    -6.905      1.840      6.148
REMARK INTER + INTRA:         -10.484
REMARK INTER:                  -9.638
REMARK INTRA:                  -0.845
REMARK UNBOUND:                -1.156
REMARK  Name = 14749097
REMARK  9 active torsions:
REMARK  status: ('A' for Active; 'I' for Inactive)
REMARK    1  A    between atoms: O_2  and  C_14
REMARK    2  A    between atoms: O_2  and  C_16
REMARK    3  A    between atoms: O_3  and  C_11
REMARK    4  A    between atoms: O_4  and  C_12
REMARK    5  A    between atoms: O_5  and  C_13
REMARK    6  A    between atoms: O_8  and  C_22
REMARK    7  A    between atoms: O_9  and  C_27
REMARK    8  A    between atoms: O_10  and  C_30
REMARK    9  A    between atoms: C_17  and  C_21
REMARK                            x       y       z     vdW  Elec       q    Type
REMARK                         _______ _______ _______ _____ _____    ______ ____
ROOT
ATOM      1  O   UNL     1     -26.133  -5.367  53.458  0.00  0.00    +0.000 OA
ATOM      2  O   UNL     1     -28.265  -6.391  56.777  0.00  0.00    +0.000 OA
ATOM      3  C   UNL     1     -26.833  -4.836  55.711  0.00  0.00    +0.000 A 
ATOM      4  C   UNL     1     -26.146  -4.562  54.586  0.00  0.00    +0.000 A 
ATOM      5  C   UNL     1     -27.623  -6.088  55.780  0.00  0.00    +0.000 A 
ATOM      6  C   UNL     1     -27.594  -6.945  54.584  0.00  0.00    +0.000 A 
ATOM      7  C   UNL     1     -26.847  -6.538  53.482  0.00  0.00    +0.000 A 
ATOM      8  C   UNL     1     -28.303  -8.148  54.551  0.00  0.00    +0.000 A 
ATOM      9  C   UNL     1     -26.806  -7.331  52.335  0.00  0.00    +0.000 A 
ATOM     10  C   UNL     1     -28.260  -8.941  53.403  0.00  0.00    +0.000 A 
ATOM     11  C   UNL     1     -27.513  -8.533  52.298  0.00  0.00    +0.000 A 
ENDROOT
BRANCH   4  12
ATOM     12  C   UNL     1     -25.341  -3.338  54.428  0.00  0.00    +0.000 A 
ATOM     13  C   UNL     1     -25.970  -2.113  54.200  0.00  0.00    +0.000 A 
ATOM     14  C   UNL     1     -23.950  -3.403  54.507  0.00  0.00    +0.000 A 
ATOM     15  C   UNL     1     -25.208  -0.955  54.051  0.00  0.00    +0.000 A 
ATOM     16  C   UNL     1     -23.187  -2.244  54.358  0.00  0.00    +0.000 A 
ATOM     17  C   UNL     1     -23.816  -1.020  54.131  0.00  0.00    +0.000 A 
BRANCH  17  18
ATOM     18  O   UNL     1     -23.073   0.111  53.985  0.00  0.00    +0.000 OA
ATOM     19  H   UNL     1     -22.271  -0.101  53.479  0.00  0.00    +0.000 HD
ENDBRANCH  17  18
ENDBRANCH   4  12
BRANCH   8  20
ATOM     20  O   UNL     1     -29.049  -8.592  55.601  0.00  0.00    +0.000 OA
ATOM     21  H   UNL     1     -29.888  -8.963  55.289  0.00  0.00    +0.000 HD
ENDBRANCH   8  20
BRANCH  11  22
ATOM     22  O   UNL     1     -27.473  -9.310  51.180  0.00  0.00    +0.000 OA
ATOM     23  H   UNL     1     -28.318  -9.224  50.706  0.00  0.00    +0.000 HD
ENDBRANCH  11  22
BRANCH   3  24
ATOM     24  O   UNL     1     -26.851  -3.996  56.804  0.00  0.00    +0.000 OA
BRANCH  24  29
ATOM     25  O   UNL     1     -25.584  -5.210  58.391  0.00  0.00    +0.000 OA
ATOM     26  C   UNL     1     -26.474  -2.695  59.472  0.00  0.00    +0.000 C 
ATOM     27  C   UNL     1     -25.432  -2.783  58.355  0.00  0.00    +0.000 C 
ATOM     28  C   UNL     1     -26.468  -3.978  60.306  0.00  0.00    +0.000 C 
ATOM     29  C   UNL     1     -25.629  -4.064  57.538  0.00  0.00    +0.000 C 
ATOM     30  C   UNL     1     -26.591  -5.206  59.409  0.00  0.00    +0.000 C 
BRANCH  26  31
ATOM     31  O   UNL     1     -26.198  -1.587  60.324  0.00  0.00    +0.000 OA
ATOM     32  H   UNL     1     -26.910  -0.937  60.194  0.00  0.00    +0.000 HD
ENDBRANCH  26  31
BRANCH  27  33
ATOM     33  O   UNL     1     -25.532  -1.660  57.488  0.00  0.00    +0.000 OA
ATOM     34  H   UNL     1     -24.949  -0.964  57.835  0.00  0.00    +0.000 HD
ENDBRANCH  27  33
BRANCH  28  35
ATOM     35  O   UNL     1     -25.236  -4.064  61.027  0.00  0.00    +0.000 OA
ATOM     36  H   UNL     1     -24.639  -4.638  60.517  0.00  0.00    +0.000 HD
ENDBRANCH  28  35
ENDBRANCH  24  29
ENDBRANCH   3  24
TORSDOF 9
ENDMDL
MODEL 3
REMARK VINA RESULT:    -6.895      1.150      2.137
REMARK INTER + INTRA:         -10.470
REMARK INTER:                  -9.581
REMARK INTRA:                  -0.890
REMARK UNBOUND:                -1.156
REMARK  Name = 14749097
REMARK  9 active torsions:
REMARK  status: ('A' for Active; 'I' for Inactive)
REMARK    1  A    between atoms: O_2  and  C_14
REMARK    2  A    between atoms: O_2  and  C_16
REMARK    3  A    between atoms: O_3  and  C_11
REMARK    4  A    between atoms: O_4  and  C_12
REMARK    5  A    between atoms: O_5  and  C_13
REMARK    6  A    between atoms: O_8  and  C_22
REMARK    7  A    between atoms: O_9  and  C_27
REMARK    8  A    between atoms: O_10  and  C_30
REMARK    9  A    between atoms: C_17  and  C_21
REMARK                            x       y       z     vdW  Elec       q    Type
REMARK                         _______ _______ _______ _____ _____    ______ ____
ROOT
ATOM      1  O   UNL     1     -24.524  -2.087  53.867  0.00  0.00    +0.000 OA
ATOM      2  O   UNL     1     -24.665  -0.731  57.708  0.00  0.00    +0.000 OA
ATOM      3  C   UNL     1     -24.722  -2.578  56.226  0.00  0.00    +0.000 A 
ATOM      4  C   UNL     1     -24.675  -2.956  54.935  0.00  0.00    +0.000 A 
ATOM      5  C   UNL     1     -24.626  -1.135  56.553  0.00  0.00    +0.000 A 
ATOM      6  C   UNL     1     -24.479  -0.217  55.413  0.00  0.00    +0.000 A 
ATOM      7  C   UNL     1     -24.437  -0.743  54.125  0.00  0.00    +0.000 A 
ATOM      8  C   UNL     1     -24.385   1.163  55.616  0.00  0.00    +0.000 A 
ATOM      9  C   UNL     1     -24.296   0.107  53.028  0.00  0.00    +0.000 A 
ATOM     10  C   UNL     1     -24.244   2.012  54.516  0.00  0.00    +0.000 A 
ATOM     11  C   UNL     1     -24.200   1.485  53.226  0.00  0.00    +0.000 A 
ENDROOT
BRANCH   4  12
ATOM     12  C   UNL     1     -24.755  -4.368  54.521  0.00  0.00    +0.000 A 
ATOM     13  C   UNL     1     -23.634  -5.192  54.626  0.00  0.00    +0.000 A 
ATOM     14  C   UNL     1     -25.954  -4.882  54.024  0.00  0.00    +0.000 A 
ATOM     15  C   UNL     1     -23.711  -6.528  54.234  0.00  0.00    +0.000 A 
ATOM     16  C   UNL     1     -26.030  -6.219  53.632  0.00  0.00    +0.000 A 
ATOM     17  C   UNL     1     -24.909  -7.042  53.738  0.00  0.00    +0.000 A 
BRANCH  17  18
ATOM     18  O   UNL     1     -24.983  -8.346  53.356  0.00  0.00    +0.000 OA
ATOM     19  H   UNL     1     -24.714  -8.909  54.102  0.00  0.00    +0.000 HD
ENDBRANCH  17  18
ENDBRANCH   4  12
BRANCH   8  20
ATOM     20  O   UNL     1     -24.421   1.729  56.855  0.00  0.00    +0.000 OA
ATOM     21  H   UNL     1     -23.546   2.068  57.098  0.00  0.00    +0.000 HD
ENDBRANCH   8  20
BRANCH  11  22
ATOM     22  O   UNL     1     -24.064   2.317  52.157  0.00  0.00    +0.000 OA
ATOM     23  H   UNL     1     -24.483   1.905  51.381  0.00  0.00    +0.000 HD
ENDBRANCH  11  22
BRANCH   3  24
ATOM     24  O   UNL     1     -24.839  -3.472  57.269  0.00  0.00    +0.000 OA
BRANCH  24  29
ATOM     25  O   UNL     1     -26.836  -2.878  58.390  0.00  0.00    +0.000 OA
ATOM     26  C   UNL     1     -25.693  -5.277  59.498  0.00  0.00    +0.000 C 
ATOM     27  C   UNL     1     -26.296  -5.230  58.092  0.00  0.00    +0.000 C 
ATOM     28  C   UNL     1     -26.322  -4.197  60.381  0.00  0.00    +0.000 C 
ATOM     29  C   UNL     1     -26.203  -3.814  57.516  0.00  0.00    +0.000 C 
ATOM     30  C   UNL     1     -26.255  -2.835  59.699  0.00  0.00    +0.000 C 
BRANCH  26  31
ATOM     31  O   UNL     1     -25.916  -6.551  60.094  0.00  0.00    +0.000 OA
ATOM     32  H   UNL     1     -26.236  -6.396  61.000  0.00  0.00    +0.000 HD
ENDBRANCH  26  31
BRANCH  27  33
ATOM     33  O   UNL     1     -25.615  -6.130  57.226  0.00  0.00    +0.000 OA
ATOM     34  H   UNL     1     -26.079  -6.128  56.371  0.00  0.00    +0.000 HD
ENDBRANCH  27  33
BRANCH  28  35
ATOM     35  O   UNL     1     -27.695  -4.521  60.614  0.00  0.00    +0.000 OA
ATOM     36  H   UNL     1     -28.182  -3.684  60.698  0.00  0.00    +0.000 HD
ENDBRANCH  28  35
ENDBRANCH  24  29
ENDBRANCH   3  24
TORSDOF 9
ENDMDL
MODEL 4
REMARK VINA RESULT:    -6.596     20.356     22.094
REMARK INTER + INTRA:         -10.067
REMARK INTER:                  -9.094
REMARK INTRA:                  -0.973
REMARK UNBOUND:                -1.156
REMARK  Name = 14749097
REMARK  9 active torsions:
REMARK  status: ('A' for Active; 'I' for Inactive)
REMARK    1  A    between atoms: O_2  and  C_14
REMARK    2  A    between atoms: O_2  and  C_16
REMARK    3  A    between atoms: O_3  and  C_11
REMARK    4  A    between atoms: O_4  and  C_12
REMARK    5  A    between atoms: O_5  and  C_13
REMARK    6  A    between atoms: O_8  and  C_22
REMARK    7  A    between atoms: O_9  and  C_27
REMARK    8  A    between atoms: O_10  and  C_30
REMARK    9  A    between atoms: C_17  and  C_21
REMARK                            x       y       z     vdW  Elec       q    Type
REMARK                         _______ _______ _______ _____ _____    ______ ____
ROOT
ATOM      1  O   UNL     1     -39.095  14.555  53.131  0.00  0.00    +0.000 OA
ATOM      2  O   UNL     1     -38.905  12.268  56.499  0.00  0.00    +0.000 OA
ATOM      3  C   UNL     1     -38.002  14.051  55.229  0.00  0.00    +0.000 A 
ATOM      4  C   UNL     1     -38.118  14.762  54.092  0.00  0.00    +0.000 A 
ATOM      5  C   UNL     1     -38.962  12.950  55.485  0.00  0.00    +0.000 A 
ATOM      6  C   UNL     1     -39.989  12.727  54.455  0.00  0.00    +0.000 A 
ATOM      7  C   UNL     1     -40.000  13.544  53.327  0.00  0.00    +0.000 A 
ATOM      8  C   UNL     1     -40.938  11.712  54.601  0.00  0.00    +0.000 A 
ATOM      9  C   UNL     1     -40.965  13.354  52.337  0.00  0.00    +0.000 A 
ATOM     10  C   UNL     1     -41.902  11.523  53.609  0.00  0.00    +0.000 A 
ATOM     11  C   UNL     1     -41.915  12.342  52.480  0.00  0.00    +0.000 A 
ENDROOT
BRANCH   4  12
ATOM     12  C   UNL     1     -37.212  15.876  53.760  0.00  0.00    +0.000 A 
ATOM     13  C   UNL     1     -35.831  15.681  53.773  0.00  0.00    +0.000 A 
ATOM     14  C   UNL     1     -37.736  17.127  53.433  0.00  0.00    +0.000 A 
ATOM     15  C   UNL     1     -34.974  16.735  53.458  0.00  0.00    +0.000 A 
ATOM     16  C   UNL     1     -36.879  18.182  53.118  0.00  0.00    +0.000 A 
ATOM     17  C   UNL     1     -35.498  17.986  53.130  0.00  0.00    +0.000 A 
BRANCH  17  18
ATOM     18  O   UNL     1     -34.661  19.014  52.823  0.00  0.00    +0.000 OA
ATOM     19  H   UNL     1     -33.747  18.748  53.022  0.00  0.00    +0.000 HD
ENDBRANCH  17  18
ENDBRANCH   4  12
BRANCH   8  20
ATOM     20  O   UNL     1     -40.971  10.886  55.684  0.00  0.00    +0.000 OA
ATOM     21  H   UNL     1     -41.721  10.276  55.623  0.00  0.00    +0.000 HD
ENDBRANCH   8  20
BRANCH  11  22
ATOM     22  O   UNL     1     -42.856  12.153  51.515  0.00  0.00    +0.000 OA
ATOM     23  H   UNL     1     -43.285  13.005  51.321  0.00  0.00    +0.000 HD
ENDBRANCH  11  22
BRANCH   3  24
ATOM     24  O   UNL     1     -37.038  14.304  56.181  0.00  0.00    +0.000 OA
BRANCH  24  29
ATOM     25  O   UNL     1     -36.969  16.518  57.013  0.00  0.00    +0.000 OA
ATOM     26  C   UNL     1     -35.677  14.686  58.818  0.00  0.00    +0.000 C 
ATOM     27  C   UNL     1     -37.188  14.668  58.576  0.00  0.00    +0.000 C 
ATOM     28  C   UNL     1     -35.110  16.078  58.536  0.00  0.00    +0.000 C 
ATOM     29  C   UNL     1     -37.513  15.207  57.180  0.00  0.00    +0.000 C 
ATOM     30  C   UNL     1     -35.545  16.570  57.159  0.00  0.00    +0.000 C 
BRANCH  26  31
ATOM     31  O   UNL     1     -35.384  14.331  60.167  0.00  0.00    +0.000 OA
ATOM     32  H   UNL     1     -35.850  13.498  60.355  0.00  0.00    +0.000 HD
ENDBRANCH  26  31
BRANCH  27  33
ATOM     33  O   UNL     1     -37.698  13.345  58.693  0.00  0.00    +0.000 OA
ATOM     34  H   UNL     1     -38.622  13.355  58.394  0.00  0.00    +0.000 HD
ENDBRANCH  27  33
BRANCH  28  35
ATOM     35  O   UNL     1     -35.600  16.993  59.519  0.00  0.00    +0.000 OA
ATOM     36  H   UNL     1     -36.070  17.704  59.049  0.00  0.00    +0.000 HD
ENDBRANCH  28  35
ENDBRANCH  24  29
ENDBRANCH   3  24
TORSDOF 9
ENDMDL
MODEL 5
REMARK VINA RESULT:    -6.367      1.621      4.496
REMARK INTER + INTRA:          -9.756
REMARK INTER:                  -8.850
REMARK INTRA:                  -0.906
REMARK UNBOUND:                -1.156
REMARK  Name = 14749097
REMARK  9 active torsions:
REMARK  status: ('A' for Active; 'I' for Inactive)
REMARK    1  A    between atoms: O_2  and  C_14
REMARK    2  A    between atoms: O_2  and  C_16
REMARK    3  A    between atoms: O_3  and  C_11
REMARK    4  A    between atoms: O_4  and  C_12
REMARK    5  A    between atoms: O_5  and  C_13
REMARK    6  A    between atoms: O_8  and  C_22
REMARK    7  A    between atoms: O_9  and  C_27
REMARK    8  A    between atoms: O_10  and  C_30
REMARK    9  A    between atoms: C_17  and  C_21
REMARK                            x       y       z     vdW  Elec       q    Type
REMARK                         _______ _______ _______ _____ _____    ______ ____
ROOT
ATOM      1  O   UNL     1     -24.669  -0.827  57.348  0.00  0.00    +0.000 OA
ATOM      2  O   UNL     1     -26.713  -2.373  54.180  0.00  0.00    +0.000 OA
ATOM      3  C   UNL     1     -26.054  -2.590  56.444  0.00  0.00    +0.000 A 
ATOM      4  C   UNL     1     -25.354  -2.027  57.446  0.00  0.00    +0.000 A 
ATOM      5  C   UNL     1     -26.095  -1.908  55.129  0.00  0.00    +0.000 A 
ATOM      6  C   UNL     1     -25.355  -0.641  55.028  0.00  0.00    +0.000 A 
ATOM      7  C   UNL     1     -24.677  -0.165  56.148  0.00  0.00    +0.000 A 
ATOM      8  C   UNL     1     -25.328   0.077  53.829  0.00  0.00    +0.000 A 
ATOM      9  C   UNL     1     -23.970   1.035  56.078  0.00  0.00    +0.000 A 
ATOM     10  C   UNL     1     -24.619   1.278  53.762  0.00  0.00    +0.000 A 
ATOM     11  C   UNL     1     -23.942   1.755  54.884  0.00  0.00    +0.000 A 
ENDROOT
BRANCH   4  12
ATOM     12  C   UNL     1     -25.266  -2.632  58.788  0.00  0.00    +0.000 A 
ATOM     13  C   UNL     1     -26.338  -2.527  59.674  0.00  0.00    +0.000 A 
ATOM     14  C   UNL     1     -24.109  -3.312  59.171  0.00  0.00    +0.000 A 
ATOM     15  C   UNL     1     -26.254  -3.099  60.942  0.00  0.00    +0.000 A 
ATOM     16  C   UNL     1     -24.025  -3.885  60.440  0.00  0.00    +0.000 A 
ATOM     17  C   UNL     1     -25.098  -3.780  61.325  0.00  0.00    +0.000 A 
BRANCH  17  18
ATOM     18  O   UNL     1     -25.017  -4.339  62.563  0.00  0.00    +0.000 OA
ATOM     19  H   UNL     1     -25.147  -3.646  63.232  0.00  0.00    +0.000 HD
ENDBRANCH  17  18
ENDBRANCH   4  12
BRANCH   8  20
ATOM     20  O   UNL     1     -25.974  -0.343  52.706  0.00  0.00    +0.000 OA
ATOM     21  H   UNL     1     -26.089  -1.305  52.720  0.00  0.00    +0.000 HD
ENDBRANCH   8  20
BRANCH  11  22
ATOM     22  O   UNL     1     -23.251   2.927  54.812  0.00  0.00    +0.000 OA
ATOM     23  H   UNL     1     -23.296   3.265  53.901  0.00  0.00    +0.000 HD
ENDBRANCH  11  22
BRANCH   3  24
ATOM     24  O   UNL     1     -26.753  -3.770  56.584  0.00  0.00    +0.000 OA
BRANCH  24  29
ATOM     25  O   UNL     1     -25.621  -5.256  55.133  0.00  0.00    +0.000 OA
ATOM     26  C   UNL     1     -27.762  -6.587  56.522  0.00  0.00    +0.000 C 
ATOM     27  C   UNL     1     -26.503  -6.094  57.238  0.00  0.00    +0.000 C 
ATOM     28  C   UNL     1     -27.462  -6.860  55.047  0.00  0.00    +0.000 C 
ATOM     29  C   UNL     1     -25.892  -4.904  56.491  0.00  0.00    +0.000 C 
ATOM     30  C   UNL     1     -26.786  -5.654  54.401  0.00  0.00    +0.000 C 
BRANCH  26  31
ATOM     31  O   UNL     1     -28.243  -7.784  57.126  0.00  0.00    +0.000 OA
ATOM     32  H   UNL     1     -29.115  -7.585  57.509  0.00  0.00    +0.000 HD
ENDBRANCH  26  31
BRANCH  27  33
ATOM     33  O   UNL     1     -26.808  -5.698  58.571  0.00  0.00    +0.000 OA
ATOM     34  H   UNL     1     -25.975  -5.675  59.072  0.00  0.00    +0.000 HD
ENDBRANCH  27  33
BRANCH  28  35
ATOM     35  O   UNL     1     -26.580  -7.981  54.947  0.00  0.00    +0.000 OA
ATOM     36  H   UNL     1     -26.196  -8.130  55.828  0.00  0.00    +0.000 HD
ENDBRANCH  28  35
ENDBRANCH  24  29
ENDBRANCH   3  24
TORSDOF 9
ENDMDL
MODEL 6
REMARK VINA RESULT:    -6.334      1.669      6.247
REMARK INTER + INTRA:          -9.712
REMARK INTER:                  -8.557
REMARK INTRA:                  -1.155
REMARK UNBOUND:                -1.156
REMARK  Name = 14749097
REMARK  9 active torsions:
REMARK  status: ('A' for Active; 'I' for Inactive)
REMARK    1  A    between atoms: O_2  and  C_14
REMARK    2  A    between atoms: O_2  and  C_16
REMARK    3  A    between atoms: O_3  and  C_11
REMARK    4  A    between atoms: O_4  and  C_12
REMARK    5  A    between atoms: O_5  and  C_13
REMARK    6  A    between atoms: O_8  and  C_22
REMARK    7  A    between atoms: O_9  and  C_27
REMARK    8  A    between atoms: O_10  and  C_30
REMARK    9  A    between atoms: C_17  and  C_21
REMARK                            x       y       z     vdW  Elec       q    Type
REMARK                         _______ _______ _______ _____ _____    ______ ____
ROOT
ATOM      1  O   UNL     1     -25.708  -5.130  58.179  0.00  0.00    +0.000 OA
ATOM      2  O   UNL     1     -23.763  -1.559  58.445  0.00  0.00    +0.000 OA
ATOM      3  C   UNL     1     -24.794  -3.187  57.068  0.00  0.00    +0.000 A 
ATOM      4  C   UNL     1     -25.425  -4.376  57.052  0.00  0.00    +0.000 A 
ATOM      5  C   UNL     1     -24.344  -2.633  58.368  0.00  0.00    +0.000 A 
ATOM      6  C   UNL     1     -24.635  -3.446  59.559  0.00  0.00    +0.000 A 
ATOM      7  C   UNL     1     -25.304  -4.658  59.401  0.00  0.00    +0.000 A 
ATOM      8  C   UNL     1     -24.248  -3.014  60.830  0.00  0.00    +0.000 A 
ATOM      9  C   UNL     1     -25.594  -5.445  60.515  0.00  0.00    +0.000 A 
ATOM     10  C   UNL     1     -24.538  -3.804  61.944  0.00  0.00    +0.000 A 
ATOM     11  C   UNL     1     -25.209  -5.017  61.787  0.00  0.00    +0.000 A 
ENDROOT
BRANCH   4  12
ATOM     12  C   UNL     1     -25.914  -4.996  55.807  0.00  0.00    +0.000 A 
ATOM     13  C   UNL     1     -25.048  -5.756  55.020  0.00  0.00    +0.000 A 
ATOM     14  C   UNL     1     -27.241  -4.823  55.417  0.00  0.00    +0.000 A 
ATOM     15  C   UNL     1     -25.511  -6.343  53.843  0.00  0.00    +0.000 A 
ATOM     16  C   UNL     1     -27.704  -5.410  54.239  0.00  0.00    +0.000 A 
ATOM     17  C   UNL     1     -26.839  -6.171  53.452  0.00  0.00    +0.000 A 
BRANCH  17  18
ATOM     18  O   UNL     1     -27.289  -6.744  52.303  0.00  0.00    +0.000 OA
ATOM     19  H   UNL     1     -26.881  -7.622  52.207  0.00  0.00    +0.000 HD
ENDBRANCH  17  18
ENDBRANCH   4  12
BRANCH   8  20
ATOM     20  O   UNL     1     -23.592  -1.838  61.039  0.00  0.00    +0.000 OA
ATOM     21  H   UNL     1     -24.160  -1.087  60.810  0.00  0.00    +0.000 HD
ENDBRANCH   8  20
BRANCH  11  22
ATOM     22  O   UNL     1     -25.489  -5.784  62.876  0.00  0.00    +0.000 OA
ATOM     23  H   UNL     1     -26.227  -6.382  62.660  0.00  0.00    +0.000 HD
ENDBRANCH  11  22
BRANCH   3  24
ATOM     24  O   UNL     1     -24.559  -2.444  55.931  0.00  0.00    +0.000 OA
BRANCH  24  29
ATOM     25  O   UNL     1     -26.502  -1.416  55.056  0.00  0.00    +0.000 OA
ATOM     26  C   UNL     1     -24.115  -0.220  53.979  0.00  0.00    +0.000 C 
ATOM     27  C   UNL     1     -24.517  -0.066  55.447  0.00  0.00    +0.000 C 
ATOM     28  C   UNL     1     -25.350  -0.482  53.115  0.00  0.00    +0.000 C 
ATOM     29  C   UNL     1     -25.359  -1.263  55.901  0.00  0.00    +0.000 C 
ATOM     30  C   UNL     1     -26.170  -1.637  53.680  0.00  0.00    +0.000 C 
BRANCH  26  31
ATOM     31  O   UNL     1     -23.465   0.959  53.514  0.00  0.00    +0.000 OA
ATOM     32  H   UNL     1     -22.584   0.699  53.194  0.00  0.00    +0.000 HD
ENDBRANCH  26  31
BRANCH  27  33
ATOM     33  O   UNL     1     -23.364   0.030  56.274  0.00  0.00    +0.000 OA
ATOM     34  H   UNL     1     -23.468  -0.603  57.005  0.00  0.00    +0.000 HD
ENDBRANCH  27  33
BRANCH  28  35
ATOM     35  O   UNL     1     -26.169   0.690  53.098  0.00  0.00    +0.000 OA
ATOM     36  H   UNL     1     -26.867   0.568  53.765  0.00  0.00    +0.000 HD
ENDBRANCH  28  35
ENDBRANCH  24  29
ENDBRANCH   3  24
TORSDOF 9
ENDMDL
MODEL 7
REMARK VINA RESULT:    -6.291      2.539      6.463
REMARK INTER + INTRA:          -9.655
REMARK INTER:                  -8.348
REMARK INTRA:                  -1.307
REMARK UNBOUND:                -1.156
REMARK  Name = 14749097
REMARK  9 active torsions:
REMARK  status: ('A' for Active; 'I' for Inactive)
REMARK    1  A    between atoms: O_2  and  C_14
REMARK    2  A    between atoms: O_2  and  C_16
REMARK    3  A    between atoms: O_3  and  C_11
REMARK    4  A    between atoms: O_4  and  C_12
REMARK    5  A    between atoms: O_5  and  C_13
REMARK    6  A    between atoms: O_8  and  C_22
REMARK    7  A    between atoms: O_9  and  C_27
REMARK    8  A    between atoms: O_10  and  C_30
REMARK    9  A    between atoms: C_17  and  C_21
REMARK                            x       y       z     vdW  Elec       q    Type
REMARK                         _______ _______ _______ _____ _____    ______ ____
ROOT
ATOM      1  O   UNL     1     -24.309  -2.799  59.639  0.00  0.00    +0.000 OA
ATOM      2  O   UNL     1     -26.247  -5.999  61.253  0.00  0.00    +0.000 OA
ATOM      3  C   UNL     1     -25.893  -4.606  59.372  0.00  0.00    +0.000 A 
ATOM      4  C   UNL     1     -25.224  -3.535  58.904  0.00  0.00    +0.000 A 
ATOM      5  C   UNL     1     -25.667  -5.035  60.772  0.00  0.00    +0.000 A 
ATOM      6  C   UNL     1     -24.704  -4.241  61.551  0.00  0.00    +0.000 A 
ATOM      7  C   UNL     1     -24.073  -3.159  60.941  0.00  0.00    +0.000 A 
ATOM      8  C   UNL     1     -24.424  -4.562  62.881  0.00  0.00    +0.000 A 
ATOM      9  C   UNL     1     -23.155  -2.392  61.657  0.00  0.00    +0.000 A 
ATOM     10  C   UNL     1     -23.504  -3.792  63.596  0.00  0.00    +0.000 A 
ATOM     11  C   UNL     1     -22.871  -2.710  62.986  0.00  0.00    +0.000 A 
ENDROOT
BRANCH   4  12
ATOM     12  C   UNL     1     -25.382  -3.044  57.524  0.00  0.00    +0.000 A 
ATOM     13  C   UNL     1     -26.554  -2.388  57.146  0.00  0.00    +0.000 A 
ATOM     14  C   UNL     1     -24.359  -3.234  56.595  0.00  0.00    +0.000 A 
ATOM     15  C   UNL     1     -26.703  -1.923  55.840  0.00  0.00    +0.000 A 
ATOM     16  C   UNL     1     -24.509  -2.769  55.288  0.00  0.00    +0.000 A 
ATOM     17  C   UNL     1     -25.680  -2.112  54.911  0.00  0.00    +0.000 A 
BRANCH  17  18
ATOM     18  O   UNL     1     -25.827  -1.658  53.636  0.00  0.00    +0.000 OA
ATOM     19  H   UNL     1     -25.226  -0.905  53.498  0.00  0.00    +0.000 HD
ENDBRANCH  17  18
ENDBRANCH   4  12
BRANCH   8  20
ATOM     20  O   UNL     1     -25.012  -5.609  63.525  0.00  0.00    +0.000 OA
ATOM     21  H   UNL     1     -25.616  -5.289  64.211  0.00  0.00    +0.000 HD
ENDBRANCH   8  20
BRANCH  11  22
ATOM     22  O   UNL     1     -21.976  -1.961  63.688  0.00  0.00    +0.000 OA
ATOM     23  H   UNL     1     -21.176  -1.839  63.149  0.00  0.00    +0.000 HD
ENDBRANCH  11  22
BRANCH   3  24
ATOM     24  O   UNL     1     -26.772  -5.338  58.603  0.00  0.00    +0.000 OA
BRANCH  24  29
ATOM     25  O   UNL     1     -25.720  -6.330  56.731  0.00  0.00    +0.000 OA
ATOM     26  C   UNL     1     -28.303  -7.504  57.217  0.00  0.00    +0.000 C 
ATOM     27  C   UNL     1     -27.122  -7.700  58.170  0.00  0.00    +0.000 C 
ATOM     28  C   UNL     1     -27.801  -7.210  55.802  0.00  0.00    +0.000 C 
ATOM     29  C   UNL     1     -26.157  -6.514  58.079  0.00  0.00    +0.000 C 
ATOM     30  C   UNL     1     -26.789  -6.069  55.814  0.00  0.00    +0.000 C 
BRANCH  26  31
ATOM     31  O   UNL     1     -29.119  -8.671  57.187  0.00  0.00    +0.000 OA
ATOM     32  H   UNL     1     -29.864  -8.489  56.588  0.00  0.00    +0.000 HD
ENDBRANCH  26  31
BRANCH  27  33
ATOM     33  O   UNL     1     -27.577  -7.827  59.512  0.00  0.00    +0.000 OA
ATOM     34  H   UNL     1     -27.658  -6.932  59.884  0.00  0.00    +0.000 HD
ENDBRANCH  27  33
BRANCH  28  35
ATOM     35  O   UNL     1     -27.162  -8.377  55.279  0.00  0.00    +0.000 OA
ATOM     36  H   UNL     1     -27.761  -8.766  54.618  0.00  0.00    +0.000 HD
ENDBRANCH  28  35
ENDBRANCH  24  29
ENDBRANCH   3  24
TORSDOF 9
ENDMDL
MODEL 8
REMARK VINA RESULT:    -6.228     19.659     22.700
REMARK INTER + INTRA:          -9.569
REMARK INTER:                  -8.456
REMARK INTRA:                  -1.113
REMARK UNBOUND:                -1.156
REMARK  Name = 14749097
REMARK  9 active torsions:
REMARK  status: ('A' for Active; 'I' for Inactive)
REMARK    1  A    between atoms: O_2  and  C_14
REMARK    2  A    between atoms: O_2  and  C_16
REMARK    3  A    between atoms: O_3  and  C_11
REMARK    4  A    between atoms: O_4  and  C_12
REMARK    5  A    between atoms: O_5  and  C_13
REMARK    6  A    between atoms: O_8  and  C_22
REMARK    7  A    between atoms: O_9  and  C_27
REMARK    8  A    between atoms: O_10  and  C_30
REMARK    9  A    between atoms: C_17  and  C_21
REMARK                            x       y       z     vdW  Elec       q    Type
REMARK                         _______ _______ _______ _____ _____    ______ ____
ROOT
ATOM      1  O   UNL     1     -35.394  14.646  56.479  0.00  0.00    +0.000 OA
ATOM      2  O   UNL     1     -36.164  18.364  54.997  0.00  0.00    +0.000 OA
ATOM      3  C   UNL     1     -36.511  16.777  56.721  0.00  0.00    +0.000 A 
ATOM      4  C   UNL     1     -36.220  15.535  57.149  0.00  0.00    +0.000 A 
ATOM      5  C   UNL     1     -35.934  17.245  55.438  0.00  0.00    +0.000 A 
ATOM      6  C   UNL     1     -35.068  16.292  54.726  0.00  0.00    +0.000 A 
ATOM      7  C   UNL     1     -34.843  15.037  55.286  0.00  0.00    +0.000 A 
ATOM      8  C   UNL     1     -34.480  16.637  53.506  0.00  0.00    +0.000 A 
ATOM      9  C   UNL     1     -34.025  14.117  54.631  0.00  0.00    +0.000 A 
ATOM     10  C   UNL     1     -33.661  15.714  52.852  0.00  0.00    +0.000 A 
ATOM     11  C   UNL     1     -33.434  14.457  53.414  0.00  0.00    +0.000 A 
ENDROOT
BRANCH   4  12
ATOM     12  C   UNL     1     -36.744  14.991  58.415  0.00  0.00    +0.000 A 
ATOM     13  C   UNL     1     -35.876  14.735  59.477  0.00  0.00    +0.000 A 
ATOM     14  C   UNL     1     -38.108  14.733  58.551  0.00  0.00    +0.000 A 
ATOM     15  C   UNL     1     -36.371  14.221  60.674  0.00  0.00    +0.000 A 
ATOM     16  C   UNL     1     -38.604  14.218  59.750  0.00  0.00    +0.000 A 
ATOM     17  C   UNL     1     -37.736  13.963  60.812  0.00  0.00    +0.000 A 
BRANCH  17  18
ATOM     18  O   UNL     1     -38.218  13.462  61.981  0.00  0.00    +0.000 OA
ATOM     19  H   UNL     1     -37.827  13.956  62.722  0.00  0.00    +0.000 HD
ENDBRANCH  17  18
ENDBRANCH   4  12
BRANCH   8  20
ATOM     20  O   UNL     1     -34.666  17.850  52.915  0.00  0.00    +0.000 OA
ATOM     21  H   UNL     1     -34.568  18.562  53.565  0.00  0.00    +0.000 HD
ENDBRANCH   8  20
BRANCH  11  22
ATOM     22  O   UNL     1     -32.636  13.560  52.772  0.00  0.00    +0.000 OA
ATOM     23  H   UNL     1     -32.456  12.813  53.369  0.00  0.00    +0.000 HD
ENDBRANCH  11  22
BRANCH   3  24
ATOM     24  O   UNL     1     -37.310  17.649  57.428  0.00  0.00    +0.000 OA
BRANCH  24  29
ATOM     25  O   UNL     1     -36.843  17.918  59.732  0.00  0.00    +0.000 OA
ATOM     26  C   UNL     1     -38.287  20.181  58.691  0.00  0.00    +0.000 C 
ATOM     27  C   UNL     1     -36.844  19.872  58.284  0.00  0.00    +0.000 C 
ATOM     28  C   UNL     1     -38.585  19.596  60.073  0.00  0.00    +0.000 C 
ATOM     29  C   UNL     1     -36.562  18.372  58.406  0.00  0.00    +0.000 C 
ATOM     30  C   UNL     1     -38.204  18.120  60.129  0.00  0.00    +0.000 C 
BRANCH  26  31
ATOM     31  O   UNL     1     -38.505  21.588  58.726  0.00  0.00    +0.000 OA
ATOM     32  H   UNL     1     -37.652  22.018  58.546  0.00  0.00    +0.000 HD
ENDBRANCH  26  31
BRANCH  27  33
ATOM     33  O   UNL     1     -36.604  20.282  56.943  0.00  0.00    +0.000 OA
ATOM     34  H   UNL     1     -36.271  19.512  56.452  0.00  0.00    +0.000 HD
ENDBRANCH  27  33
BRANCH  28  35
ATOM     35  O   UNL     1     -37.821  20.299  61.056  0.00  0.00    +0.000 OA
ATOM     36  H   UNL     1     -36.885  20.078  60.911  0.00  0.00    +0.000 HD
ENDBRANCH  28  35
ENDBRANCH  24  29
ENDBRANCH   3  24
TORSDOF 9
ENDMDL
MODEL 9
REMARK VINA RESULT:    -6.116      9.804     13.360
REMARK INTER + INTRA:          -9.417
REMARK INTER:                  -8.157
REMARK INTRA:                  -1.261
REMARK UNBOUND:                -1.156
REMARK  Name = 14749097
REMARK  9 active torsions:
REMARK  status: ('A' for Active; 'I' for Inactive)
REMARK    1  A    between atoms: O_2  and  C_14
REMARK    2  A    between atoms: O_2  and  C_16
REMARK    3  A    between atoms: O_3  and  C_11
REMARK    4  A    between atoms: O_4  and  C_12
REMARK    5  A    between atoms: O_5  and  C_13
REMARK    6  A    between atoms: O_8  and  C_22
REMARK    7  A    between atoms: O_9  and  C_27
REMARK    8  A    between atoms: O_10  and  C_30
REMARK    9  A    between atoms: C_17  and  C_21
REMARK                            x       y       z     vdW  Elec       q    Type
REMARK                         _______ _______ _______ _____ _____    ______ ____
ROOT
ATOM      1  O   UNL     1     -20.633   5.342  47.752  0.00  0.00    +0.000 OA
ATOM      2  O   UNL     1     -22.933   7.024  44.839  0.00  0.00    +0.000 OA
ATOM      3  C   UNL     1     -22.319   5.077  46.040  0.00  0.00    +0.000 A 
ATOM      4  C   UNL     1     -21.526   4.586  47.010  0.00  0.00    +0.000 A 
ATOM      5  C   UNL     1     -22.238   6.521  45.712  0.00  0.00    +0.000 A 
ATOM      6  C   UNL     1     -21.279   7.315  46.495  0.00  0.00    +0.000 A 
ATOM      7  C   UNL     1     -20.523   6.681  47.478  0.00  0.00    +0.000 A 
ATOM      8  C   UNL     1     -21.125   8.684  46.259  0.00  0.00    +0.000 A 
ATOM      9  C   UNL     1     -19.609   7.412  48.236  0.00  0.00    +0.000 A 
ATOM     10  C   UNL     1     -20.208   9.414  47.019  0.00  0.00    +0.000 A 
ATOM     11  C   UNL     1     -19.452   8.779  48.004  0.00  0.00    +0.000 A 
ENDROOT
BRANCH   4  12
ATOM     12  C   UNL     1     -21.546   3.167  47.406  0.00  0.00    +0.000 A 
ATOM     13  C   UNL     1     -21.980   2.803  48.682  0.00  0.00    +0.000 A 
ATOM     14  C   UNL     1     -21.132   2.185  46.505  0.00  0.00    +0.000 A 
ATOM     15  C   UNL     1     -21.999   1.461  49.056  0.00  0.00    +0.000 A 
ATOM     16  C   UNL     1     -21.152   0.841  46.879  0.00  0.00    +0.000 A 
ATOM     17  C   UNL     1     -21.586   0.479  48.154  0.00  0.00    +0.000 A 
BRANCH  17  18
ATOM     18  O   UNL     1     -21.606  -0.832  48.520  0.00  0.00    +0.000 OA
ATOM     19  H   UNL     1     -22.407  -1.001  49.045  0.00  0.00    +0.000 HD
ENDBRANCH  17  18
ENDBRANCH   4  12
BRANCH   8  20
ATOM     20  O   UNL     1     -21.839   9.352  45.311  0.00  0.00    +0.000 OA
ATOM     21  H   UNL     1     -21.686  10.306  45.381  0.00  0.00    +0.000 HD
ENDBRANCH   8  20
BRANCH  11  22
ATOM     22  O   UNL     1     -18.559   9.496  48.741  0.00  0.00    +0.000 OA
ATOM     23  H   UNL     1     -19.011   9.854  49.525  0.00  0.00    +0.000 HD
ENDBRANCH  11  22
BRANCH   3  24
ATOM     24  O   UNL     1     -23.222   4.304  45.342  0.00  0.00    +0.000 OA
BRANCH  24  29
ATOM     25  O   UNL     1     -24.929   3.445  46.738  0.00  0.00    +0.000 OA
ATOM     26  C   UNL     1     -25.631   3.194  43.957  0.00  0.00    +0.000 C 
ATOM     27  C   UNL     1     -25.538   4.550  44.659  0.00  0.00    +0.000 C 
ATOM     28  C   UNL     1     -25.938   2.091  44.972  0.00  0.00    +0.000 C 
ATOM     29  C   UNL     1     -24.552   4.482  45.829  0.00  0.00    +0.000 C 
ATOM     30  C   UNL     1     -24.958   2.144  46.140  0.00  0.00    +0.000 C 
BRANCH  26  31
ATOM     31  O   UNL     1     -26.657   3.213  42.969  0.00  0.00    +0.000 OA
ATOM     32  H   UNL     1     -26.880   4.144  42.800  0.00  0.00    +0.000 HD
ENDBRANCH  26  31
BRANCH  27  33
ATOM     33  O   UNL     1     -25.108   5.556  43.748  0.00  0.00    +0.000 OA
ATOM     34  H   UNL     1     -25.769   5.615  43.037  0.00  0.00    +0.000 HD
ENDBRANCH  27  33
BRANCH  28  35
ATOM     35  O   UNL     1     -27.261   2.277  45.482  0.00  0.00    +0.000 OA
ATOM     36  H   UNL     1     -27.863   2.331  44.720  0.00  0.00    +0.000 HD
ENDBRANCH  28  35
ENDBRANCH  24  29
ENDBRANCH   3  24
TORSDOF 9
ENDMDL
MODEL 10
REMARK VINA RESULT:    -6.085      2.254      6.501
REMARK INTER + INTRA:          -9.375
REMARK INTER:                  -8.107
REMARK INTRA:                  -1.269
REMARK UNBOUND:                -1.156
REMARK  Name = 14749097
REMARK  9 active torsions:
REMARK  status: ('A' for Active; 'I' for Inactive)
REMARK    1  A    between atoms: O_2  and  C_14
REMARK    2  A    between atoms: O_2  and  C_16
REMARK    3  A    between atoms: O_3  and  C_11
REMARK    4  A    between atoms: O_4  and  C_12
REMARK    5  A    between atoms: O_5  and  C_13
REMARK    6  A    between atoms: O_8  and  C_22
REMARK    7  A    between atoms: O_9  and  C_27
REMARK    8  A    between atoms: O_10  and  C_30
REMARK    9  A    between atoms: C_17  and  C_21
REMARK                            x       y       z     vdW  Elec       q    Type
REMARK                         _______ _______ _______ _____ _____    ______ ____
ROOT
ATOM      1  O   UNL     1     -23.635  -2.228  58.964  0.00  0.00    +0.000 OA
ATOM      2  O   UNL     1     -26.371  -5.168  59.657  0.00  0.00    +0.000 OA
ATOM      3  C   UNL     1     -25.377  -3.672  58.113  0.00  0.00    +0.000 A 
ATOM      4  C   UNL     1     -24.459  -2.701  57.955  0.00  0.00    +0.000 A 
ATOM      5  C   UNL     1     -25.551  -4.282  59.453  0.00  0.00    +0.000 A 
ATOM      6  C   UNL     1     -24.682  -3.766  60.522  0.00  0.00    +0.000 A 
ATOM      7  C   UNL     1     -23.766  -2.761  60.220  0.00  0.00    +0.000 A 
ATOM      8  C   UNL     1     -24.771  -4.273  61.821  0.00  0.00    +0.000 A 
ATOM      9  C   UNL     1     -22.929  -2.258  61.216  0.00  0.00    +0.000 A 
ATOM     10  C   UNL     1     -23.932  -3.767  62.816  0.00  0.00    +0.000 A 
ATOM     11  C   UNL     1     -23.014  -2.761  62.514  0.00  0.00    +0.000 A 
ENDROOT
BRANCH   4  12
ATOM     12  C   UNL     1     -24.215  -2.045  56.658  0.00  0.00    +0.000 A 
ATOM     13  C   UNL     1     -23.036  -2.299  55.958  0.00  0.00    +0.000 A 
ATOM     14  C   UNL     1     -25.165  -1.170  56.130  0.00  0.00    +0.000 A 
ATOM     15  C   UNL     1     -22.806  -1.679  54.731  0.00  0.00    +0.000 A 
ATOM     16  C   UNL     1     -24.935  -0.549  54.902  0.00  0.00    +0.000 A 
ATOM     17  C   UNL     1     -23.756  -0.804  54.202  0.00  0.00    +0.000 A 
BRANCH  17  18
ATOM     18  O   UNL     1     -23.530  -0.200  53.003  0.00  0.00    +0.000 OA
ATOM     19  H   UNL     1     -23.222  -0.867  52.366  0.00  0.00    +0.000 HD
ENDBRANCH  17  18
ENDBRANCH   4  12
BRANCH   8  20
ATOM     20  O   UNL     1     -25.648  -5.256  62.169  0.00  0.00    +0.000 OA
ATOM     21  H   UNL     1     -25.177  -6.010  62.556  0.00  0.00    +0.000 HD
ENDBRANCH   8  20
BRANCH  11  22
ATOM     22  O   UNL     1     -22.199  -2.270  63.488  0.00  0.00    +0.000 OA
ATOM     23  H   UNL     1     -21.274  -2.446  63.244  0.00  0.00    +0.000 HD
ENDBRANCH  11  22
BRANCH   3  24
ATOM     24  O   UNL     1     -26.159  -4.144  57.080  0.00  0.00    +0.000 OA
BRANCH  24  29
ATOM     25  O   UNL     1     -24.801  -5.150  55.425  0.00  0.00    +0.000 OA
ATOM     26  C   UNL     1     -27.584  -5.742  54.989  0.00  0.00    +0.000 C 
ATOM     27  C   UNL     1     -26.804  -6.303  56.180  0.00  0.00    +0.000 C 
ATOM     28  C   UNL     1     -26.634  -5.426  53.833  0.00  0.00    +0.000 C 
ATOM     29  C   UNL     1     -25.650  -5.369  56.554  0.00  0.00    +0.000 C 
ATOM     30  C   UNL     1     -25.474  -4.556  54.309  0.00  0.00    +0.000 C 
BRANCH  26  31
ATOM     31  O   UNL     1     -28.559  -6.680  54.544  0.00  0.00    +0.000 OA
ATOM     32  H   UNL     1     -28.841  -7.196  55.319  0.00  0.00    +0.000 HD
ENDBRANCH  26  31
BRANCH  27  33
ATOM     33  O   UNL     1     -27.658  -6.461  57.307  0.00  0.00    +0.000 OA
ATOM     34  H   UNL     1     -28.457  -6.928  57.011  0.00  0.00    +0.000 HD
ENDBRANCH  27  33
BRANCH  28  35
ATOM     35  O   UNL     1     -26.101  -6.648  53.316  0.00  0.00    +0.000 OA
ATOM     36  H   UNL     1     -26.803  -7.318  53.369  0.00  0.00    +0.000 HD
ENDBRANCH  28  35
ENDBRANCH  24  29
ENDBRANCH   3  24
TORSDOF 9
ENDMDL
