MODEL 1
REMARK VINA RESULT:      -8.9      0.000      0.000
REMARK  Name = 5280637
REMARK                            x       y       z     vdW  Elec       q    Type
REMARK                         _______ _______ _______ _____ _____    ______ ____
ROOT
ATOM     13  C   LIG    1      153.072 153.350 148.747  0.00  0.00    +0.131 A 
ATOM     14  C   LIG    1      153.035 152.305 147.823  0.00  0.00    +0.092 A 
ATOM     15  C   LIG    1      151.857 152.024 147.129  0.00  0.00    +0.135 A 
ATOM     16  C   LIG    1      150.717 152.795 147.366  0.00  0.00    +0.105 A 
ATOM     17  C   LIG    1      149.461 152.521 146.652  0.00  0.00    +0.197 A 
ATOM     18  C   LIG    1      148.319 153.399 146.980  0.00  0.00    +0.098 A 
ATOM     19  C   LIG    1      148.480 154.377 147.885  0.00  0.00    +0.139 A 
ATOM     30  O   LIG    1      149.663 154.628 148.563  0.00  0.00    -0.454 OA
ATOM     31  O   LIG    1      149.358 151.619 145.832  0.00  0.00    -0.287 OA
ATOM     32  C   LIG    1      150.753 153.839 148.289  0.00  0.00    +0.146 A 
ATOM     35  C   LIG    1      151.930 154.118 148.982  0.00  0.00    +0.093 A 
ENDROOT
BRANCH  19  20
ATOM     20  C   LIG    1      147.372 155.280 148.259  0.00  0.00    +0.021 A 
ATOM     21  C   LIG    1      147.517 156.159 149.335  0.00  0.00    +0.015 A 
ATOM     22  C   LIG    1      146.470 157.010 149.688  0.00  0.00    +0.050 A 
ATOM     23  C   LIG    1      145.276 156.986 148.966  0.00  0.00    +0.158 A 
ATOM     24  C   LIG    1      145.129 156.109 147.892  0.00  0.00    +0.159 A 
ATOM     29  C   LIG    1      146.176 155.257 147.538  0.00  0.00    +0.060 A 
BRANCH  24  25
ATOM     25  O   LIG    1      143.968 156.078 147.179  0.00  0.00    -0.503 OA
ATOM     26  H   LIG    1      143.464 155.293 147.450  0.00  0.00    +0.292 HD
ENDBRANCH  24  25
BRANCH  23  27
ATOM     27  O   LIG    1      144.261 157.822 149.322  0.00  0.00    -0.503 OA
ATOM     28  H   LIG    1      144.568 158.742 149.249  0.00  0.00    +0.292 HD
ENDBRANCH  23  27
ENDBRANCH  19  20
BRANCH  15  33
ATOM     33  O   LIG    1      151.873 150.993 146.238  0.00  0.00    -0.506 OA
ATOM     34  H   LIG    1      151.393 150.230 146.592  0.00  0.00    +0.292 HD
ENDBRANCH  15  33
BRANCH  13  12
ATOM     12  O   LIG    1      154.225 153.620 149.422  0.00  0.00    -0.461 OA
BRANCH  12   2
ATOM      1  O   LIG    1      154.406 155.871 150.008  0.00  0.00    -0.331 OA
ATOM      2  C   LIG    1      154.132 154.559 150.493  0.00  0.00    +0.339 C 
ATOM      3  C   LIG    1      155.152 154.158 151.559  0.00  0.00    +0.214 C 
ATOM      4  C   LIG    1      155.225 155.198 152.678  0.00  0.00    +0.180 C 
ATOM      5  C   LIG    1      155.358 156.612 152.111  0.00  0.00    +0.177 C 
ATOM     36  C   LIG    1      154.305 156.865 151.030  0.00  0.00    +0.179 C 
BRANCH   5   6
ATOM      6  O   LIG    1      155.192 157.559 153.162  0.00  0.00    -0.386 OA
ATOM      7  H   LIG    1      154.246 157.776 153.224  0.00  0.00    +0.210 HD
ENDBRANCH   5   6
BRANCH   4   8
ATOM      8  O   LIG    1      156.369 154.939 153.494  0.00  0.00    -0.386 OA
ATOM      9  H   LIG    1      156.438 153.975 153.598  0.00  0.00    +0.210 HD
ENDBRANCH   4   8
BRANCH   3  10
ATOM     10  O   LIG    1      154.756 152.901 152.108  0.00  0.00    -0.383 OA
ATOM     11  H   LIG    1      154.621 152.280 151.371  0.00  0.00    +0.210 HD
ENDBRANCH   3  10
BRANCH  36  37
ATOM     37  C   LIG    1      154.492 158.227 150.368  0.00  0.00    +0.190 C 
BRANCH  37  38
ATOM     38  O   LIG    1      155.847 158.612 150.505  0.00  0.00    -0.392 OA
ATOM     39  H   LIG    1      155.865 159.561 150.718  0.00  0.00    +0.210 HD
ENDBRANCH  37  38
ENDBRANCH  36  37
ENDBRANCH  12   2
ENDBRANCH  13  12
TORSDOF 11
ENDMDL
MODEL 2
REMARK VINA RESULT:      -8.9      3.145      6.541
REMARK  Name = 5280637
REMARK                            x       y       z     vdW  Elec       q    Type
REMARK                         _______ _______ _______ _____ _____    ______ ____
ROOT
ATOM     13  C   LIG    1      153.512 153.225 148.611  0.00  0.00    +0.131 A 
ATOM     14  C   LIG    1      152.271 153.856 148.695  0.00  0.00    +0.092 A 
ATOM     15  C   LIG    1      151.148 153.277 148.103  0.00  0.00    +0.135 A 
ATOM     16  C   LIG    1      151.275 152.062 147.427  0.00  0.00    +0.105 A 
ATOM     17  C   LIG    1      150.110 151.427 146.792  0.00  0.00    +0.197 A 
ATOM     18  C   LIG    1      150.359 150.143 146.107  0.00  0.00    +0.098 A 
ATOM     19  C   LIG    1      151.600 149.631 146.100  0.00  0.00    +0.139 A 
ATOM     30  O   LIG    1      152.698 150.235 146.692  0.00  0.00    -0.454 OA
ATOM     31  O   LIG    1      148.995 151.928 146.825  0.00  0.00    -0.287 OA
ATOM     32  C   LIG    1      152.515 151.429 147.344  0.00  0.00    +0.146 A 
ATOM     35  C   LIG    1      153.636 152.010 147.935  0.00  0.00    +0.093 A 
ENDROOT
BRANCH  19  20
ATOM     20  C   LIG    1      151.910 148.355 145.423  0.00  0.00    +0.021 A 
ATOM     21  C   LIG    1      153.223 147.880 145.389  0.00  0.00    +0.015 A 
ATOM     22  C   LIG    1      153.516 146.676 144.749  0.00  0.00    +0.050 A 
ATOM     23  C   LIG    1      152.496 145.943 144.141  0.00  0.00    +0.158 A 
ATOM     24  C   LIG    1      151.184 146.415 144.173  0.00  0.00    +0.159 A 
ATOM     29  C   LIG    1      150.891 147.619 144.813  0.00  0.00    +0.060 A 
BRANCH  24  25
ATOM     25  O   LIG    1      150.180 145.706 143.584  0.00  0.00    -0.503 OA
ATOM     26  H   LIG    1      149.758 146.271 142.915  0.00  0.00    +0.292 HD
ENDBRANCH  24  25
BRANCH  23  27
ATOM     27  O   LIG    1      152.795 144.769 143.519  0.00  0.00    -0.503 OA
ATOM     28  H   LIG    1      153.239 144.962 142.674  0.00  0.00    +0.292 HD
ENDBRANCH  23  27
ENDBRANCH  19  20
BRANCH  15  33
ATOM     33  O   LIG    1      149.960 153.934 148.213  0.00  0.00    -0.506 OA
ATOM     34  H   LIG    1      150.101 154.847 148.503  0.00  0.00    +0.292 HD
ENDBRANCH  15  33
BRANCH  13  12
ATOM     12  O   LIG    1      154.607 153.795 149.191  0.00  0.00    -0.461 OA
BRANCH  12   2
ATOM      1  O   LIG    1      154.630 156.013 149.917  0.00  0.00    -0.331 OA
ATOM      2  C   LIG    1      154.364 154.665 150.296  0.00  0.00    +0.339 C 
ATOM      3  C   LIG    1      155.284 154.238 151.440  0.00  0.00    +0.214 C 
ATOM      4  C   LIG    1      155.197 155.212 152.616  0.00  0.00    +0.180 C 
ATOM      5  C   LIG    1      155.327 156.661 152.146  0.00  0.00    +0.177 C 
ATOM     36  C   LIG    1      154.381 156.939 150.975  0.00  0.00    +0.179 C 
BRANCH   5   6
ATOM      6  O   LIG    1      155.013 157.537 153.225  0.00  0.00    -0.386 OA
ATOM      7  H   LIG    1      155.196 158.447 152.935  0.00  0.00    +0.210 HD
ENDBRANCH   5   6
BRANCH   4   8
ATOM      8  O   LIG    1      156.261 154.947 153.533  0.00  0.00    -0.386 OA
ATOM      9  H   LIG    1      156.942 154.447 153.051  0.00  0.00    +0.210 HD
ENDBRANCH   4   8
BRANCH   3  10
ATOM     10  O   LIG    1      154.888 152.937 151.873  0.00  0.00    -0.383 OA
ATOM     11  H   LIG    1      155.371 152.282 151.340  0.00  0.00    +0.210 HD
ENDBRANCH   3  10
BRANCH  36  37
ATOM     37  C   LIG    1      154.577 158.344 150.413  0.00  0.00    +0.190 C 
BRANCH  37  38
ATOM     38  O   LIG    1      155.757 158.892 150.971  0.00  0.00    -0.392 OA
ATOM     39  H   LIG    1      155.507 159.369 151.781  0.00  0.00    +0.210 HD
ENDBRANCH  37  38
ENDBRANCH  36  37
ENDBRANCH  12   2
ENDBRANCH  13  12
TORSDOF 11
ENDMDL
MODEL 3
REMARK VINA RESULT:      -8.7      3.044      6.361
REMARK  Name = 5280637
REMARK                            x       y       z     vdW  Elec       q    Type
REMARK                         _______ _______ _______ _____ _____    ______ ____
ROOT
ATOM     13  C   LIG    1      152.082 152.996 150.829  0.00  0.00    +0.131 A 
ATOM     14  C   LIG    1      151.055 153.908 150.588  0.00  0.00    +0.092 A 
ATOM     15  C   LIG    1      150.566 154.087 149.293  0.00  0.00    +0.135 A 
ATOM     16  C   LIG    1      151.112 153.348 148.242  0.00  0.00    +0.105 A 
ATOM     17  C   LIG    1      150.619 153.516 146.867  0.00  0.00    +0.197 A 
ATOM     18  C   LIG    1      151.267 152.681 145.834  0.00  0.00    +0.098 A 
ATOM     19  C   LIG    1      152.244 151.833 146.192  0.00  0.00    +0.139 A 
ATOM     30  O   LIG    1      152.712 151.682 147.488  0.00  0.00    -0.454 OA
ATOM     31  O   LIG    1      149.724 154.300 146.585  0.00  0.00    -0.287 OA
ATOM     32  C   LIG    1      152.139 152.435 148.482  0.00  0.00    +0.146 A 
ATOM     35  C   LIG    1      152.626 152.258 149.776  0.00  0.00    +0.093 A 
ENDROOT
BRANCH  19  20
ATOM     20  C   LIG    1      152.934 150.981 145.202  0.00  0.00    +0.021 A 
ATOM     21  C   LIG    1      153.265 151.493 143.946  0.00  0.00    +0.015 A 
ATOM     22  C   LIG    1      153.915 150.688 143.011  0.00  0.00    +0.050 A 
ATOM     23  C   LIG    1      154.237 149.368 143.330  0.00  0.00    +0.158 A 
ATOM     24  C   LIG    1      153.906 148.854 144.584  0.00  0.00    +0.159 A 
ATOM     29  C   LIG    1      153.256 149.659 145.519  0.00  0.00    +0.060 A 
BRANCH  24  25
ATOM     25  O   LIG    1      154.217 147.567 144.906  0.00  0.00    -0.503 OA
ATOM     26  H   LIG    1      155.037 147.325 144.443  0.00  0.00    +0.292 HD
ENDBRANCH  24  25
BRANCH  23  27
ATOM     27  O   LIG    1      154.871 148.591 142.408  0.00  0.00    -0.503 OA
ATOM     28  H   LIG    1      154.523 148.801 141.524  0.00  0.00    +0.292 HD
ENDBRANCH  23  27
ENDBRANCH  19  20
BRANCH  15  33
ATOM     33  O   LIG    1      149.563 154.990 149.110  0.00  0.00    -0.506 OA
ATOM     34  H   LIG    1      149.036 155.082 149.918  0.00  0.00    +0.292 HD
ENDBRANCH  15  33
BRANCH  13  12
ATOM     12  O   LIG    1      152.557 152.824 152.096  0.00  0.00    -0.461 OA
BRANCH  12   2
ATOM      1  O   LIG    1      152.900 155.105 152.450  0.00  0.00    -0.331 OA
ATOM      2  C   LIG    1      153.477 153.807 152.571  0.00  0.00    +0.339 C 
ATOM      3  C   LIG    1      154.749 153.705 151.730  0.00  0.00    +0.214 C 
ATOM      4  C   LIG    1      155.734 154.823 152.074  0.00  0.00    +0.180 C 
ATOM      5  C   LIG    1      155.040 156.185 152.090  0.00  0.00    +0.177 C 
ATOM     36  C   LIG    1      153.764 156.135 152.934  0.00  0.00    +0.179 C 
BRANCH   5   6
ATOM      6  O   LIG    1      155.927 157.160 152.634  0.00  0.00    -0.386 OA
ATOM      7  H   LIG    1      156.330 156.784 153.435  0.00  0.00    +0.210 HD
ENDBRANCH   5   6
BRANCH   4   8
ATOM      8  O   LIG    1      156.768 154.865 151.089  0.00  0.00    -0.386 OA
ATOM      9  H   LIG    1      157.086 153.955 150.963  0.00  0.00    +0.210 HD
ENDBRANCH   4   8
BRANCH   3  10
ATOM     10  O   LIG    1      155.359 152.441 151.992  0.00  0.00    -0.383 OA
ATOM     11  H   LIG    1      156.053 152.297 151.325  0.00  0.00    +0.210 HD
ENDBRANCH   3  10
BRANCH  36  37
ATOM     37  C   LIG    1      152.993 157.450 152.870  0.00  0.00    +0.190 C 
BRANCH  37  38
ATOM     38  O   LIG    1      153.401 158.155 151.712  0.00  0.00    -0.392 OA
ATOM     39  H   LIG    1      153.353 157.541 150.960  0.00  0.00    +0.210 HD
ENDBRANCH  37  38
ENDBRANCH  36  37
ENDBRANCH  12   2
ENDBRANCH  13  12
TORSDOF 11
ENDMDL
MODEL 4
REMARK VINA RESULT:      -8.7      2.555      5.358
REMARK  Name = 5280637
REMARK                            x       y       z     vdW  Elec       q    Type
REMARK                         _______ _______ _______ _____ _____    ______ ____
ROOT
ATOM     13  C   LIG    1      153.122 158.207 150.714  0.00  0.00    +0.131 A 
ATOM     14  C   LIG    1      153.035 159.315 151.557  0.00  0.00    +0.092 A 
ATOM     15  C   LIG    1      151.800 159.920 151.795  0.00  0.00    +0.135 A 
ATOM     16  C   LIG    1      150.653 159.409 151.183  0.00  0.00    +0.105 A 
ATOM     17  C   LIG    1      149.338 160.027 151.413  0.00  0.00    +0.197 A 
ATOM     18  C   LIG    1      148.194 159.403 150.717  0.00  0.00    +0.098 A 
ATOM     19  C   LIG    1      148.404 158.333 149.935  0.00  0.00    +0.139 A 
ATOM     30  O   LIG    1      149.646 157.758 149.714  0.00  0.00    -0.454 OA
ATOM     31  O   LIG    1      149.191 161.001 152.137  0.00  0.00    -0.287 OA
ATOM     32  C   LIG    1      150.739 158.301 150.341  0.00  0.00    +0.146 A 
ATOM     35  C   LIG    1      151.974 157.699 150.105  0.00  0.00    +0.093 A 
ENDROOT
BRANCH  19  20
ATOM     20  C   LIG    1      147.299 157.673 149.208  0.00  0.00    +0.021 A 
ATOM     21  C   LIG    1      147.575 156.832 148.128  0.00  0.00    +0.015 A 
ATOM     22  C   LIG    1      146.532 156.211 147.441  0.00  0.00    +0.050 A 
ATOM     23  C   LIG    1      145.211 156.428 147.833  0.00  0.00    +0.158 A 
ATOM     24  C   LIG    1      144.933 157.268 148.912  0.00  0.00    +0.159 A 
ATOM     29  C   LIG    1      145.976 157.890 149.599  0.00  0.00    +0.060 A 
BRANCH  24  25
ATOM     25  O   LIG    1      143.647 157.485 149.304  0.00  0.00    -0.503 OA
ATOM     26  H   LIG    1      143.261 156.634 149.573  0.00  0.00    +0.292 HD
ENDBRANCH  24  25
BRANCH  23  27
ATOM     27  O   LIG    1      144.202 155.816 147.154  0.00  0.00    -0.503 OA
ATOM     28  H   LIG    1      143.558 156.488 146.869  0.00  0.00    +0.292 HD
ENDBRANCH  23  27
ENDBRANCH  19  20
BRANCH  15  33
ATOM     33  O   LIG    1      151.769 161.000 152.625  0.00  0.00    -0.506 OA
ATOM     34  H   LIG    1      151.889 161.820 152.123  0.00  0.00    +0.292 HD
ENDBRANCH  15  33
BRANCH  13  12
ATOM     12  O   LIG    1      154.331 157.619 150.485  0.00  0.00    -0.461 OA
BRANCH  12   2
ATOM      1  O   LIG    1      153.320 155.518 150.558  0.00  0.00    -0.331 OA
ATOM      2  C   LIG    1      154.477 156.268 150.919  0.00  0.00    +0.339 C 
ATOM      3  C   LIG    1      154.655 156.280 152.438  0.00  0.00    +0.214 C 
ATOM      4  C   LIG    1      154.668 154.860 153.007  0.00  0.00    +0.180 C 
ATOM      5  C   LIG    1      153.498 154.037 152.468  0.00  0.00    +0.177 C 
ATOM     36  C   LIG    1      153.414 154.146 150.944  0.00  0.00    +0.179 C 
BRANCH   5   6
ATOM      6  O   LIG    1      153.674 152.671 152.835  0.00  0.00    -0.386 OA
ATOM      7  H   LIG    1      153.462 152.123 152.060  0.00  0.00    +0.210 HD
ENDBRANCH   5   6
BRANCH   4   8
ATOM      8  O   LIG    1      154.551 154.918 154.430  0.00  0.00    -0.386 OA
ATOM      9  H   LIG    1      155.040 154.159 154.792  0.00  0.00    +0.210 HD
ENDBRANCH   4   8
BRANCH   3  10
ATOM     10  O   LIG    1      155.893 156.922 152.739  0.00  0.00    -0.383 OA
ATOM     11  H   LIG    1      156.487 156.261 153.135  0.00  0.00    +0.210 HD
ENDBRANCH   3  10
BRANCH  36  37
ATOM     37  C   LIG    1      152.185 153.428 150.394  0.00  0.00    +0.190 C 
BRANCH  37  38
ATOM     38  O   LIG    1      151.253 153.260 151.447  0.00  0.00    -0.392 OA
ATOM     39  H   LIG    1      151.214 154.095 151.943  0.00  0.00    +0.210 HD
ENDBRANCH  37  38
ENDBRANCH  36  37
ENDBRANCH  12   2
ENDBRANCH  13  12
TORSDOF 11
ENDMDL
MODEL 5
REMARK VINA RESULT:      -8.6      5.176      8.297
REMARK  Name = 5280637
REMARK                            x       y       z     vdW  Elec       q    Type
REMARK                         _______ _______ _______ _____ _____    ______ ____
ROOT
ATOM     13  C   LIG    1      152.195 158.323 152.083  0.00  0.00    +0.131 A 
ATOM     14  C   LIG    1      151.338 157.894 151.070  0.00  0.00    +0.092 A 
ATOM     15  C   LIG    1      150.681 158.826 150.265  0.00  0.00    +0.135 A 
ATOM     16  C   LIG    1      150.889 160.190 150.481  0.00  0.00    +0.105 A 
ATOM     17  C   LIG    1      150.210 161.196 149.650  0.00  0.00    +0.197 A 
ATOM     18  C   LIG    1      150.504 162.609 149.965  0.00  0.00    +0.098 A 
ATOM     19  C   LIG    1      151.354 162.897 150.963  0.00  0.00    +0.139 A 
ATOM     30  O   LIG    1      151.987 161.947 151.750  0.00  0.00    -0.454 OA
ATOM     31  O   LIG    1      149.444 160.889 148.748  0.00  0.00    -0.287 OA
ATOM     32  C   LIG    1      151.746 160.620 151.493  0.00  0.00    +0.146 A 
ATOM     35  C   LIG    1      152.400 159.687 152.297  0.00  0.00    +0.093 A 
ENDROOT
BRANCH  19  20
ATOM     20  C   LIG    1      151.679 164.291 151.329  0.00  0.00    +0.021 A 
ATOM     21  C   LIG    1      151.625 164.696 152.664  0.00  0.00    +0.015 A 
ATOM     22  C   LIG    1      151.930 166.013 153.008  0.00  0.00    +0.050 A 
ATOM     23  C   LIG    1      152.292 166.927 152.019  0.00  0.00    +0.158 A 
ATOM     24  C   LIG    1      152.347 166.525 150.684  0.00  0.00    +0.159 A 
ATOM     29  C   LIG    1      152.041 165.208 150.339  0.00  0.00    +0.060 A 
BRANCH  24  25
ATOM     25  O   LIG    1      152.701 167.409 149.710  0.00  0.00    -0.503 OA
ATOM     26  H   LIG    1      153.671 167.419 149.644  0.00  0.00    +0.292 HD
ENDBRANCH  24  25
BRANCH  23  27
ATOM     27  O   LIG    1      152.587 168.210 152.368  0.00  0.00    -0.503 OA
ATOM     28  H   LIG    1      153.412 168.217 152.884  0.00  0.00    +0.292 HD
ENDBRANCH  23  27
ENDBRANCH  19  20
BRANCH  15  33
ATOM     33  O   LIG    1      149.854 158.355 149.290  0.00  0.00    -0.506 OA
ATOM     34  H   LIG    1      149.532 157.470 149.515  0.00  0.00    +0.292 HD
ENDBRANCH  15  33
BRANCH  13  12
ATOM     12  O   LIG    1      152.834 157.408 152.868  0.00  0.00    -0.461 OA
BRANCH  12   2
ATOM      1  O   LIG    1      152.941 155.179 152.187  0.00  0.00    -0.331 OA
ATOM      2  C   LIG    1      153.624 156.430 152.194  0.00  0.00    +0.339 C 
ATOM      3  C   LIG    1      154.956 156.310 152.936  0.00  0.00    +0.214 C 
ATOM      4  C   LIG    1      155.808 155.174 152.368  0.00  0.00    +0.180 C 
ATOM      5  C   LIG    1      154.992 153.889 152.226  0.00  0.00    +0.177 C 
ATOM     36  C   LIG    1      153.672 154.160 151.502  0.00  0.00    +0.179 C 
BRANCH   5   6
ATOM      6  O   LIG    1      155.747 152.931 151.488  0.00  0.00    -0.386 OA
ATOM      7  H   LIG    1      155.169 152.171 151.304  0.00  0.00    +0.210 HD
ENDBRANCH   5   6
BRANCH   4   8
ATOM      8  O   LIG    1      156.899 154.911 153.252  0.00  0.00    -0.386 OA
ATOM      9  H   LIG    1      157.643 155.469 152.968  0.00  0.00    +0.210 HD
ENDBRANCH   4   8
BRANCH   3  10
ATOM     10  O   LIG    1      155.659 157.544 152.797  0.00  0.00    -0.383 OA
ATOM     11  H   LIG    1      155.905 157.647 151.861  0.00  0.00    +0.210 HD
ENDBRANCH   3  10
BRANCH  36  37
ATOM     37  C   LIG    1      152.789 152.917 151.452  0.00  0.00    +0.190 C 
BRANCH  37  38
ATOM     38  O   LIG    1      153.375 151.916 152.266  0.00  0.00    -0.392 OA
ATOM     39  H   LIG    1      152.653 151.432 152.703  0.00  0.00    +0.210 HD
ENDBRANCH  37  38
ENDBRANCH  36  37
ENDBRANCH  12   2
ENDBRANCH  13  12
TORSDOF 11
ENDMDL
MODEL 6
REMARK VINA RESULT:      -8.6      3.864      6.566
REMARK  Name = 5280637
REMARK                            x       y       z     vdW  Elec       q    Type
REMARK                         _______ _______ _______ _____ _____    ______ ____
ROOT
ATOM     13  C   LIG    1      151.830 153.296 146.700  0.00  0.00    +0.131 A 
ATOM     14  C   LIG    1      153.095 153.363 146.115  0.00  0.00    +0.092 A 
ATOM     15  C   LIG    1      153.361 152.661 144.938  0.00  0.00    +0.135 A 
ATOM     16  C   LIG    1      152.353 151.893 144.351  0.00  0.00    +0.105 A 
ATOM     17  C   LIG    1      152.603 151.141 143.112  0.00  0.00    +0.197 A 
ATOM     18  C   LIG    1      151.465 150.365 142.579  0.00  0.00    +0.098 A 
ATOM     19  C   LIG    1      150.292 150.385 143.231  0.00  0.00    +0.139 A 
ATOM     30  O   LIG    1      150.061 151.088 144.403  0.00  0.00    -0.454 OA
ATOM     31  O   LIG    1      153.688 151.153 142.549  0.00  0.00    -0.287 OA
ATOM     32  C   LIG    1      151.088 151.827 144.935  0.00  0.00    +0.146 A 
ATOM     35  C   LIG    1      150.825 152.528 146.111  0.00  0.00    +0.093 A 
ENDROOT
BRANCH  19  20
ATOM     20  C   LIG    1      149.122 149.622 142.749  0.00  0.00    +0.021 A 
ATOM     21  C   LIG    1      147.829 150.073 143.023  0.00  0.00    +0.015 A 
ATOM     22  C   LIG    1      146.725 149.351 142.569  0.00  0.00    +0.050 A 
ATOM     23  C   LIG    1      146.911 148.176 141.840  0.00  0.00    +0.158 A 
ATOM     24  C   LIG    1      148.202 147.723 141.566  0.00  0.00    +0.159 A 
ATOM     29  C   LIG    1      149.306 148.445 142.020  0.00  0.00    +0.060 A 
BRANCH  24  25
ATOM     25  O   LIG    1      148.395 146.578 140.853  0.00  0.00    -0.503 OA
ATOM     26  H   LIG    1      147.524 146.211 140.623  0.00  0.00    +0.292 HD
ENDBRANCH  24  25
BRANCH  23  27
ATOM     27  O   LIG    1      145.825 147.480 141.404  0.00  0.00    -0.503 OA
ATOM     28  H   LIG    1      145.559 146.845 142.090  0.00  0.00    +0.292 HD
ENDBRANCH  23  27
ENDBRANCH  19  20
BRANCH  15  33
ATOM     33  O   LIG    1      154.611 152.758 144.407  0.00  0.00    -0.506 OA
ATOM     34  H   LIG    1      155.022 151.883 144.342  0.00  0.00    +0.292 HD
ENDBRANCH  15  33
BRANCH  13  12
ATOM     12  O   LIG    1      151.576 153.984 147.851  0.00  0.00    -0.461 OA
BRANCH  12   2
ATOM      1  O   LIG    1      152.374 152.982 149.801  0.00  0.00    -0.331 OA
ATOM      2  C   LIG    1      152.614 153.997 148.829  0.00  0.00    +0.339 C 
ATOM      3  C   LIG    1      152.623 155.377 149.487  0.00  0.00    +0.214 C 
ATOM      4  C   LIG    1      153.608 155.431 150.655  0.00  0.00    +0.180 C 
ATOM      5  C   LIG    1      153.424 154.235 151.590  0.00  0.00    +0.177 C 
ATOM     36  C   LIG    1      153.395 152.926 150.798  0.00  0.00    +0.179 C 
BRANCH   5   6
ATOM      6  O   LIG    1      154.500 154.198 152.524  0.00  0.00    -0.386 OA
ATOM      7  H   LIG    1      155.244 153.731 152.107  0.00  0.00    +0.210 HD
ENDBRANCH   5   6
BRANCH   4   8
ATOM      8  O   LIG    1      153.386 156.623 151.410  0.00  0.00    -0.386 OA
ATOM      9  H   LIG    1      152.445 156.639 151.657  0.00  0.00    +0.210 HD
ENDBRANCH   4   8
BRANCH   3  10
ATOM     10  O   LIG    1      153.001 156.340 148.503  0.00  0.00    -0.383 OA
ATOM     11  H   LIG    1      152.493 157.153 148.667  0.00  0.00    +0.210 HD
ENDBRANCH   3  10
BRANCH  36  37
ATOM     37  C   LIG    1      153.095 151.730 151.697  0.00  0.00    +0.190 C 
BRANCH  37  38
ATOM     38  O   LIG    1      154.305 151.302 152.295  0.00  0.00    -0.392 OA
ATOM     39  H   LIG    1      155.036 151.751 151.837  0.00  0.00    +0.210 HD
ENDBRANCH  37  38
ENDBRANCH  36  37
ENDBRANCH  12   2
ENDBRANCH  13  12
TORSDOF 11
ENDMDL
MODEL 7
REMARK VINA RESULT:      -8.6      2.680      9.545
REMARK  Name = 5280637
REMARK                            x       y       z     vdW  Elec       q    Type
REMARK                         _______ _______ _______ _____ _____    ______ ____
ROOT
ATOM     13  C   LIG    1      148.218 159.062 150.206  0.00  0.00    +0.131 A 
ATOM     14  C   LIG    1      148.495 160.337 150.699  0.00  0.00    +0.092 A 
ATOM     15  C   LIG    1      149.715 160.598 151.323  0.00  0.00    +0.135 A 
ATOM     16  C   LIG    1      150.657 159.574 151.451  0.00  0.00    +0.105 A 
ATOM     17  C   LIG    1      151.951 159.818 152.105  0.00  0.00    +0.197 A 
ATOM     18  C   LIG    1      152.871 158.664 152.184  0.00  0.00    +0.098 A 
ATOM     19  C   LIG    1      152.492 157.485 151.666  0.00  0.00    +0.139 A 
ATOM     30  O   LIG    1      151.268 157.256 151.057  0.00  0.00    -0.454 OA
ATOM     31  O   LIG    1      152.257 160.911 152.562  0.00  0.00    -0.287 OA
ATOM     32  C   LIG    1      150.381 158.299 150.958  0.00  0.00    +0.146 A 
ATOM     35  C   LIG    1      149.161 158.040 150.335  0.00  0.00    +0.093 A 
ENDROOT
BRANCH  19  20
ATOM     20  C   LIG    1      153.366 156.295 151.723  0.00  0.00    +0.021 A 
ATOM     21  C   LIG    1      152.971 155.106 151.108  0.00  0.00    +0.015 A 
ATOM     22  C   LIG    1      153.795 153.982 151.163  0.00  0.00    +0.050 A 
ATOM     23  C   LIG    1      155.018 154.046 151.832  0.00  0.00    +0.158 A 
ATOM     24  C   LIG    1      155.414 155.233 152.448  0.00  0.00    +0.159 A 
ATOM     29  C   LIG    1      154.590 156.356 152.393  0.00  0.00    +0.060 A 
BRANCH  24  25
ATOM     25  O   LIG    1      156.607 155.306 153.104  0.00  0.00    -0.503 OA
ATOM     26  H   LIG    1      156.430 155.316 154.060  0.00  0.00    +0.292 HD
ENDBRANCH  24  25
BRANCH  23  27
ATOM     27  O   LIG    1      155.813 152.941 151.880  0.00  0.00    -0.503 OA
ATOM     28  H   LIG    1      155.415 152.289 152.482  0.00  0.00    +0.292 HD
ENDBRANCH  23  27
ENDBRANCH  19  20
BRANCH  15  33
ATOM     33  O   LIG    1      149.937 161.859 151.788  0.00  0.00    -0.506 OA
ATOM     34  H   LIG    1      149.557 162.516 151.185  0.00  0.00    +0.292 HD
ENDBRANCH  15  33
BRANCH  13  12
ATOM     12  O   LIG    1      147.023 158.811 149.597  0.00  0.00    -0.461 OA
BRANCH  12   2
ATOM      1  O   LIG    1      147.726 156.780 148.690  0.00  0.00    -0.331 OA
ATOM      2  C   LIG    1      146.682 157.440 149.401  0.00  0.00    +0.339 C 
ATOM      3  C   LIG    1      145.377 157.390 148.606  0.00  0.00    +0.214 C 
ATOM      4  C   LIG    1      145.015 155.955 148.221  0.00  0.00    +0.180 C 
ATOM      5  C   LIG    1      146.212 155.228 147.606  0.00  0.00    +0.177 C 
ATOM     36  C   LIG    1      147.456 155.392 148.482  0.00  0.00    +0.179 C 
BRANCH   5   6
ATOM      6  O   LIG    1      145.906 153.843 147.476  0.00  0.00    -0.386 OA
ATOM      7  H   LIG    1      146.719 153.379 147.213  0.00  0.00    +0.210 HD
ENDBRANCH   5   6
BRANCH   4   8
ATOM      8  O   LIG    1      143.963 155.973 147.254  0.00  0.00    -0.386 OA
ATOM      9  H   LIG    1      143.159 155.646 147.694  0.00  0.00    +0.210 HD
ENDBRANCH   4   8
BRANCH   3  10
ATOM     10  O   LIG    1      144.337 157.939 149.416  0.00  0.00    -0.383 OA
ATOM     11  H   LIG    1      144.305 158.898 149.256  0.00  0.00    +0.210 HD
ENDBRANCH   3  10
BRANCH  36  37
ATOM     37  C   LIG    1      148.690 154.776 147.831  0.00  0.00    +0.190 C 
BRANCH  37  38
ATOM     38  O   LIG    1      148.569 153.366 147.882  0.00  0.00    -0.392 OA
ATOM     39  H   LIG    1      149.012 153.003 147.096  0.00  0.00    +0.210 HD
ENDBRANCH  37  38
ENDBRANCH  36  37
ENDBRANCH  12   2
ENDBRANCH  13  12
TORSDOF 11
ENDMDL
MODEL 8
REMARK VINA RESULT:      -8.5      4.475      6.581
REMARK  Name = 5280637
REMARK                            x       y       z     vdW  Elec       q    Type
REMARK                         _______ _______ _______ _____ _____    ______ ____
ROOT
ATOM     13  C   LIG    1      150.489 156.554 149.766  0.00  0.00    +0.131 A 
ATOM     14  C   LIG    1      149.152 156.378 150.123  0.00  0.00    +0.092 A 
ATOM     15  C   LIG    1      148.237 157.417 149.950  0.00  0.00    +0.135 A 
ATOM     16  C   LIG    1      148.669 158.634 149.417  0.00  0.00    +0.105 A 
ATOM     17  C   LIG    1      147.729 159.748 149.224  0.00  0.00    +0.197 A 
ATOM     18  C   LIG    1      148.294 160.987 148.652  0.00  0.00    +0.098 A 
ATOM     19  C   LIG    1      149.600 161.033 148.342  0.00  0.00    +0.139 A 
ATOM     30  O   LIG    1      150.485 159.984 148.533  0.00  0.00    -0.454 OA
ATOM     31  O   LIG    1      146.545 159.663 149.518  0.00  0.00    -0.287 OA
ATOM     32  C   LIG    1      150.005 158.811 149.060  0.00  0.00    +0.146 A 
ATOM     35  C   LIG    1      150.918 157.771 149.235  0.00  0.00    +0.093 A 
ENDROOT
BRANCH  19  20
ATOM     20  C   LIG    1      150.222 162.248 147.776  0.00  0.00    +0.021 A 
ATOM     21  C   LIG    1      149.538 163.465 147.807  0.00  0.00    +0.015 A 
ATOM     22  C   LIG    1      150.125 164.611 147.271  0.00  0.00    +0.050 A 
ATOM     23  C   LIG    1      151.398 164.543 146.704  0.00  0.00    +0.158 A 
ATOM     24  C   LIG    1      152.082 163.328 146.670  0.00  0.00    +0.159 A 
ATOM     29  C   LIG    1      151.495 162.182 147.206  0.00  0.00    +0.060 A 
BRANCH  24  25
ATOM     25  O   LIG    1      153.326 163.251 146.120  0.00  0.00    -0.503 OA
ATOM     26  H   LIG    1      153.383 163.902 145.400  0.00  0.00    +0.292 HD
ENDBRANCH  24  25
BRANCH  23  27
ATOM     27  O   LIG    1      151.960 165.669 146.183  0.00  0.00    -0.503 OA
ATOM     28  H   LIG    1      151.860 165.655 145.215  0.00  0.00    +0.292 HD
ENDBRANCH  23  27
ENDBRANCH  19  20
BRANCH  15  33
ATOM     33  O   LIG    1      146.943 157.195 150.314  0.00  0.00    -0.506 OA
ATOM     34  H   LIG    1      146.899 156.561 151.045  0.00  0.00    +0.292 HD
ENDBRANCH  15  33
BRANCH  13  12
ATOM     12  O   LIG    1      151.379 155.535 149.938  0.00  0.00    -0.461 OA
BRANCH  12   2
ATOM      1  O   LIG    1      153.087 156.299 151.332  0.00  0.00    -0.331 OA
ATOM      2  C   LIG    1      151.972 155.417 151.231  0.00  0.00    +0.339 C 
ATOM      3  C   LIG    1      152.418 153.966 151.412  0.00  0.00    +0.214 C 
ATOM      4  C   LIG    1      153.201 153.783 152.713  0.00  0.00    +0.180 C 
ATOM      5  C   LIG    1      154.286 154.849 152.861  0.00  0.00    +0.177 C 
ATOM     36  C   LIG    1      153.712 156.247 152.616  0.00  0.00    +0.179 C 
BRANCH   5   6
ATOM      6  O   LIG    1      154.833 154.788 154.176  0.00  0.00    -0.386 OA
ATOM      7  H   LIG    1      154.446 154.017 154.625  0.00  0.00    +0.210 HD
ENDBRANCH   5   6
BRANCH   4   8
ATOM      8  O   LIG    1      153.835 152.503 152.711  0.00  0.00    -0.386 OA
ATOM      9  H   LIG    1      154.780 152.647 152.888  0.00  0.00    +0.210 HD
ENDBRANCH   4   8
BRANCH   3  10
ATOM     10  O   LIG    1      151.255 153.139 151.440  0.00  0.00    -0.383 OA
ATOM     11  H   LIG    1      151.501 152.261 151.102  0.00  0.00    +0.210 HD
ENDBRANCH   3  10
BRANCH  36  37
ATOM     37  C   LIG    1      154.800 157.316 152.642  0.00  0.00    +0.190 C 
BRANCH  37  38
ATOM     38  O   LIG    1      156.061 156.674 152.689  0.00  0.00    -0.392 OA
ATOM     39  H   LIG    1      155.982 155.911 153.287  0.00  0.00    +0.210 HD
ENDBRANCH  37  38
ENDBRANCH  36  37
ENDBRANCH  12   2
ENDBRANCH  13  12
TORSDOF 11
ENDMDL
MODEL 9
REMARK VINA RESULT:      -8.5      5.438      8.151
REMARK  Name = 5280637
REMARK                            x       y       z     vdW  Elec       q    Type
REMARK                         _______ _______ _______ _____ _____    ______ ____
ROOT
ATOM     13  C   LIG    1      152.148 159.254 151.421  0.00  0.00    +0.131 A 
ATOM     14  C   LIG    1      150.917 158.620 151.249  0.00  0.00    +0.092 A 
ATOM     15  C   LIG    1      149.914 159.230 150.496  0.00  0.00    +0.135 A 
ATOM     16  C   LIG    1      150.150 160.478 149.915  0.00  0.00    +0.105 A 
ATOM     17  C   LIG    1      149.112 161.147 149.116  0.00  0.00    +0.197 A 
ATOM     18  C   LIG    1      149.471 162.462 148.548  0.00  0.00    +0.098 A 
ATOM     19  C   LIG    1      150.693 162.966 148.779  0.00  0.00    +0.139 A 
ATOM     30  O   LIG    1      151.668 162.338 149.538  0.00  0.00    -0.454 OA
ATOM     31  O   LIG    1      148.010 160.649 148.929  0.00  0.00    -0.287 OA
ATOM     32  C   LIG    1      151.381 161.112 150.085  0.00  0.00    +0.146 A 
ATOM     35  C   LIG    1      152.381 160.501 150.839  0.00  0.00    +0.093 A 
ENDROOT
BRANCH  19  20
ATOM     20  C   LIG    1      151.105 164.281 148.243  0.00  0.00    +0.021 A 
ATOM     21  C   LIG    1      151.188 164.481 146.864  0.00  0.00    +0.015 A 
ATOM     22  C   LIG    1      151.578 165.721 146.359  0.00  0.00    +0.050 A 
ATOM     23  C   LIG    1      151.886 166.765 147.232  0.00  0.00    +0.158 A 
ATOM     24  C   LIG    1      151.805 166.567 148.610  0.00  0.00    +0.159 A 
ATOM     29  C   LIG    1      151.415 165.327 149.116  0.00  0.00    +0.060 A 
BRANCH  24  25
ATOM     25  O   LIG    1      152.102 167.580 149.472  0.00  0.00    -0.503 OA
ATOM     26  H   LIG    1      152.850 168.082 149.107  0.00  0.00    +0.292 HD
ENDBRANCH  24  25
BRANCH  23  27
ATOM     27  O   LIG    1      152.266 167.971 146.726  0.00  0.00    -0.503 OA
ATOM     28  H   LIG    1      151.525 168.595 146.803  0.00  0.00    +0.292 HD
ENDBRANCH  23  27
ENDBRANCH  19  20
BRANCH  15  33
ATOM     33  O   LIG    1      148.729 158.571 150.358  0.00  0.00    -0.506 OA
ATOM     34  H   LIG    1      148.194 158.662 151.161  0.00  0.00    +0.292 HD
ENDBRANCH  15  33
BRANCH  13  12
ATOM     12  O   LIG    1      153.126 158.654 152.159  0.00  0.00    -0.461 OA
BRANCH  12   2
ATOM      1  O   LIG    1      153.256 156.608 153.272  0.00  0.00    -0.331 OA
ATOM      2  C   LIG    1      153.273 157.244 151.997  0.00  0.00    +0.339 C 
ATOM      3  C   LIG    1      154.604 156.989 151.289  0.00  0.00    +0.214 C 
ATOM      4  C   LIG    1      154.914 155.494 151.208  0.00  0.00    +0.180 C 
ATOM      5  C   LIG    1      154.727 154.816 152.566  0.00  0.00    +0.177 C 
ATOM     36  C   LIG    1      153.374 155.187 153.177  0.00  0.00    +0.179 C 
BRANCH   5   6
ATOM      6  O   LIG    1      154.799 153.402 152.401  0.00  0.00    -0.386 OA
ATOM      7  H   LIG    1      154.028 153.122 151.877  0.00  0.00    +0.210 HD
ENDBRANCH   5   6
BRANCH   4   8
ATOM      8  O   LIG    1      156.271 155.310 150.804  0.00  0.00    -0.386 OA
ATOM      9  H   LIG    1      156.280 154.617 150.122  0.00  0.00    +0.210 HD
ENDBRANCH   4   8
BRANCH   3  10
ATOM     10  O   LIG    1      154.520 157.527 149.970  0.00  0.00    -0.383 OA
ATOM     11  H   LIG    1      155.409 157.819 149.706  0.00  0.00    +0.210 HD
ENDBRANCH   3  10
BRANCH  36  37
ATOM     37  C   LIG    1      153.216 154.617 154.583  0.00  0.00    +0.190 C 
BRANCH  37  38
ATOM     38  O   LIG    1      154.480 154.629 155.220  0.00  0.00    -0.392 OA
ATOM     39  H   LIG    1      154.693 153.714 155.472  0.00  0.00    +0.210 HD
ENDBRANCH  37  38
ENDBRANCH  36  37
ENDBRANCH  12   2
ENDBRANCH  13  12
TORSDOF 11
ENDMDL
MODEL 10
REMARK VINA RESULT:      -8.5      4.746      8.728
REMARK  Name = 5280637
REMARK                            x       y       z     vdW  Elec       q    Type
REMARK                         _______ _______ _______ _____ _____    ______ ____
ROOT
ATOM     13  C   LIG    1      148.954 160.030 150.181  0.00  0.00    +0.131 A 
ATOM     14  C   LIG    1      147.836 159.217 149.996  0.00  0.00    +0.092 A 
ATOM     15  C   LIG    1      147.934 157.837 150.182  0.00  0.00    +0.135 A 
ATOM     16  C   LIG    1      149.159 157.277 150.553  0.00  0.00    +0.105 A 
ATOM     17  C   LIG    1      149.294 155.827 150.754  0.00  0.00    +0.197 A 
ATOM     18  C   LIG    1      150.634 155.345 151.147  0.00  0.00    +0.098 A 
ATOM     19  C   LIG    1      151.632 156.228 151.300  0.00  0.00    +0.139 A 
ATOM     30  O   LIG    1      151.504 157.594 151.102  0.00  0.00    -0.454 OA
ATOM     31  O   LIG    1      148.356 155.056 150.605  0.00  0.00    -0.287 OA
ATOM     32  C   LIG    1      150.277 158.090 150.738  0.00  0.00    +0.146 A 
ATOM     35  C   LIG    1      150.177 159.468 150.552  0.00  0.00    +0.093 A 
ENDROOT
BRANCH  19  20
ATOM     20  C   LIG    1      152.994 155.803 151.683  0.00  0.00    +0.021 A 
ATOM     21  C   LIG    1      153.355 154.456 151.609  0.00  0.00    +0.015 A 
ATOM     22  C   LIG    1      154.641 154.055 151.972  0.00  0.00    +0.050 A 
ATOM     23  C   LIG    1      155.569 155.000 152.410  0.00  0.00    +0.158 A 
ATOM     24  C   LIG    1      155.211 156.345 152.486  0.00  0.00    +0.159 A 
ATOM     29  C   LIG    1      153.925 156.747 152.123  0.00  0.00    +0.060 A 
BRANCH  24  25
ATOM     25  O   LIG    1      156.111 157.277 152.910  0.00  0.00    -0.503 OA
ATOM     26  H   LIG    1      156.728 156.847 153.526  0.00  0.00    +0.292 HD
ENDBRANCH  24  25
BRANCH  23  27
ATOM     27  O   LIG    1      156.821 154.595 152.762  0.00  0.00    -0.503 OA
ATOM     28  H   LIG    1      156.895 153.635 152.623  0.00  0.00    +0.292 HD
ENDBRANCH  23  27
ENDBRANCH  19  20
BRANCH  15  33
ATOM     33  O   LIG    1      146.814 157.087 149.988  0.00  0.00    -0.506 OA
ATOM     34  H   LIG    1      147.047 156.157 149.846  0.00  0.00    +0.292 HD
ENDBRANCH  15  33
BRANCH  13  12
ATOM     12  O   LIG    1      148.853 161.378 149.998  0.00  0.00    -0.461 OA
BRANCH  12   2
ATOM      1  O   LIG    1      150.262 162.712 151.294  0.00  0.00    -0.331 OA
ATOM      2  C   LIG    1      150.073 162.118 150.012  0.00  0.00    +0.339 C 
ATOM      3  C   LIG    1      149.983 163.194 148.930  0.00  0.00    +0.214 C 
ATOM      4  C   LIG    1      151.191 164.131 148.975  0.00  0.00    +0.180 C 
ATOM      5  C   LIG    1      151.458 164.621 150.399  0.00  0.00    +0.177 C 
ATOM     36  C   LIG    1      151.484 163.448 151.381  0.00  0.00    +0.179 C 
BRANCH   5   6
ATOM      6  O   LIG    1      152.712 165.297 150.437  0.00  0.00    -0.386 OA
ATOM      7  H   LIG    1      152.542 166.235 150.625  0.00  0.00    +0.210 HD
ENDBRANCH   5   6
BRANCH   4   8
ATOM      8  O   LIG    1      150.938 165.272 148.154  0.00  0.00    -0.386 OA
ATOM      9  H   LIG    1      150.802 166.032 148.746  0.00  0.00    +0.210 HD
ENDBRANCH   4   8
BRANCH   3  10
ATOM     10  O   LIG    1      149.932 162.548 147.658  0.00  0.00    -0.383 OA
ATOM     11  H   LIG    1      149.443 161.714 147.763  0.00  0.00    +0.210 HD
ENDBRANCH   3  10
BRANCH  36  37
ATOM     37  C   LIG    1      151.632 163.924 152.823  0.00  0.00    +0.190 C 
BRANCH  37  38
ATOM     38  O   LIG    1      150.352 164.279 153.314  0.00  0.00    -0.392 OA
ATOM     39  H   LIG    1      149.722 164.203 152.577  0.00  0.00    +0.210 HD
ENDBRANCH  37  38
ENDBRANCH  36  37
ENDBRANCH  12   2
ENDBRANCH  13  12
TORSDOF 11
ENDMDL
