MODEL 1
REMARK VINA RESULT:      -7.0      0.000      0.000
REMARK  10 active torsions:
REMARK  status: ('A' for Active; 'I' for Inactive)
REMARK    1  A    between atoms: O_2  and  C_12 
REMARK    2  A    between atoms: O_2  and  C_14 
REMARK    3  A    between atoms: O_3  and  C_8 
REMARK    4  A    between atoms: O_4  and  C_9 
REMARK    5  A    between atoms: O_5  and  C_10 
REMARK    6  A    between atoms: O_6  and  C_13 
REMARK    7  A    between atoms: O_7  and  C_21 
REMARK    8  A    between atoms: C_11  and  C_13 
REMARK    9  A    between atoms: C_14  and  C_15 
REMARK   10  A    between atoms: C_15  and  C_16 
ROOT
HETATM    1  O   UNK     0      17.183  20.248   2.616  0.00  0.00    -0.348 OA
HETATM    2  C   UNK     0      17.346  22.593   0.965  0.00  0.00     0.183 C 
HETATM    3  C   UNK     0      17.932  22.540   2.377  0.00  0.00     0.180 C 
HETATM    4  C   UNK     0      16.254  21.538   0.780  0.00  0.00     0.204 C 
HETATM    5  C   UNK     0      18.315  21.108   2.753  0.00  0.00     0.179 C 
HETATM    6  C   UNK     0      16.717  20.166   1.270  0.00  0.00     0.291 C 
ENDROOT
BRANCH   5   7
HETATM    7  C   UNK     0      18.792  21.011   4.198  0.00  0.00     0.198 C 
BRANCH   7   8
HETATM    8  O   UNK     0      18.756  19.654   4.596  0.00  0.00    -0.398 OA
HETATM    9  H   UNK     0      18.528  19.123   3.814  0.00  0.00     0.209 HD
ENDBRANCH   7   8
ENDBRANCH   5   7
BRANCH   6  10
HETATM   10  O   UNK     0      15.604  19.276   1.198  0.00  0.00    -0.358 OA
BRANCH  10  11
HETATM   11  C   UNK     0      14.395  19.932   1.549  0.00  0.00     0.175 C 
BRANCH  11  12
HETATM   12  C   UNK     0      13.356  18.903   1.978  0.00  0.00     0.065 C 
BRANCH  12  13
HETATM   13  C   UNK     0      12.976  17.969   0.855  0.00  0.00    -0.056 A 
HETATM   14  C   UNK     0      12.857  16.613   1.110  0.00  0.00     0.010 A 
HETATM   15  C   UNK     0      12.505  15.750   0.072  0.00  0.00     0.037 A 
HETATM   16  C   UNK     0      12.278  16.256  -1.209  0.00  0.00     0.065 A 
HETATM   17  C   UNK     0      12.402  17.623  -1.451  0.00  0.00     0.037 A 
HETATM   18  C   UNK     0      12.753  18.486  -0.412  0.00  0.00     0.010 A 
BRANCH  16  19
HETATM   19  O   UNK     0      11.935  15.413  -2.221  0.00  0.00    -0.361 OA
HETATM   20  H   UNK     0      11.710  15.940  -3.007  0.00  0.00     0.217 HD
ENDBRANCH  16  19
ENDBRANCH  12  13
ENDBRANCH  11  12
ENDBRANCH  10  11
ENDBRANCH   6  10
BRANCH   3  21
HETATM   21  O   UNK     0      19.089  23.369   2.437  0.00  0.00    -0.390 OA
HETATM   22  H   UNK     0      19.705  22.980   3.082  0.00  0.00     0.210 HD
ENDBRANCH   3  21
BRANCH   4  23
HETATM   23  O   UNK     0      15.929  21.431  -0.606  0.00  0.00    -0.388 OA
HETATM   24  H   UNK     0      16.484  22.063  -1.096  0.00  0.00     0.210 HD
ENDBRANCH   4  23
BRANCH   2  25
HETATM   25  O   UNK     0      16.790  23.893   0.766  0.00  0.00    -0.390 OA
HETATM   26  H   UNK     0      16.816  24.355   1.621  0.00  0.00     0.210 HD
ENDBRANCH   2  25
TORSDOF 10
ENDMDL
MODEL 2
REMARK VINA RESULT:      -6.6      2.134      3.539
REMARK  10 active torsions:
REMARK  status: ('A' for Active; 'I' for Inactive)
REMARK    1  A    between atoms: O_2  and  C_12 
REMARK    2  A    between atoms: O_2  and  C_14 
REMARK    3  A    between atoms: O_3  and  C_8 
REMARK    4  A    between atoms: O_4  and  C_9 
REMARK    5  A    between atoms: O_5  and  C_10 
REMARK    6  A    between atoms: O_6  and  C_13 
REMARK    7  A    between atoms: O_7  and  C_21 
REMARK    8  A    between atoms: C_11  and  C_13 
REMARK    9  A    between atoms: C_14  and  C_15 
REMARK   10  A    between atoms: C_15  and  C_16 
ROOT
HETATM    1  O   UNK     0      14.319  21.606   0.712  0.00  0.00    -0.348 OA
HETATM    2  C   UNK     0      16.806  21.210   2.092  0.00  0.00     0.183 C 
HETATM    3  C   UNK     0      16.322  22.592   1.654  0.00  0.00     0.180 C 
HETATM    4  C   UNK     0      16.145  20.105   1.267  0.00  0.00     0.204 C 
HETATM    5  C   UNK     0      14.794  22.635   1.581  0.00  0.00     0.179 C 
HETATM    6  C   UNK     0      14.631  20.298   1.189  0.00  0.00     0.291 C 
ENDROOT
BRANCH   5   7
HETATM    7  C   UNK     0      14.292  23.966   1.034  0.00  0.00     0.198 C 
BRANCH   7   8
HETATM    8  O   UNK     0      14.295  24.916   2.083  0.00  0.00    -0.398 OA
HETATM    9  H   UNK     0      14.762  25.706   1.764  0.00  0.00     0.209 HD
ENDBRANCH   7   8
ENDBRANCH   5   7
BRANCH   6  10
HETATM   10  O   UNK     0      14.109  19.320   0.292  0.00  0.00    -0.358 OA
BRANCH  10  11
HETATM   11  C   UNK     0      12.791  18.938   0.654  0.00  0.00     0.175 C 
BRANCH  11  12
HETATM   12  C   UNK     0      12.823  18.149   1.958  0.00  0.00     0.065 C 
BRANCH  12  13
HETATM   13  C   UNK     0      12.058  16.851   1.861  0.00  0.00    -0.056 A 
HETATM   14  C   UNK     0      10.700  16.881   1.591  0.00  0.00     0.010 A 
HETATM   15  C   UNK     0       9.993  15.682   1.502  0.00  0.00     0.037 A 
HETATM   16  C   UNK     0      10.656  14.468   1.686  0.00  0.00     0.065 A 
HETATM   17  C   UNK     0      12.023  14.453   1.957  0.00  0.00     0.037 A 
HETATM   18  C   UNK     0      12.729  15.653   2.046  0.00  0.00     0.010 A 
BRANCH  16  19
HETATM   19  O   UNK     0       9.966  13.297   1.599  0.00  0.00    -0.361 OA
HETATM   20  H   UNK     0       9.071  13.432   1.955  0.00  0.00     0.217 HD
ENDBRANCH  16  19
ENDBRANCH  12  13
ENDBRANCH  11  12
ENDBRANCH  10  11
ENDBRANCH   6  10
BRANCH   3  21
HETATM   21  O   UNK     0      16.776  23.568   2.588  0.00  0.00    -0.390 OA
HETATM   22  H   UNK     0      16.105  23.652   3.286  0.00  0.00     0.210 HD
ENDBRANCH   3  21
BRANCH   4  23
HETATM   23  O   UNK     0      16.404  18.840   1.876  0.00  0.00    -0.388 OA
HETATM   24  H   UNK     0      16.194  18.913   2.823  0.00  0.00     0.210 HD
ENDBRANCH   4  23
BRANCH   2  25
HETATM   25  O   UNK     0      18.221  21.158   1.909  0.00  0.00    -0.390 OA
HETATM   26  H   UNK     0      18.391  20.677   1.082  0.00  0.00     0.210 HD
ENDBRANCH   2  25
TORSDOF 10
ENDMDL
MODEL 3
REMARK VINA RESULT:      -6.5      1.948      6.970
REMARK  10 active torsions:
REMARK  status: ('A' for Active; 'I' for Inactive)
REMARK    1  A    between atoms: O_2  and  C_12 
REMARK    2  A    between atoms: O_2  and  C_14 
REMARK    3  A    between atoms: O_3  and  C_8 
REMARK    4  A    between atoms: O_4  and  C_9 
REMARK    5  A    between atoms: O_5  and  C_10 
REMARK    6  A    between atoms: O_6  and  C_13 
REMARK    7  A    between atoms: O_7  and  C_21 
REMARK    8  A    between atoms: C_11  and  C_13 
REMARK    9  A    between atoms: C_14  and  C_15 
REMARK   10  A    between atoms: C_15  and  C_16 
ROOT
HETATM    1  O   UNK     0      13.903  18.237   0.920  0.00  0.00    -0.348 OA
HETATM    2  C   UNK     0      12.169  16.090   0.125  0.00  0.00     0.183 C 
HETATM    3  C   UNK     0      13.293  15.902   1.144  0.00  0.00     0.180 C 
HETATM    4  C   UNK     0      12.430  17.303  -0.770  0.00  0.00     0.204 C 
HETATM    5  C   UNK     0      13.594  17.215   1.869  0.00  0.00     0.179 C 
HETATM    6  C   UNK     0      12.807  18.532   0.056  0.00  0.00     0.291 C 
ENDROOT
BRANCH   5   7
HETATM    7  C   UNK     0      14.789  17.082   2.806  0.00  0.00     0.198 C 
BRANCH   7   8
HETATM    8  O   UNK     0      15.551  15.957   2.409  0.00  0.00    -0.398 OA
HETATM    9  H   UNK     0      15.164  15.615   1.586  0.00  0.00     0.209 HD
ENDBRANCH   7   8
ENDBRANCH   5   7
BRANCH   6  10
HETATM   10  O   UNK     0      13.173  19.573  -0.848  0.00  0.00    -0.358 OA
BRANCH  10  11
HETATM   11  C   UNK     0      13.668  20.709  -0.155  0.00  0.00     0.175 C 
BRANCH  11  12
HETATM   12  C   UNK     0      14.847  21.304  -0.916  0.00  0.00     0.065 C 
BRANCH  12  13
HETATM   13  C   UNK     0      15.937  21.794   0.005  0.00  0.00    -0.056 A 
HETATM   14  C   UNK     0      16.039  21.263   1.280  0.00  0.00     0.010 A 
HETATM   15  C   UNK     0      17.046  21.715   2.132  0.00  0.00     0.037 A 
HETATM   16  C   UNK     0      17.939  22.695   1.696  0.00  0.00     0.065 A 
HETATM   17  C   UNK     0      17.825  23.221   0.410  0.00  0.00     0.037 A 
HETATM   18  C   UNK     0      16.817  22.768  -0.441  0.00  0.00     0.010 A 
BRANCH  16  19
HETATM   19  O   UNK     0      18.923  23.137   2.527  0.00  0.00    -0.361 OA
HETATM   20  H   UNK     0      19.517  22.396   2.733  0.00  0.00     0.217 HD
ENDBRANCH  16  19
ENDBRANCH  12  13
ENDBRANCH  11  12
ENDBRANCH  10  11
ENDBRANCH   6  10
BRANCH   3  21
HETATM   21  O   UNK     0      12.904  14.916   2.097  0.00  0.00    -0.390 OA
HETATM   22  H   UNK     0      11.933  14.889   2.123  0.00  0.00     0.210 HD
ENDBRANCH   3  21
BRANCH   4  23
HETATM   23  O   UNK     0      11.249  17.607  -1.512  0.00  0.00    -0.388 OA
HETATM   24  H   UNK     0      11.091  16.881  -2.139  0.00  0.00     0.210 HD
ENDBRANCH   4  23
BRANCH   2  25
HETATM   25  O   UNK     0      12.100  14.912  -0.679  0.00  0.00    -0.390 OA
HETATM   26  H   UNK     0      12.938  14.844  -1.169  0.00  0.00     0.210 HD
ENDBRANCH   2  25
TORSDOF 10
ENDMDL
MODEL 4
REMARK VINA RESULT:      -6.5     11.910     14.620
REMARK  10 active torsions:
REMARK  status: ('A' for Active; 'I' for Inactive)
REMARK    1  A    between atoms: O_2  and  C_12 
REMARK    2  A    between atoms: O_2  and  C_14 
REMARK    3  A    between atoms: O_3  and  C_8 
REMARK    4  A    between atoms: O_4  and  C_9 
REMARK    5  A    between atoms: O_5  and  C_10 
REMARK    6  A    between atoms: O_6  and  C_13 
REMARK    7  A    between atoms: O_7  and  C_21 
REMARK    8  A    between atoms: C_11  and  C_13 
REMARK    9  A    between atoms: C_14  and  C_15 
REMARK   10  A    between atoms: C_15  and  C_16 
ROOT
HETATM    1  O   UNK     0      28.631  14.414   1.515  0.00  0.00    -0.348 OA
HETATM    2  C   UNK     0      27.361  11.944   2.247  0.00  0.00     0.183 C 
HETATM    3  C   UNK     0      28.654  12.427   2.903  0.00  0.00     0.180 C 
HETATM    4  C   UNK     0      27.162  12.589   0.875  0.00  0.00     0.204 C 
HETATM    5  C   UNK     0      28.747  13.954   2.862  0.00  0.00     0.179 C 
HETATM    6  C   UNK     0      27.365  14.103   0.937  0.00  0.00     0.291 C 
ENDROOT
BRANCH   5   7
HETATM    7  C   UNK     0      30.081  14.454   3.405  0.00  0.00     0.198 C 
BRANCH   7   8
HETATM    8  O   UNK     0      31.091  13.531   3.043  0.00  0.00    -0.398 OA
HETATM    9  H   UNK     0      30.837  12.663   3.399  0.00  0.00     0.209 HD
ENDBRANCH   7   8
ENDBRANCH   5   7
BRANCH   6  10
HETATM   10  O   UNK     0      27.306  14.608  -0.396  0.00  0.00    -0.358 OA
BRANCH  10  11
HETATM   11  C   UNK     0      28.084  15.788  -0.535  0.00  0.00     0.175 C 
BRANCH  11  12
HETATM   12  C   UNK     0      27.256  16.874  -1.212  0.00  0.00     0.065 C 
BRANCH  12  13
HETATM   13  C   UNK     0      27.473  18.232  -0.589  0.00  0.00    -0.056 A 
HETATM   14  C   UNK     0      26.399  18.903  -0.030  0.00  0.00     0.010 A 
HETATM   15  C   UNK     0      26.599  20.158   0.546  0.00  0.00     0.037 A 
HETATM   16  C   UNK     0      27.874  20.725   0.552  0.00  0.00     0.065 A 
HETATM   17  C   UNK     0      28.947  20.038  -0.015  0.00  0.00     0.037 A 
HETATM   18  C   UNK     0      28.745  18.784  -0.590  0.00  0.00     0.010 A 
BRANCH  16  19
HETATM   19  O   UNK     0      28.070  21.950   1.114  0.00  0.00    -0.361 OA
HETATM   20  H   UNK     0      28.729  21.869   1.825  0.00  0.00     0.217 HD
ENDBRANCH  16  19
ENDBRANCH  12  13
ENDBRANCH  11  12
ENDBRANCH  10  11
ENDBRANCH   6  10
BRANCH   3  21
HETATM   21  O   UNK     0      28.687  11.990   4.259  0.00  0.00    -0.390 OA
HETATM   22  H   UNK     0      27.817  11.611   4.474  0.00  0.00     0.210 HD
ENDBRANCH   3  21
BRANCH   4  23
HETATM   23  O   UNK     0      25.833  12.334   0.419  0.00  0.00    -0.388 OA
HETATM   24  H   UNK     0      25.470  13.166   0.069  0.00  0.00     0.210 HD
ENDBRANCH   4  23
BRANCH   2  25
HETATM   25  O   UNK     0      27.444  10.526   2.098  0.00  0.00    -0.390 OA
HETATM   26  H   UNK     0      27.694  10.344   1.176  0.00  0.00     0.210 HD
ENDBRANCH   2  25
TORSDOF 10
ENDMDL
MODEL 5
REMARK VINA RESULT:      -6.4     18.473     22.458
REMARK  10 active torsions:
REMARK  status: ('A' for Active; 'I' for Inactive)
REMARK    1  A    between atoms: O_2  and  C_12 
REMARK    2  A    between atoms: O_2  and  C_14 
REMARK    3  A    between atoms: O_3  and  C_8 
REMARK    4  A    between atoms: O_4  and  C_9 
REMARK    5  A    between atoms: O_5  and  C_10 
REMARK    6  A    between atoms: O_6  and  C_13 
REMARK    7  A    between atoms: O_7  and  C_21 
REMARK    8  A    between atoms: C_11  and  C_13 
REMARK    9  A    between atoms: C_14  and  C_15 
REMARK   10  A    between atoms: C_15  and  C_16 
ROOT
HETATM    1  O   UNK     0      29.380  28.864  18.662  0.00  0.00    -0.348 OA
HETATM    2  C   UNK     0      27.567  30.842  17.638  0.00  0.00     0.183 C 
HETATM    3  C   UNK     0      27.852  30.685  19.132  0.00  0.00     0.180 C 
HETATM    4  C   UNK     0      27.888  29.556  16.876  0.00  0.00     0.204 C 
HETATM    5  C   UNK     0      29.248  30.103  19.361  0.00  0.00     0.179 C 
HETATM    6  C   UNK     0      29.269  29.018  17.249  0.00  0.00     0.291 C 
ENDROOT
BRANCH   5   7
HETATM    7  C   UNK     0      29.511  29.828  20.837  0.00  0.00     0.198 C 
BRANCH   7   8
HETATM    8  O   UNK     0      28.282  29.507  21.463  0.00  0.00    -0.398 OA
HETATM    9  H   UNK     0      28.279  28.550  21.632  0.00  0.00     0.209 HD
ENDBRANCH   7   8
ENDBRANCH   5   7
BRANCH   6  10
HETATM   10  O   UNK     0      29.433  27.752  16.612  0.00  0.00    -0.358 OA
BRANCH  10  11
HETATM   11  C   UNK     0      30.721  27.209  16.867  0.00  0.00     0.175 C 
BRANCH  11  12
HETATM   12  C   UNK     0      31.438  26.943  15.548  0.00  0.00     0.065 C 
BRANCH  12  13
HETATM   13  C   UNK     0      30.492  26.492  14.462  0.00  0.00    -0.056 A 
HETATM   14  C   UNK     0      30.325  25.138  14.225  0.00  0.00     0.010 A 
HETATM   15  C   UNK     0      29.451  24.721  13.221  0.00  0.00     0.037 A 
HETATM   16  C   UNK     0      28.756  25.666  12.466  0.00  0.00     0.065 A 
HETATM   17  C   UNK     0      28.934  27.026  12.715  0.00  0.00     0.037 A 
HETATM   18  C   UNK     0      29.808  27.442  13.720  0.00  0.00     0.010 A 
BRANCH  16  19
HETATM   19  O   UNK     0      27.903  25.258  11.486  0.00  0.00    -0.361 OA
HETATM   20  H   UNK     0      26.997  25.509  11.733  0.00  0.00     0.217 HD
ENDBRANCH  16  19
ENDBRANCH  12  13
ENDBRANCH  11  12
ENDBRANCH  10  11
ENDBRANCH   6  10
BRANCH   3  21
HETATM   21  O   UNK     0      27.764  31.960  19.764  0.00  0.00    -0.390 OA
HETATM   22  H   UNK     0      28.646  32.368  19.743  0.00  0.00     0.210 HD
ENDBRANCH   3  21
BRANCH   4  23
HETATM   23  O   UNK     0      27.875  29.820  15.473  0.00  0.00    -0.388 OA
HETATM   24  H   UNK     0      27.709  30.771  15.347  0.00  0.00     0.210 HD
ENDBRANCH   4  23
BRANCH   2  25
HETATM   25  O   UNK     0      26.182  31.154  17.483  0.00  0.00    -0.390 OA
HETATM   26  H   UNK     0      25.983  31.898  18.077  0.00  0.00     0.210 HD
ENDBRANCH   2  25
TORSDOF 10
ENDMDL
MODEL 6
REMARK VINA RESULT:      -6.4     19.972     24.333
REMARK  10 active torsions:
REMARK  status: ('A' for Active; 'I' for Inactive)
REMARK    1  A    between atoms: O_2  and  C_12 
REMARK    2  A    between atoms: O_2  and  C_14 
REMARK    3  A    between atoms: O_3  and  C_8 
REMARK    4  A    between atoms: O_4  and  C_9 
REMARK    5  A    between atoms: O_5  and  C_10 
REMARK    6  A    between atoms: O_6  and  C_13 
REMARK    7  A    between atoms: O_7  and  C_21 
REMARK    8  A    between atoms: C_11  and  C_13 
REMARK    9  A    between atoms: C_14  and  C_15 
REMARK   10  A    between atoms: C_15  and  C_16 
ROOT
HETATM    1  O   UNK     0      30.737  29.329  20.065  0.00  0.00    -0.348 OA
HETATM    2  C   UNK     0      28.863  31.244  21.100  0.00  0.00     0.183 C 
HETATM    3  C   UNK     0      30.126  30.839  21.860  0.00  0.00     0.180 C 
HETATM    4  C   UNK     0      28.460  30.172  20.086  0.00  0.00     0.204 C 
HETATM    5  C   UNK     0      31.222  30.389  20.892  0.00  0.00     0.179 C 
HETATM    6  C   UNK     0      29.652  29.736  19.234  0.00  0.00     0.291 C 
ENDROOT
BRANCH   5   7
HETATM    7  C   UNK     0      32.450  29.869  21.631  0.00  0.00     0.198 C 
BRANCH   7   8
HETATM    8  O   UNK     0      32.054  29.439  22.919  0.00  0.00    -0.398 OA
HETATM    9  H   UNK     0      32.857  29.191  23.408  0.00  0.00     0.209 HD
ENDBRANCH   7   8
ENDBRANCH   5   7
BRANCH   6  10
HETATM   10  O   UNK     0      29.232  28.642  18.420  0.00  0.00    -0.358 OA
BRANCH  10  11
HETATM   11  C   UNK     0      29.900  28.646  17.167  0.00  0.00     0.175 C 
BRANCH  11  12
HETATM   12  C   UNK     0      30.494  27.269  16.896  0.00  0.00     0.065 C 
BRANCH  12  13
HETATM   13  C   UNK     0      30.149  26.755  15.519  0.00  0.00    -0.056 A 
HETATM   14  C   UNK     0      29.376  27.537  14.677  0.00  0.00     0.010 A 
HETATM   15  C   UNK     0      29.057  27.063  13.404  0.00  0.00     0.037 A 
HETATM   16  C   UNK     0      29.515  25.811  12.992  0.00  0.00     0.065 A 
HETATM   17  C   UNK     0      30.292  25.035  13.851  0.00  0.00     0.037 A 
HETATM   18  C   UNK     0      30.611  25.510  15.123  0.00  0.00     0.010 A 
BRANCH  16  19
HETATM   19  O   UNK     0      29.203  25.349  11.750  0.00  0.00    -0.361 OA
HETATM   20  H   UNK     0      29.348  26.060  11.103  0.00  0.00     0.217 HD
ENDBRANCH  16  19
ENDBRANCH  12  13
ENDBRANCH  11  12
ENDBRANCH  10  11
ENDBRANCH   6  10
BRANCH   3  21
HETATM   21  O   UNK     0      30.596  31.951  22.618  0.00  0.00    -0.390 OA
HETATM   22  H   UNK     0      30.086  31.987  23.446  0.00  0.00     0.210 HD
ENDBRANCH   3  21
BRANCH   4  23
HETATM   23  O   UNK     0      27.457  30.696  19.216  0.00  0.00    -0.388 OA
HETATM   24  H   UNK     0      26.627  30.220  19.392  0.00  0.00     0.210 HD
ENDBRANCH   4  23
BRANCH   2  25
HETATM   25  O   UNK     0      27.812  31.419  22.050  0.00  0.00    -0.390 OA
HETATM   26  H   UNK     0      27.471  30.536  22.273  0.00  0.00     0.210 HD
ENDBRANCH   2  25
TORSDOF 10
ENDMDL
MODEL 7
REMARK VINA RESULT:      -6.2      2.078      2.663
REMARK  10 active torsions:
REMARK  status: ('A' for Active; 'I' for Inactive)
REMARK    1  A    between atoms: O_2  and  C_12 
REMARK    2  A    between atoms: O_2  and  C_14 
REMARK    3  A    between atoms: O_3  and  C_8 
REMARK    4  A    between atoms: O_4  and  C_9 
REMARK    5  A    between atoms: O_5  and  C_10 
REMARK    6  A    between atoms: O_6  and  C_13 
REMARK    7  A    between atoms: O_7  and  C_21 
REMARK    8  A    between atoms: C_11  and  C_13 
REMARK    9  A    between atoms: C_14  and  C_15 
REMARK   10  A    between atoms: C_15  and  C_16 
ROOT
HETATM    1  O   UNK     0      15.683  20.550   2.189  0.00  0.00    -0.348 OA
HETATM    2  C   UNK     0      15.077  23.276   1.517  0.00  0.00     0.183 C 
HETATM    3  C   UNK     0      16.380  22.871   2.206  0.00  0.00     0.180 C 
HETATM    4  C   UNK     0      13.986  22.227   1.737  0.00  0.00     0.204 C 
HETATM    5  C   UNK     0      16.757  21.431   1.853  0.00  0.00     0.179 C 
HETATM    6  C   UNK     0      14.500  20.819   1.440  0.00  0.00     0.291 C 
ENDROOT
BRANCH   5   7
HETATM    7  C   UNK     0      17.989  20.965   2.621  0.00  0.00     0.198 C 
BRANCH   7   8
HETATM    8  O   UNK     0      18.156  21.795   3.755  0.00  0.00    -0.398 OA
HETATM    9  H   UNK     0      18.476  21.237   4.484  0.00  0.00     0.209 HD
ENDBRANCH   7   8
ENDBRANCH   5   7
BRANCH   6  10
HETATM   10  O   UNK     0      13.478  19.893   1.804  0.00  0.00    -0.358 OA
BRANCH  10  11
HETATM   11  C   UNK     0      13.342  18.865   0.833  0.00  0.00     0.175 C 
BRANCH  11  12
HETATM   12  C   UNK     0      13.918  17.563   1.378  0.00  0.00     0.065 C 
BRANCH  12  13
HETATM   13  C   UNK     0      12.902  16.447   1.388  0.00  0.00    -0.056 A 
HETATM   14  C   UNK     0      11.914  16.419   0.418  0.00  0.00     0.010 A 
HETATM   15  C   UNK     0      10.975  15.387   0.427  0.00  0.00     0.037 A 
HETATM   16  C   UNK     0      11.038  14.397   1.408  0.00  0.00     0.065 A 
HETATM   17  C   UNK     0      12.038  14.438   2.378  0.00  0.00     0.037 A 
HETATM   18  C   UNK     0      12.977  15.470   2.368  0.00  0.00     0.010 A 
BRANCH  16  19
HETATM   19  O   UNK     0      10.121  13.390   1.417  0.00  0.00    -0.361 OA
HETATM   20  H   UNK     0       9.918  13.141   0.499  0.00  0.00     0.217 HD
ENDBRANCH  16  19
ENDBRANCH  12  13
ENDBRANCH  11  12
ENDBRANCH  10  11
ENDBRANCH   6  10
BRANCH   3  21
HETATM   21  O   UNK     0      17.425  23.746   1.789  0.00  0.00    -0.390 OA
HETATM   22  H   UNK     0      17.237  24.027   0.877  0.00  0.00     0.210 HD
ENDBRANCH   3  21
BRANCH   4  23
HETATM   23  O   UNK     0      12.888  22.496   0.866  0.00  0.00    -0.388 OA
HETATM   24  H   UNK     0      12.972  21.919   0.087  0.00  0.00     0.210 HD
ENDBRANCH   4  23
BRANCH   2  25
HETATM   25  O   UNK     0      14.655  24.524   2.068  0.00  0.00    -0.390 OA
HETATM   26  H   UNK     0      14.518  24.390   3.022  0.00  0.00     0.210 HD
ENDBRANCH   2  25
TORSDOF 10
ENDMDL
MODEL 8
REMARK VINA RESULT:      -6.2      1.951      7.714
REMARK  10 active torsions:
REMARK  status: ('A' for Active; 'I' for Inactive)
REMARK    1  A    between atoms: O_2  and  C_12 
REMARK    2  A    between atoms: O_2  and  C_14 
REMARK    3  A    between atoms: O_3  and  C_8 
REMARK    4  A    between atoms: O_4  and  C_9 
REMARK    5  A    between atoms: O_5  and  C_10 
REMARK    6  A    between atoms: O_6  and  C_13 
REMARK    7  A    between atoms: O_7  and  C_21 
REMARK    8  A    between atoms: C_11  and  C_13 
REMARK    9  A    between atoms: C_14  and  C_15 
REMARK   10  A    between atoms: C_15  and  C_16 
ROOT
HETATM    1  O   UNK     0      13.150  17.508  -0.116  0.00  0.00    -0.348 OA
HETATM    2  C   UNK     0      11.960  16.093   2.083  0.00  0.00     0.183 C 
HETATM    3  C   UNK     0      11.285  16.201   0.715  0.00  0.00     0.180 C 
HETATM    4  C   UNK     0      12.975  17.218   2.289  0.00  0.00     0.204 C 
HETATM    5  C   UNK     0      12.327  16.373  -0.393  0.00  0.00     0.179 C 
HETATM    6  C   UNK     0      13.905  17.356   1.084  0.00  0.00     0.291 C 
ENDROOT
BRANCH   5   7
HETATM    7  C   UNK     0      11.674  16.601  -1.752  0.00  0.00     0.198 C 
BRANCH   7   8
HETATM    8  O   UNK     0      11.621  15.365  -2.440  0.00  0.00    -0.398 OA
HETATM    9  H   UNK     0      12.510  15.185  -2.791  0.00  0.00     0.209 HD
ENDBRANCH   7   8
ENDBRANCH   5   7
BRANCH   6  10
HETATM   10  O   UNK     0      14.721  18.508   1.289  0.00  0.00    -0.358 OA
BRANCH  10  11
HETATM   11  C   UNK     0      13.956  19.702   1.216  0.00  0.00     0.175 C 
BRANCH  11  12
HETATM   12  C   UNK     0      14.596  20.665   0.224  0.00  0.00     0.065 C 
BRANCH  12  13
HETATM   13  C   UNK     0      15.801  21.367   0.801  0.00  0.00    -0.056 A 
HETATM   14  C   UNK     0      16.483  20.788   1.858  0.00  0.00     0.010 A 
HETATM   15  C   UNK     0      17.597  21.436   2.392  0.00  0.00     0.037 A 
HETATM   16  C   UNK     0      18.013  22.657   1.860  0.00  0.00     0.065 A 
HETATM   17  C   UNK     0      17.317  23.228   0.795  0.00  0.00     0.037 A 
HETATM   18  C   UNK     0      16.204  22.579   0.262  0.00  0.00     0.010 A 
BRANCH  16  19
HETATM   19  O   UNK     0      19.100  23.290   2.381  0.00  0.00    -0.361 OA
HETATM   20  H   UNK     0      19.638  22.643   2.868  0.00  0.00     0.217 HD
ENDBRANCH  16  19
ENDBRANCH  12  13
ENDBRANCH  11  12
ENDBRANCH  10  11
ENDBRANCH   6  10
BRANCH   3  21
HETATM   21  O   UNK     0      10.528  15.019   0.469  0.00  0.00    -0.390 OA
HETATM   22  H   UNK     0       9.647  15.286   0.155  0.00  0.00     0.210 HD
ENDBRANCH   3  21
BRANCH   4  23
HETATM   23  O   UNK     0      13.771  16.933   3.439  0.00  0.00    -0.388 OA
HETATM   24  H   UNK     0      14.459  17.618   3.507  0.00  0.00     0.210 HD
ENDBRANCH   4  23
BRANCH   2  25
HETATM   25  O   UNK     0      10.945  16.178   3.084  0.00  0.00    -0.390 OA
HETATM   26  H   UNK     0      10.831  17.118   3.304  0.00  0.00     0.210 HD
ENDBRANCH   2  25
TORSDOF 10
ENDMDL
MODEL 9
REMARK VINA RESULT:      -6.2     29.316     31.445
REMARK  10 active torsions:
REMARK  status: ('A' for Active; 'I' for Inactive)
REMARK    1  A    between atoms: O_2  and  C_12 
REMARK    2  A    between atoms: O_2  and  C_14 
REMARK    3  A    between atoms: O_3  and  C_8 
REMARK    4  A    between atoms: O_4  and  C_9 
REMARK    5  A    between atoms: O_5  and  C_10 
REMARK    6  A    between atoms: O_6  and  C_13 
REMARK    7  A    between atoms: O_7  and  C_21 
REMARK    8  A    between atoms: C_11  and  C_13 
REMARK    9  A    between atoms: C_14  and  C_15 
REMARK   10  A    between atoms: C_15  and  C_16 
ROOT
HETATM    1  O   UNK     0      10.034  30.721  31.744  0.00  0.00    -0.348 OA
HETATM    2  C   UNK     0       9.711  33.572  31.854  0.00  0.00     0.183 C 
HETATM    3  C   UNK     0       9.766  32.704  33.111  0.00  0.00     0.180 C 
HETATM    4  C   UNK     0       9.301  32.751  30.632  0.00  0.00     0.204 C 
HETATM    5  C   UNK     0      10.577  31.432  32.858  0.00  0.00     0.179 C 
HETATM    6  C   UNK     0      10.116  31.462  30.529  0.00  0.00     0.291 C 
ENDROOT
BRANCH   5   7
HETATM    7  C   UNK     0      10.548  30.494  34.060  0.00  0.00     0.198 C 
BRANCH   7   8
HETATM    8  O   UNK     0      11.290  31.083  35.111  0.00  0.00    -0.398 OA
HETATM    9  H   UNK     0      10.878  31.939  35.319  0.00  0.00     0.209 HD
ENDBRANCH   7   8
ENDBRANCH   5   7
BRANCH   6  10
HETATM   10  O   UNK     0       9.580  30.688  29.456  0.00  0.00    -0.358 OA
BRANCH  10  11
HETATM   11  C   UNK     0       9.081  29.442  29.917  0.00  0.00     0.175 C 
BRANCH  11  12
HETATM   12  C   UNK     0       9.807  28.303  29.210  0.00  0.00     0.065 C 
BRANCH  12  13
HETATM   13  C   UNK     0       9.078  27.838  27.973  0.00  0.00    -0.056 A 
HETATM   14  C   UNK     0       9.396  28.397  26.746  0.00  0.00     0.010 A 
HETATM   15  C   UNK     0       8.722  27.967  25.603  0.00  0.00     0.037 A 
HETATM   16  C   UNK     0       7.738  26.983  25.703  0.00  0.00     0.065 A 
HETATM   17  C   UNK     0       7.429  26.429  26.945  0.00  0.00     0.037 A 
HETATM   18  C   UNK     0       8.103  26.859  28.087  0.00  0.00     0.010 A 
BRANCH  16  19
HETATM   19  O   UNK     0       7.081  26.563  24.587  0.00  0.00    -0.361 OA
HETATM   20  H   UNK     0       7.600  25.860  24.161  0.00  0.00     0.217 HD
ENDBRANCH  16  19
ENDBRANCH  12  13
ENDBRANCH  11  12
ENDBRANCH  10  11
ENDBRANCH   6  10
BRANCH   3  21
HETATM   21  O   UNK     0      10.369  33.444  34.169  0.00  0.00    -0.390 OA
HETATM   22  H   UNK     0      10.867  34.181  33.775  0.00  0.00     0.210 HD
ENDBRANCH   3  21
BRANCH   4  23
HETATM   23  O   UNK     0       9.526  33.517  29.448  0.00  0.00    -0.388 OA
HETATM   24  H   UNK     0       9.087  34.379  29.559  0.00  0.00     0.210 HD
ENDBRANCH   4  23
BRANCH   2  25
HETATM   25  O   UNK     0       8.754  34.608  32.074  0.00  0.00    -0.390 OA
HETATM   26  H   UNK     0       9.120  35.428  31.700  0.00  0.00     0.210 HD
ENDBRANCH   2  25
TORSDOF 10
ENDMDL
