MODEL 1
REMARK VINA RESULT:      -7.5      0.000      0.000
REMARK  Name = 9823887
REMARK                            x       y       z     vdW  Elec       q    Type
REMARK                         _______ _______ _______ _____ _____    ______ ____
ROOT
ATOM      1  O   LIG    1        8.610  43.098  23.368  0.00  0.00    -0.341 OA
ATOM      2  C   LIG    1        9.785  42.974  24.165  0.00  0.00    +0.282 C 
ATOM      3  C   LIG    1       10.502  44.320  24.274  0.00  0.00    +0.201 C 
ATOM      4  C   LIG    1        9.560  45.414  24.774  0.00  0.00    +0.179 C 
ATOM      5  C   LIG    1        8.245  45.411  23.997  0.00  0.00    +0.177 C 
ATOM     22  C   LIG    1        7.656  43.999  23.932  0.00  0.00    +0.178 C 
ENDROOT
BRANCH   5   6
ATOM      6  O   LIG    1        7.315  46.281  24.637  0.00  0.00    -0.386 OA
ATOM      7  H   LIG    1        6.419  46.013  24.367  0.00  0.00    +0.210 HD
ENDBRANCH   5   6
BRANCH   4   8
ATOM      8  O   LIG    1       10.176  46.691  24.594  0.00  0.00    -0.386 OA
ATOM      9  H   LIG    1       11.132  46.574  24.727  0.00  0.00    +0.210 HD
ENDBRANCH   4   8
BRANCH   3  10
ATOM     10  O   LIG    1       11.588  44.175  25.189  0.00  0.00    -0.384 OA
ATOM     11  H   LIG    1       12.409  44.106  24.674  0.00  0.00    +0.210 HD
ENDBRANCH   3  10
BRANCH   2  12
ATOM     12  O   LIG    1       10.682  42.044  23.562  0.00  0.00    -0.345 OA
BRANCH  12  13
ATOM     13  C   LIG    1       10.186  41.583  22.315  0.00  0.00    +0.190 C 
BRANCH  13  14
ATOM     14  C   LIG    1       11.024  42.161  21.220  0.00  0.00    +0.001 C 
ATOM     15  C   LIG    1       10.593  43.126  20.393  0.00  0.00    +0.006 C 
BRANCH  15  16
ATOM     16  C   LIG    1       11.387  43.735  19.312  0.00  0.00    -0.025 A 
ATOM     17  C   LIG    1       10.752  44.520  18.362  0.00  0.00    +0.008 A 
ATOM     18  C   LIG    1       11.504  45.096  17.339  0.00  0.00    +0.001 A 
ATOM     19  C   LIG    1       12.880  44.880  17.277  0.00  0.00    +0.000 A 
ATOM     20  C   LIG    1       13.506  44.088  18.240  0.00  0.00    +0.001 A 
ATOM     21  C   LIG    1       12.754  43.511  19.264  0.00  0.00    +0.008 A 
ENDBRANCH  15  16
ENDBRANCH  13  14
ENDBRANCH  12  13
ENDBRANCH   2  12
BRANCH  22  23
ATOM     23  C   LIG    1        6.403  43.948  23.062  0.00  0.00    +0.197 C 
BRANCH  23  24
ATOM     24  O   LIG    1        6.429  45.048  22.170  0.00  0.00    -0.346 OA
BRANCH  24  25
ATOM     25  C   LIG    1        6.535  44.625  20.815  0.00  0.00    +0.281 C 
ATOM     26  C   LIG    1        5.375  45.209  19.993  0.00  0.00    +0.201 C 
ATOM     27  C   LIG    1        5.559  46.705  19.718  0.00  0.00    +0.178 C 
ATOM     28  C   LIG    1        6.966  46.972  19.180  0.00  0.00    +0.171 C 
ATOM     29  C   LIG    1        8.017  46.363  20.099  0.00  0.00    +0.197 C 
ATOM     36  O   LIG    1        7.805  44.960  20.245  0.00  0.00    -0.346 OA
BRANCH  28  30
ATOM     30  O   LIG    1        7.174  48.371  19.047  0.00  0.00    -0.387 OA
ATOM     31  H   LIG    1        6.597  48.687  18.331  0.00  0.00    +0.210 HD
ENDBRANCH  28  30
BRANCH  27  32
ATOM     32  O   LIG    1        5.370  47.440  20.926  0.00  0.00    -0.386 OA
ATOM     33  H   LIG    1        5.267  46.796  21.647  0.00  0.00    +0.210 HD
ENDBRANCH  27  32
BRANCH  26  34
ATOM     34  O   LIG    1        5.313  44.505  18.755  0.00  0.00    -0.384 OA
ATOM     35  H   LIG    1        5.448  43.559  18.932  0.00  0.00    +0.210 HD
ENDBRANCH  26  34
ENDBRANCH  24  25
ENDBRANCH  23  24
ENDBRANCH  22  23
TORSDOF 13
ENDMDL
MODEL 2
REMARK VINA RESULT:      -7.3      3.233      8.093
REMARK  Name = 9823887
REMARK                            x       y       z     vdW  Elec       q    Type
REMARK                         _______ _______ _______ _____ _____    ______ ____
ROOT
ATOM      1  O   LIG    1        7.035  44.084  21.087  0.00  0.00    -0.341 OA
ATOM      2  C   LIG    1        6.098  44.272  20.029  0.00  0.00    +0.282 C 
ATOM      3  C   LIG    1        6.074  45.737  19.590  0.00  0.00    +0.201 C 
ATOM      4  C   LIG    1        7.475  46.235  19.237  0.00  0.00    +0.179 C 
ATOM      5  C   LIG    1        8.483  45.872  20.326  0.00  0.00    +0.177 C 
ATOM     22  C   LIG    1        8.374  44.391  20.696  0.00  0.00    +0.178 C 
ENDROOT
BRANCH   5   6
ATOM      6  O   LIG    1        9.802  46.146  19.860  0.00  0.00    -0.386 OA
ATOM      7  H   LIG    1        9.881  45.787  18.959  0.00  0.00    +0.210 HD
ENDBRANCH   5   6
BRANCH   4   8
ATOM      8  O   LIG    1        7.456  47.658  19.109  0.00  0.00    -0.386 OA
ATOM      9  H   LIG    1        7.716  47.872  18.197  0.00  0.00    +0.210 HD
ENDBRANCH   4   8
BRANCH   3  10
ATOM     10  O   LIG    1        5.229  45.846  18.445  0.00  0.00    -0.384 OA
ATOM     11  H   LIG    1        5.574  45.251  17.758  0.00  0.00    +0.210 HD
ENDBRANCH   3  10
BRANCH   2  12
ATOM     12  O   LIG    1        4.789  43.924  20.475  0.00  0.00    -0.345 OA
BRANCH  12  13
ATOM     13  C   LIG    1        4.383  44.735  21.567  0.00  0.00    +0.190 C 
BRANCH  13  14
ATOM     14  C   LIG    1        4.001  43.849  22.709  0.00  0.00    +0.001 C 
ATOM     15  C   LIG    1        3.207  42.776  22.575  0.00  0.00    +0.006 C 
BRANCH  15  16
ATOM     16  C   LIG    1        2.816  41.868  23.667  0.00  0.00    -0.025 A 
ATOM     17  C   LIG    1        3.278  42.111  24.951  0.00  0.00    +0.008 A 
ATOM     18  C   LIG    1        2.907  41.250  25.984  0.00  0.00    +0.001 A 
ATOM     19  C   LIG    1        2.081  40.158  25.721  0.00  0.00    +0.000 A 
ATOM     20  C   LIG    1        1.624  39.926  24.424  0.00  0.00    +0.001 A 
ATOM     21  C   LIG    1        1.994  40.786  23.390  0.00  0.00    +0.008 A 
ENDBRANCH  15  16
ENDBRANCH  13  14
ENDBRANCH  12  13
ENDBRANCH   2  12
BRANCH  22  23
ATOM     23  C   LIG    1        9.289  44.031  21.863  0.00  0.00    +0.197 C 
BRANCH  23  24
ATOM     24  O   LIG    1       10.617  43.935  21.381  0.00  0.00    -0.346 OA
BRANCH  24  25
ATOM     25  C   LIG    1       11.319  42.851  21.980  0.00  0.00    +0.281 C 
ATOM     26  C   LIG    1       11.684  41.810  20.910  0.00  0.00    +0.201 C 
ATOM     27  C   LIG    1       12.835  42.283  20.016  0.00  0.00    +0.178 C 
ATOM     28  C   LIG    1       13.991  42.799  20.874  0.00  0.00    +0.171 C 
ATOM     29  C   LIG    1       13.496  43.839  21.872  0.00  0.00    +0.197 C 
ATOM     36  O   LIG    1       12.474  43.292  22.702  0.00  0.00    -0.346 OA
BRANCH  28  30
ATOM     30  O   LIG    1       15.001  43.352  20.042  0.00  0.00    -0.387 OA
ATOM     31  H   LIG    1       14.996  42.856  19.205  0.00  0.00    +0.210 HD
ENDBRANCH  28  30
BRANCH  27  32
ATOM     32  O   LIG    1       12.378  43.330  19.162  0.00  0.00    -0.386 OA
ATOM     33  H   LIG    1       12.338  44.144  19.693  0.00  0.00    +0.210 HD
ENDBRANCH  27  32
BRANCH  26  34
ATOM     34  O   LIG    1       12.066  40.609  21.575  0.00  0.00    -0.384 OA
ATOM     35  H   LIG    1       11.312  40.296  22.102  0.00  0.00    +0.210 HD
ENDBRANCH  26  34
ENDBRANCH  24  25
ENDBRANCH  23  24
ENDBRANCH  22  23
TORSDOF 13
ENDMDL
MODEL 3
REMARK VINA RESULT:      -7.3      3.024      7.921
REMARK  Name = 9823887
REMARK                            x       y       z     vdW  Elec       q    Type
REMARK                         _______ _______ _______ _____ _____    ______ ____
ROOT
ATOM      1  O   LIG    1        6.472  43.472  20.824  0.00  0.00    -0.341 OA
ATOM      2  C   LIG    1        5.521  43.659  19.779  0.00  0.00    +0.282 C 
ATOM      3  C   LIG    1        5.887  44.880  18.934  0.00  0.00    +0.201 C 
ATOM      4  C   LIG    1        7.323  44.790  18.419  0.00  0.00    +0.179 C 
ATOM      5  C   LIG    1        8.293  44.430  19.544  0.00  0.00    +0.177 C 
ATOM     22  C   LIG    1        7.788  43.218  20.330  0.00  0.00    +0.178 C 
ENDROOT
BRANCH   5   6
ATOM      6  O   LIG    1        9.571  44.131  18.988  0.00  0.00    -0.386 OA
ATOM      7  H   LIG    1        9.497  43.294  18.498  0.00  0.00    +0.210 HD
ENDBRANCH   5   6
BRANCH   4   8
ATOM      8  O   LIG    1        7.717  46.055  17.884  0.00  0.00    -0.386 OA
ATOM      9  H   LIG    1        8.415  45.889  17.228  0.00  0.00    +0.210 HD
ENDBRANCH   4   8
BRANCH   3  10
ATOM     10  O   LIG    1        4.989  44.943  17.826  0.00  0.00    -0.384 OA
ATOM     11  H   LIG    1        4.395  45.700  17.963  0.00  0.00    +0.210 HD
ENDBRANCH   3  10
BRANCH   2  12
ATOM     12  O   LIG    1        4.228  43.882  20.337  0.00  0.00    -0.345 OA
BRANCH  12  13
ATOM     13  C   LIG    1        3.351  42.802  20.058  0.00  0.00    +0.190 C 
BRANCH  13  14
ATOM     14  C   LIG    1        3.120  42.031  21.318  0.00  0.00    +0.001 C 
ATOM     15  C   LIG    1        3.113  42.595  22.536  0.00  0.00    +0.006 C 
BRANCH  15  16
ATOM     16  C   LIG    1        2.876  41.879  23.801  0.00  0.00    -0.025 A 
ATOM     17  C   LIG    1        3.443  42.360  24.971  0.00  0.00    +0.008 A 
ATOM     18  C   LIG    1        3.218  41.682  26.168  0.00  0.00    +0.001 A 
ATOM     19  C   LIG    1        2.430  40.531  26.181  0.00  0.00    +0.000 A 
ATOM     20  C   LIG    1        1.866  40.058  24.997  0.00  0.00    +0.001 A 
ATOM     21  C   LIG    1        2.091  40.737  23.799  0.00  0.00    +0.008 A 
ENDBRANCH  15  16
ENDBRANCH  13  14
ENDBRANCH  12  13
ENDBRANCH   2  12
BRANCH  22  23
ATOM     23  C   LIG    1        8.679  42.911  21.530  0.00  0.00    +0.197 C 
BRANCH  23  24
ATOM     24  O   LIG    1        9.387  44.087  21.878  0.00  0.00    -0.346 OA
BRANCH  24  25
ATOM     25  C   LIG    1        8.810  44.736  23.007  0.00  0.00    +0.281 C 
ATOM     26  C   LIG    1        9.183  43.981  24.292  0.00  0.00    +0.201 C 
ATOM     27  C   LIG    1       10.643  44.213  24.693  0.00  0.00    +0.178 C 
ATOM     28  C   LIG    1       10.963  45.709  24.674  0.00  0.00    +0.171 C 
ATOM     29  C   LIG    1       10.567  46.326  23.339  0.00  0.00    +0.197 C 
ATOM     36  O   LIG    1        9.181  46.117  23.080  0.00  0.00    -0.346 OA
BRANCH  28  30
ATOM     30  O   LIG    1       12.348  45.909  24.922  0.00  0.00    -0.387 OA
ATOM     31  H   LIG    1       12.754  46.214  24.093  0.00  0.00    +0.210 HD
ENDBRANCH  28  30
BRANCH  27  32
ATOM     32  O   LIG    1       11.504  43.536  23.778  0.00  0.00    -0.386 OA
ATOM     33  H   LIG    1       11.201  43.750  22.879  0.00  0.00    +0.210 HD
ENDBRANCH  27  32
BRANCH  26  34
ATOM     34  O   LIG    1        8.328  44.439  25.336  0.00  0.00    -0.384 OA
ATOM     35  H   LIG    1        8.273  45.407  25.287  0.00  0.00    +0.210 HD
ENDBRANCH  26  34
ENDBRANCH  24  25
ENDBRANCH  23  24
ENDBRANCH  22  23
TORSDOF 13
ENDMDL
MODEL 4
REMARK VINA RESULT:      -7.3      2.870      7.707
REMARK  Name = 9823887
REMARK                            x       y       z     vdW  Elec       q    Type
REMARK                         _______ _______ _______ _____ _____    ______ ____
ROOT
ATOM      1  O   LIG    1        7.371  43.407  20.061  0.00  0.00    -0.341 OA
ATOM      2  C   LIG    1        6.270  43.881  19.289  0.00  0.00    +0.282 C 
ATOM      3  C   LIG    1        6.220  45.409  19.309  0.00  0.00    +0.201 C 
ATOM      4  C   LIG    1        7.553  46.015  18.872  0.00  0.00    +0.179 C 
ATOM      5  C   LIG    1        8.724  45.367  19.610  0.00  0.00    +0.177 C 
ATOM     22  C   LIG    1        8.630  43.840  19.544  0.00  0.00    +0.178 C 
ENDROOT
BRANCH   5   6
ATOM      6  O   LIG    1        9.949  45.790  19.015  0.00  0.00    -0.386 OA
ATOM      7  H   LIG    1       10.675  45.530  19.608  0.00  0.00    +0.210 HD
ENDBRANCH   5   6
BRANCH   4   8
ATOM      8  O   LIG    1        7.562  47.412  19.171  0.00  0.00    -0.386 OA
ATOM      9  H   LIG    1        6.705  47.775  18.890  0.00  0.00    +0.210 HD
ENDBRANCH   4   8
BRANCH   3  10
ATOM     10  O   LIG    1        5.191  45.834  18.416  0.00  0.00    -0.384 OA
ATOM     11  H   LIG    1        5.259  46.798  18.315  0.00  0.00    +0.210 HD
ENDBRANCH   3  10
BRANCH   2  12
ATOM     12  O   LIG    1        5.049  43.393  19.841  0.00  0.00    -0.345 OA
BRANCH  12  13
ATOM     13  C   LIG    1        4.898  43.791  21.195  0.00  0.00    +0.190 C 
BRANCH  13  14
ATOM     14  C   LIG    1        4.221  42.691  21.947  0.00  0.00    +0.001 C 
ATOM     15  C   LIG    1        3.701  42.849  23.175  0.00  0.00    +0.006 C 
BRANCH  15  16
ATOM     16  C   LIG    1        3.014  41.800  23.947  0.00  0.00    -0.025 A 
ATOM     17  C   LIG    1        3.168  41.760  25.324  0.00  0.00    +0.008 A 
ATOM     18  C   LIG    1        2.516  40.766  26.055  0.00  0.00    +0.001 A 
ATOM     19  C   LIG    1        1.721  39.826  25.400  0.00  0.00    +0.000 A 
ATOM     20  C   LIG    1        1.575  39.879  24.014  0.00  0.00    +0.001 A 
ATOM     21  C   LIG    1        2.227  40.873  23.283  0.00  0.00    +0.008 A 
ENDBRANCH  15  16
ENDBRANCH  13  14
ENDBRANCH  12  13
ENDBRANCH   2  12
BRANCH  22  23
ATOM     23  C   LIG    1        9.723  43.171  20.372  0.00  0.00    +0.197 C 
BRANCH  23  24
ATOM     24  O   LIG    1       10.152  44.078  21.370  0.00  0.00    -0.346 OA
BRANCH  24  25
ATOM     25  C   LIG    1       10.185  43.470  22.657  0.00  0.00    +0.281 C 
ATOM     26  C   LIG    1       10.874  44.408  23.661  0.00  0.00    +0.201 C 
ATOM     27  C   LIG    1        9.979  45.588  24.055  0.00  0.00    +0.178 C 
ATOM     28  C   LIG    1        8.588  45.085  24.448  0.00  0.00    +0.171 C 
ATOM     29  C   LIG    1        8.013  44.190  23.358  0.00  0.00    +0.197 C 
ATOM     36  O   LIG    1        8.880  43.087  23.104  0.00  0.00    -0.346 OA
BRANCH  28  30
ATOM     30  O   LIG    1        7.727  46.189  24.689  0.00  0.00    -0.387 OA
ATOM     31  H   LIG    1        8.056  46.652  25.479  0.00  0.00    +0.210 HD
ENDBRANCH  28  30
BRANCH  27  32
ATOM     32  O   LIG    1        9.861  46.487  22.954  0.00  0.00    -0.386 OA
ATOM     33  H   LIG    1       10.011  47.386  23.293  0.00  0.00    +0.210 HD
ENDBRANCH  27  32
BRANCH  26  34
ATOM     34  O   LIG    1       11.195  43.650  24.824  0.00  0.00    -0.384 OA
ATOM     35  H   LIG    1       11.699  42.865  24.551  0.00  0.00    +0.210 HD
ENDBRANCH  26  34
ENDBRANCH  24  25
ENDBRANCH  23  24
ENDBRANCH  22  23
TORSDOF 13
ENDMDL
MODEL 5
REMARK VINA RESULT:      -7.2      3.279      4.642
REMARK  Name = 9823887
REMARK                            x       y       z     vdW  Elec       q    Type
REMARK                         _______ _______ _______ _____ _____    ______ ____
ROOT
ATOM      1  O   LIG    1       10.015  43.483  21.495  0.00  0.00    -0.341 OA
ATOM      2  C   LIG    1       11.227  43.230  20.788  0.00  0.00    +0.282 C 
ATOM      3  C   LIG    1       11.100  43.678  19.331  0.00  0.00    +0.201 C 
ATOM      4  C   LIG    1       10.652  45.136  19.235  0.00  0.00    +0.179 C 
ATOM      5  C   LIG    1        9.445  45.405  20.132  0.00  0.00    +0.177 C 
ATOM     22  C   LIG    1        9.690  44.873  21.546  0.00  0.00    +0.178 C 
ENDROOT
BRANCH   5   6
ATOM      6  O   LIG    1        9.203  46.808  20.191  0.00  0.00    -0.386 OA
ATOM      7  H   LIG    1        9.372  47.179  19.308  0.00  0.00    +0.210 HD
ENDBRANCH   5   6
BRANCH   4   8
ATOM      8  O   LIG    1       10.275  45.429  17.888  0.00  0.00    -0.386 OA
ATOM      9  H   LIG    1        9.709  44.701  17.579  0.00  0.00    +0.210 HD
ENDBRANCH   4   8
BRANCH   3  10
ATOM     10  O   LIG    1       12.375  43.531  18.706  0.00  0.00    -0.384 OA
ATOM     11  H   LIG    1       12.546  42.582  18.591  0.00  0.00    +0.210 HD
ENDBRANCH   3  10
BRANCH   2  12
ATOM     12  O   LIG    1       11.507  41.831  20.795  0.00  0.00    -0.345 OA
BRANCH  12  13
ATOM     13  C   LIG    1       11.807  41.371  22.103  0.00  0.00    +0.190 C 
BRANCH  13  14
ATOM     14  C   LIG    1       13.186  40.794  22.106  0.00  0.00    +0.001 C 
ATOM     15  C   LIG    1       14.290  41.522  21.880  0.00  0.00    +0.006 C 
BRANCH  15  16
ATOM     16  C   LIG    1       15.668  41.000  21.887  0.00  0.00    -0.025 A 
ATOM     17  C   LIG    1       16.002  39.978  22.762  0.00  0.00    +0.008 A 
ATOM     18  C   LIG    1       17.306  39.485  22.768  0.00  0.00    +0.001 A 
ATOM     19  C   LIG    1       18.259  40.019  21.901  0.00  0.00    +0.000 A 
ATOM     20  C   LIG    1       17.908  41.047  21.027  0.00  0.00    +0.001 A 
ATOM     21  C   LIG    1       16.604  41.541  21.020  0.00  0.00    +0.008 A 
ENDBRANCH  15  16
ENDBRANCH  13  14
ENDBRANCH  12  13
ENDBRANCH   2  12
BRANCH  22  23
ATOM     23  C   LIG    1        8.455  45.025  22.430  0.00  0.00    +0.197 C 
BRANCH  23  24
ATOM     24  O   LIG    1        7.457  45.709  21.695  0.00  0.00    -0.346 OA
BRANCH  24  25
ATOM     25  C   LIG    1        6.197  45.052  21.776  0.00  0.00    +0.281 C 
ATOM     26  C   LIG    1        5.090  45.976  21.247  0.00  0.00    +0.201 C 
ATOM     27  C   LIG    1        5.119  46.096  19.720  0.00  0.00    +0.178 C 
ATOM     28  C   LIG    1        5.196  44.707  19.084  0.00  0.00    +0.171 C 
ATOM     29  C   LIG    1        6.348  43.907  19.679  0.00  0.00    +0.197 C 
ATOM     36  O   LIG    1        6.203  43.793  21.093  0.00  0.00    -0.346 OA
BRANCH  28  30
ATOM     30  O   LIG    1        5.350  44.828  17.677  0.00  0.00    -0.387 OA
ATOM     31  H   LIG    1        4.580  45.315  17.338  0.00  0.00    +0.210 HD
ENDBRANCH  28  30
BRANCH  27  32
ATOM     32  O   LIG    1        6.256  46.860  19.322  0.00  0.00    -0.386 OA
ATOM     33  H   LIG    1        6.360  47.585  19.962  0.00  0.00    +0.210 HD
ENDBRANCH  27  32
BRANCH  26  34
ATOM     34  O   LIG    1        3.834  45.438  21.655  0.00  0.00    -0.384 OA
ATOM     35  H   LIG    1        3.961  44.504  21.889  0.00  0.00    +0.210 HD
ENDBRANCH  26  34
ENDBRANCH  24  25
ENDBRANCH  23  24
ENDBRANCH  22  23
TORSDOF 13
ENDMDL
MODEL 6
REMARK VINA RESULT:      -7.2      2.320      7.397
REMARK  Name = 9823887
REMARK                            x       y       z     vdW  Elec       q    Type
REMARK                         _______ _______ _______ _____ _____    ______ ____
ROOT
ATOM      1  O   LIG    1        8.178  44.163  21.121  0.00  0.00    -0.341 OA
ATOM      2  C   LIG    1        7.427  44.904  20.162  0.00  0.00    +0.282 C 
ATOM      3  C   LIG    1        8.361  45.670  19.225  0.00  0.00    +0.201 C 
ATOM      4  C   LIG    1        9.389  44.740  18.582  0.00  0.00    +0.179 C 
ATOM      5  C   LIG    1       10.060  43.849  19.625  0.00  0.00    +0.177 C 
ATOM     22  C   LIG    1        9.014  43.174  20.517  0.00  0.00    +0.178 C 
ENDROOT
BRANCH   5   6
ATOM      6  O   LIG    1       10.833  42.849  18.966  0.00  0.00    -0.386 OA
ATOM      7  H   LIG    1       10.580  42.846  18.026  0.00  0.00    +0.210 HD
ENDBRANCH   5   6
BRANCH   4   8
ATOM      8  O   LIG    1       10.405  45.520  17.948  0.00  0.00    -0.386 OA
ATOM      9  H   LIG    1       10.295  46.439  18.246  0.00  0.00    +0.210 HD
ENDBRANCH   4   8
BRANCH   3  10
ATOM     10  O   LIG    1        7.570  46.281  18.206  0.00  0.00    -0.384 OA
ATOM     11  H   LIG    1        7.975  46.076  17.347  0.00  0.00    +0.210 HD
ENDBRANCH   3  10
BRANCH   2  12
ATOM     12  O   LIG    1        6.596  45.853  20.829  0.00  0.00    -0.345 OA
BRANCH  12  13
ATOM     13  C   LIG    1        5.223  45.606  20.576  0.00  0.00    +0.190 C 
BRANCH  13  14
ATOM     14  C   LIG    1        4.740  44.552  21.520  0.00  0.00    +0.001 C 
ATOM     15  C   LIG    1        4.611  44.749  22.841  0.00  0.00    +0.006 C 
BRANCH  15  16
ATOM     16  C   LIG    1        4.127  43.747  23.806  0.00  0.00    -0.025 A 
ATOM     17  C   LIG    1        4.472  43.869  25.143  0.00  0.00    +0.008 A 
ATOM     18  C   LIG    1        4.014  42.921  26.056  0.00  0.00    +0.001 A 
ATOM     19  C   LIG    1        3.217  41.861  25.622  0.00  0.00    +0.000 A 
ATOM     20  C   LIG    1        2.878  41.751  24.273  0.00  0.00    +0.001 A 
ATOM     21  C   LIG    1        3.337  42.700  23.360  0.00  0.00    +0.008 A 
ENDBRANCH  15  16
ENDBRANCH  13  14
ENDBRANCH  12  13
ENDBRANCH   2  12
BRANCH  22  23
ATOM     23  C   LIG    1        9.663  42.371  21.641  0.00  0.00    +0.197 C 
BRANCH  23  24
ATOM     24  O   LIG    1        9.549  43.107  22.845  0.00  0.00    -0.346 OA
BRANCH  24  25
ATOM     25  C   LIG    1       10.766  43.104  23.583  0.00  0.00    +0.281 C 
ATOM     26  C   LIG    1       11.795  44.016  22.898  0.00  0.00    +0.201 C 
ATOM     27  C   LIG    1       11.478  45.501  23.105  0.00  0.00    +0.178 C 
ATOM     28  C   LIG    1       11.210  45.781  24.584  0.00  0.00    +0.171 C 
ATOM     29  C   LIG    1       10.155  44.826  25.129  0.00  0.00    +0.197 C 
ATOM     36  O   LIG    1       10.565  43.472  24.952  0.00  0.00    -0.346 OA
BRANCH  28  30
ATOM     30  O   LIG    1       10.792  47.129  24.752  0.00  0.00    -0.387 OA
ATOM     31  H   LIG    1       11.581  47.657  24.964  0.00  0.00    +0.210 HD
ENDBRANCH  28  30
BRANCH  27  32
ATOM     32  O   LIG    1       10.324  45.853  22.342  0.00  0.00    -0.386 OA
ATOM     33  H   LIG    1       10.503  45.616  21.416  0.00  0.00    +0.210 HD
ENDBRANCH  27  32
BRANCH  26  34
ATOM     34  O   LIG    1       13.077  43.727  23.450  0.00  0.00    -0.384 OA
ATOM     35  H   LIG    1       13.016  43.784  24.418  0.00  0.00    +0.210 HD
ENDBRANCH  26  34
ENDBRANCH  24  25
ENDBRANCH  23  24
ENDBRANCH  22  23
TORSDOF 13
ENDMDL
MODEL 7
REMARK VINA RESULT:      -7.1      2.798      4.893
REMARK  Name = 9823887
REMARK                            x       y       z     vdW  Elec       q    Type
REMARK                         _______ _______ _______ _____ _____    ______ ____
ROOT
ATOM      1  O   LIG    1        6.188  44.554  20.632  0.00  0.00    -0.341 OA
ATOM      2  C   LIG    1        7.594  44.726  20.467  0.00  0.00    +0.282 C 
ATOM      3  C   LIG    1        7.882  45.811  19.428  0.00  0.00    +0.201 C 
ATOM      4  C   LIG    1        7.162  47.114  19.770  0.00  0.00    +0.179 C 
ATOM      5  C   LIG    1        5.690  46.865  20.097  0.00  0.00    +0.177 C 
ATOM     22  C   LIG    1        5.544  45.733  21.117  0.00  0.00    +0.178 C 
ENDROOT
BRANCH   5   6
ATOM      6  O   LIG    1        5.116  48.057  20.629  0.00  0.00    -0.386 OA
ATOM      7  H   LIG    1        5.513  48.215  21.503  0.00  0.00    +0.210 HD
ENDBRANCH   5   6
BRANCH   4   8
ATOM      8  O   LIG    1        7.222  47.999  18.650  0.00  0.00    -0.386 OA
ATOM      9  H   LIG    1        8.037  48.523  18.736  0.00  0.00    +0.210 HD
ENDBRANCH   4   8
BRANCH   3  10
ATOM     10  O   LIG    1        9.291  46.040  19.401  0.00  0.00    -0.384 OA
ATOM     11  H   LIG    1        9.610  45.844  18.504  0.00  0.00    +0.210 HD
ENDBRANCH   3  10
BRANCH   2  12
ATOM     12  O   LIG    1        8.178  43.509  20.007  0.00  0.00    -0.345 OA
BRANCH  12  13
ATOM     13  C   LIG    1        8.501  42.650  21.089  0.00  0.00    +0.190 C 
BRANCH  13  14
ATOM     14  C   LIG    1        9.936  42.855  21.454  0.00  0.00    +0.001 C 
ATOM     15  C   LIG    1       10.889  43.158  20.559  0.00  0.00    +0.006 C 
BRANCH  15  16
ATOM     16  C   LIG    1       12.310  43.383  20.875  0.00  0.00    -0.025 A 
ATOM     17  C   LIG    1       12.664  43.816  22.143  0.00  0.00    +0.008 A 
ATOM     18  C   LIG    1       14.010  44.029  22.441  0.00  0.00    +0.001 A 
ATOM     19  C   LIG    1       14.984  43.808  21.468  0.00  0.00    +0.000 A 
ATOM     20  C   LIG    1       14.613  43.373  20.196  0.00  0.00    +0.001 A 
ATOM     21  C   LIG    1       13.267  43.159  19.897  0.00  0.00    +0.008 A 
ENDBRANCH  15  16
ENDBRANCH  13  14
ENDBRANCH  12  13
ENDBRANCH   2  12
BRANCH  22  23
ATOM     23  C   LIG    1        4.080  45.387  21.371  0.00  0.00    +0.197 C 
BRANCH  23  24
ATOM     24  O   LIG    1        3.860  44.044  20.981  0.00  0.00    -0.346 OA
BRANCH  24  25
ATOM     25  C   LIG    1        3.080  43.337  21.939  0.00  0.00    +0.281 C 
ATOM     26  C   LIG    1        3.049  41.841  21.588  0.00  0.00    +0.201 C 
ATOM     27  C   LIG    1        4.377  41.147  21.906  0.00  0.00    +0.178 C 
ATOM     28  C   LIG    1        4.826  41.495  23.327  0.00  0.00    +0.171 C 
ATOM     29  C   LIG    1        4.835  43.004  23.532  0.00  0.00    +0.197 C 
ATOM     36  O   LIG    1        3.545  43.554  23.276  0.00  0.00    -0.346 OA
BRANCH  28  30
ATOM     30  O   LIG    1        6.117  40.953  23.571  0.00  0.00    -0.387 OA
ATOM     31  H   LIG    1        6.238  40.200  22.968  0.00  0.00    +0.210 HD
ENDBRANCH  28  30
BRANCH  27  32
ATOM     32  O   LIG    1        5.374  41.574  20.979  0.00  0.00    -0.386 OA
ATOM     33  H   LIG    1        6.080  42.009  21.488  0.00  0.00    +0.210 HD
ENDBRANCH  27  32
BRANCH  26  34
ATOM     34  O   LIG    1        2.005  41.232  22.343  0.00  0.00    -0.384 OA
ATOM     35  H   LIG    1        1.213  41.176  21.783  0.00  0.00    +0.210 HD
ENDBRANCH  26  34
ENDBRANCH  24  25
ENDBRANCH  23  24
ENDBRANCH  22  23
TORSDOF 13
ENDMDL
MODEL 8
REMARK VINA RESULT:      -7.1      3.099      7.497
REMARK  Name = 9823887
REMARK                            x       y       z     vdW  Elec       q    Type
REMARK                         _______ _______ _______ _____ _____    ______ ____
ROOT
ATOM      1  O   LIG    1        7.287  43.212  20.344  0.00  0.00    -0.341 OA
ATOM      2  C   LIG    1        6.578  43.306  19.111  0.00  0.00    +0.282 C 
ATOM      3  C   LIG    1        6.371  44.771  18.723  0.00  0.00    +0.201 C 
ATOM      4  C   LIG    1        7.695  45.534  18.704  0.00  0.00    +0.179 C 
ATOM      5  C   LIG    1        8.499  45.279  19.978  0.00  0.00    +0.177 C 
ATOM     22  C   LIG    1        8.596  43.779  20.269  0.00  0.00    +0.178 C 
ENDROOT
BRANCH   5   6
ATOM      6  O   LIG    1        9.811  45.814  19.824  0.00  0.00    -0.386 OA
ATOM      7  H   LIG    1       10.435  45.069  19.769  0.00  0.00    +0.210 HD
ENDBRANCH   5   6
BRANCH   4   8
ATOM      8  O   LIG    1        7.435  46.936  18.620  0.00  0.00    -0.386 OA
ATOM      9  H   LIG    1        6.527  47.083  18.934  0.00  0.00    +0.210 HD
ENDBRANCH   4   8
BRANCH   3  10
ATOM     10  O   LIG    1        5.782  44.810  17.423  0.00  0.00    -0.384 OA
ATOM     11  H   LIG    1        6.294  45.433  16.880  0.00  0.00    +0.210 HD
ENDBRANCH   3  10
BRANCH   2  12
ATOM     12  O   LIG    1        5.293  42.701  19.246  0.00  0.00    -0.345 OA
BRANCH  12  13
ATOM     13  C   LIG    1        4.404  43.532  19.975  0.00  0.00    +0.190 C 
BRANCH  13  14
ATOM     14  C   LIG    1        3.502  42.668  20.796  0.00  0.00    +0.001 C 
ATOM     15  C   LIG    1        3.948  41.807  21.724  0.00  0.00    +0.006 C 
BRANCH  15  16
ATOM     16  C   LIG    1        3.097  40.948  22.565  0.00  0.00    -0.025 A 
ATOM     17  C   LIG    1        2.572  39.782  22.032  0.00  0.00    +0.008 A 
ATOM     18  C   LIG    1        1.766  38.969  22.829  0.00  0.00    +0.001 A 
ATOM     19  C   LIG    1        1.495  39.333  24.148  0.00  0.00    +0.000 A 
ATOM     20  C   LIG    1        2.030  40.510  24.671  0.00  0.00    +0.001 A 
ATOM     21  C   LIG    1        2.836  41.323  23.874  0.00  0.00    +0.008 A 
ENDBRANCH  15  16
ENDBRANCH  13  14
ENDBRANCH  12  13
ENDBRANCH   2  12
BRANCH  22  23
ATOM     23  C   LIG    1        9.294  43.504  21.597  0.00  0.00    +0.197 C 
BRANCH  23  24
ATOM     24  O   LIG    1        8.335  43.019  22.519  0.00  0.00    -0.346 OA
BRANCH  24  25
ATOM     25  C   LIG    1        8.471  43.634  23.796  0.00  0.00    +0.281 C 
ATOM     26  C   LIG    1        7.969  45.085  23.734  0.00  0.00    +0.201 C 
ATOM     27  C   LIG    1        6.440  45.164  23.672  0.00  0.00    +0.178 C 
ATOM     28  C   LIG    1        5.823  44.284  24.761  0.00  0.00    +0.171 C 
ATOM     29  C   LIG    1        6.388  42.871  24.694  0.00  0.00    +0.197 C 
ATOM     36  O   LIG    1        7.807  42.890  24.824  0.00  0.00    -0.346 OA
BRANCH  28  30
ATOM     30  O   LIG    1        4.410  44.260  24.619  0.00  0.00    -0.387 OA
ATOM     31  H   LIG    1        4.087  45.170  24.737  0.00  0.00    +0.210 HD
ENDBRANCH  28  30
BRANCH  27  32
ATOM     32  O   LIG    1        5.990  44.717  22.394  0.00  0.00    -0.386 OA
ATOM     33  H   LIG    1        5.405  45.405  22.033  0.00  0.00    +0.210 HD
ENDBRANCH  27  32
BRANCH  26  34
ATOM     34  O   LIG    1        8.430  45.761  24.901  0.00  0.00    -0.384 OA
ATOM     35  H   LIG    1        9.242  46.245  24.677  0.00  0.00    +0.210 HD
ENDBRANCH  26  34
ENDBRANCH  24  25
ENDBRANCH  23  24
ENDBRANCH  22  23
TORSDOF 13
ENDMDL
MODEL 9
REMARK VINA RESULT:      -7.1      8.275     10.801
REMARK  Name = 9823887
REMARK                            x       y       z     vdW  Elec       q    Type
REMARK                         _______ _______ _______ _____ _____    ______ ____
ROOT
ATOM      1  O   LIG    1        1.453  39.319  22.438  0.00  0.00    -0.341 OA
ATOM      2  C   LIG    1        2.208  40.356  23.060  0.00  0.00    +0.282 C 
ATOM      3  C   LIG    1        1.897  40.422  24.556  0.00  0.00    +0.201 C 
ATOM      4  C   LIG    1        2.093  39.062  25.226  0.00  0.00    +0.179 C 
ATOM      5  C   LIG    1        1.399  37.952  24.439  0.00  0.00    +0.177 C 
ATOM     22  C   LIG    1        1.767  38.025  22.955  0.00  0.00    +0.178 C 
ENDROOT
BRANCH   5   6
ATOM      6  O   LIG    1        1.794  36.685  24.961  0.00  0.00    -0.386 OA
ATOM      7  H   LIG    1        1.571  36.006  24.300  0.00  0.00    +0.210 HD
ENDBRANCH   5   6
BRANCH   4   8
ATOM      8  O   LIG    1        1.529  39.093  26.538  0.00  0.00    -0.386 OA
ATOM      9  H   LIG    1        1.853  39.899  26.975  0.00  0.00    +0.210 HD
ENDBRANCH   4   8
BRANCH   3  10
ATOM     10  O   LIG    1        2.774  41.376  25.153  0.00  0.00    -0.384 OA
ATOM     11  H   LIG    1        2.958  42.069  24.497  0.00  0.00    +0.210 HD
ENDBRANCH   3  10
BRANCH   2  12
ATOM     12  O   LIG    1        1.867  41.614  22.483  0.00  0.00    -0.345 OA
BRANCH  12  13
ATOM     13  C   LIG    1        1.876  41.553  21.066  0.00  0.00    +0.190 C 
BRANCH  13  14
ATOM     14  C   LIG    1        2.589  42.755  20.536  0.00  0.00    +0.001 C 
ATOM     15  C   LIG    1        3.594  43.362  21.186  0.00  0.00    +0.006 C 
BRANCH  15  16
ATOM     16  C   LIG    1        4.334  44.537  20.696  0.00  0.00    -0.025 A 
ATOM     17  C   LIG    1        5.084  44.433  19.535  0.00  0.00    +0.008 A 
ATOM     18  C   LIG    1        5.784  45.547  19.073  0.00  0.00    +0.001 A 
ATOM     19  C   LIG    1        5.728  46.749  19.776  0.00  0.00    +0.000 A 
ATOM     20  C   LIG    1        4.970  46.839  20.944  0.00  0.00    +0.001 A 
ATOM     21  C   LIG    1        4.268  45.725  21.406  0.00  0.00    +0.008 A 
ENDBRANCH  15  16
ENDBRANCH  13  14
ENDBRANCH  12  13
ENDBRANCH   2  12
BRANCH  22  23
ATOM     23  C   LIG    1        0.996  36.999  22.130  0.00  0.00    +0.197 C 
BRANCH  23  24
ATOM     24  O   LIG    1        0.346  36.105  23.015  0.00  0.00    -0.346 OA
BRANCH  24  25
ATOM     25  C   LIG    1       -0.109  34.935  22.344  0.00  0.00    +0.281 C 
ATOM     26  C   LIG    1        1.073  34.230  21.662  0.00  0.00    +0.201 C 
ATOM     27  C   LIG    1        1.972  33.506  22.670  0.00  0.00    +0.178 C 
ATOM     28  C   LIG    1        1.124  32.644  23.608  0.00  0.00    +0.171 C 
ATOM     29  C   LIG    1        0.007  33.470  24.234  0.00  0.00    +0.197 C 
ATOM     36  O   LIG    1       -0.814  34.052  23.224  0.00  0.00    -0.346 OA
BRANCH  28  30
ATOM     30  O   LIG    1        1.946  32.077  24.618  0.00  0.00    -0.387 OA
ATOM     31  H   LIG    1        1.361  31.709  25.301  0.00  0.00    +0.210 HD
ENDBRANCH  28  30
BRANCH  27  32
ATOM     32  O   LIG    1        2.697  34.465  23.438  0.00  0.00    -0.386 OA
ATOM     33  H   LIG    1        3.621  34.166  23.483  0.00  0.00    +0.210 HD
ENDBRANCH  27  32
BRANCH  26  34
ATOM     34  O   LIG    1        0.546  33.284  20.735  0.00  0.00    -0.384 OA
ATOM     35  H   LIG    1        1.157  32.529  20.684  0.00  0.00    +0.210 HD
ENDBRANCH  26  34
ENDBRANCH  24  25
ENDBRANCH  23  24
ENDBRANCH  22  23
TORSDOF 13
ENDMDL
