MODEL 1
REMARK VINA RESULT:      -6.1      0.000      0.000
REMARK  4 active torsions:
REMARK  status: ('A' for Active; 'I' for Inactive)
REMARK    1  A    between atoms: O_1  and  C_10 
REMARK    2  A    between atoms: O_1  and  C_11 
REMARK    3  A    between atoms: N_3  and  C_7 
REMARK    4  A    between atoms: C_4  and  C_10 
ROOT
HETATM    1  O   UNK     0     168.853 164.754 148.309  0.00  0.00    -0.318 OA
ENDROOT
BRANCH   1   2
HETATM    2  C   UNK     0     170.125 164.303 148.539  0.00  0.00     0.293 C 
HETATM    3  O   UNK     0     170.483 163.130 148.377  0.00  0.00    -0.259 OA
BRANCH   2   4
HETATM    4  C   UNK     0     170.996 165.374 148.997  0.00  0.00     0.039 A 
HETATM    5  C   UNK     0     170.481 166.404 149.785  0.00  0.00     0.020 A 
HETATM    6  C   UNK     0     171.317 167.431 150.223  0.00  0.00     0.030 A 
HETATM    7  C   UNK     0     172.668 167.428 149.875  0.00  0.00     0.025 A 
HETATM    8  C   UNK     0     173.183 166.398 149.088  0.00  0.00     0.030 A 
HETATM    9  C   UNK     0     172.347 165.371 148.648  0.00  0.00     0.020 A 
BRANCH   7  10
HETATM   10  N   UNK     0     173.512 168.466 150.318  0.00  0.00    -0.399 N 
HETATM   11  H   UNK     0     173.621 169.303 149.761  0.00  0.00     0.156 HD
HETATM   12  H   UNK     0     174.012 168.374 151.193  0.00  0.00     0.156 HD
ENDBRANCH   7  10
ENDBRANCH   2   4
ENDBRANCH   1   2
BRANCH   1  13
HETATM   13  C   UNK     0     167.910 163.801 147.809  0.00  0.00     0.174 C 
HETATM   14  C   UNK     0     166.908 164.514 146.927  0.00  0.00     0.034 C 
ENDBRANCH   1  13
TORSDOF 4
ENDMDL
MODEL 2
REMARK VINA RESULT:      -5.9     35.833     37.400
REMARK  4 active torsions:
REMARK  status: ('A' for Active; 'I' for Inactive)
REMARK    1  A    between atoms: O_1  and  C_10 
REMARK    2  A    between atoms: O_1  and  C_11 
REMARK    3  A    between atoms: N_3  and  C_7 
REMARK    4  A    between atoms: C_4  and  C_10 
ROOT
HETATM    1  O   UNK     0     191.560 175.636 177.788  0.00  0.00    -0.318 OA
ENDROOT
BRANCH   1   2
HETATM    2  C   UNK     0     191.582 176.685 178.667  0.00  0.00     0.293 C 
HETATM    3  O   UNK     0     192.617 177.159 179.153  0.00  0.00    -0.259 OA
BRANCH   2   4
HETATM    4  C   UNK     0     190.241 177.169 178.954  0.00  0.00     0.039 A 
HETATM    5  C   UNK     0     189.411 177.584 177.912  0.00  0.00     0.020 A 
HETATM    6  C   UNK     0     188.125 178.049 178.188  0.00  0.00     0.030 A 
HETATM    7  C   UNK     0     187.669 178.100 179.506  0.00  0.00     0.025 A 
HETATM    8  C   UNK     0     188.499 177.685 180.547  0.00  0.00     0.030 A 
HETATM    9  C   UNK     0     189.785 177.221 180.271  0.00  0.00     0.020 A 
BRANCH   7  10
HETATM   10  N   UNK     0     186.369 178.570 179.784  0.00  0.00    -0.399 N 
HETATM   11  H   UNK     0     186.193 179.104 180.625  0.00  0.00     0.156 HD
HETATM   12  H   UNK     0     185.611 178.373 179.144  0.00  0.00     0.156 HD
ENDBRANCH   7  10
ENDBRANCH   2   4
ENDBRANCH   1   2
BRANCH   1  13
HETATM   13  C   UNK     0     191.038 174.395 178.277  0.00  0.00     0.174 C 
HETATM   14  C   UNK     0     190.015 173.870 177.294  0.00  0.00     0.034 C 
ENDBRANCH   1  13
TORSDOF 4
ENDMDL
MODEL 3
REMARK VINA RESULT:      -5.8     34.970     36.708
REMARK  4 active torsions:
REMARK  status: ('A' for Active; 'I' for Inactive)
REMARK    1  A    between atoms: O_1  and  C_10 
REMARK    2  A    between atoms: O_1  and  C_11 
REMARK    3  A    between atoms: N_3  and  C_7 
REMARK    4  A    between atoms: C_4  and  C_10 
ROOT
HETATM    1  O   UNK     0     191.343 177.147 178.540  0.00  0.00    -0.318 OA
ENDROOT
BRANCH   1   2
HETATM    2  C   UNK     0     190.712 176.051 178.017  0.00  0.00     0.293 C 
HETATM    3  O   UNK     0     191.301 175.043 177.607  0.00  0.00    -0.259 OA
BRANCH   2   4
HETATM    4  C   UNK     0     189.268 176.222 178.004  0.00  0.00     0.039 A 
HETATM    5  C   UNK     0     188.438 175.128 177.758  0.00  0.00     0.020 A 
HETATM    6  C   UNK     0     187.053 175.292 177.744  0.00  0.00     0.030 A 
HETATM    7  C   UNK     0     186.497 176.550 177.977  0.00  0.00     0.025 A 
HETATM    8  C   UNK     0     187.326 177.644 178.223  0.00  0.00     0.030 A 
HETATM    9  C   UNK     0     188.712 177.480 178.236  0.00  0.00     0.020 A 
BRANCH   7  10
HETATM   10  N   UNK     0     185.097 176.716 177.964  0.00  0.00    -0.399 N 
HETATM   11  H   UNK     0     184.534 176.334 178.712  0.00  0.00     0.156 HD
HETATM   12  H   UNK     0     184.654 177.216 177.204  0.00  0.00     0.156 HD
ENDBRANCH   7  10
ENDBRANCH   2   4
ENDBRANCH   1   2
BRANCH   1  13
HETATM   13  C   UNK     0     192.164 176.931 179.694  0.00  0.00     0.174 C 
HETATM   14  C   UNK     0     191.407 177.375 180.926  0.00  0.00     0.034 C 
ENDBRANCH   1  13
TORSDOF 4
ENDMDL
MODEL 4
REMARK VINA RESULT:      -5.8      1.292      2.371
REMARK  4 active torsions:
REMARK  status: ('A' for Active; 'I' for Inactive)
REMARK    1  A    between atoms: O_1  and  C_10 
REMARK    2  A    between atoms: O_1  and  C_11 
REMARK    3  A    between atoms: N_3  and  C_7 
REMARK    4  A    between atoms: C_4  and  C_10 
ROOT
HETATM    1  O   UNK     0     169.915 163.208 148.210  0.00  0.00    -0.318 OA
ENDROOT
BRANCH   1   2
HETATM    2  C   UNK     0     169.516 164.513 148.319  0.00  0.00     0.293 C 
HETATM    3  O   UNK     0     168.370 164.910 148.070  0.00  0.00    -0.259 OA
BRANCH   2   4
HETATM    4  C   UNK     0     170.605 165.369 148.761  0.00  0.00     0.039 A 
HETATM    5  C   UNK     0     171.899 165.153 148.285  0.00  0.00     0.020 A 
HETATM    6  C   UNK     0     172.944 165.974 148.710  0.00  0.00     0.030 A 
HETATM    7  C   UNK     0     172.696 167.011 149.609  0.00  0.00     0.025 A 
HETATM    8  C   UNK     0     171.403 167.227 150.084  0.00  0.00     0.030 A 
HETATM    9  C   UNK     0     170.357 166.406 149.660  0.00  0.00     0.020 A 
BRANCH   7  10
HETATM   10  N   UNK     0     173.752 167.840 150.038  0.00  0.00    -0.399 N 
HETATM   11  H   UNK     0     173.605 168.500 150.789  0.00  0.00     0.156 HD
HETATM   12  H   UNK     0     174.659 167.776 149.593  0.00  0.00     0.156 HD
ENDBRANCH   7  10
ENDBRANCH   2   4
ENDBRANCH   1   2
BRANCH   1  13
HETATM   13  C   UNK     0     169.240 162.255 149.038  0.00  0.00     0.174 C 
HETATM   14  C   UNK     0     169.840 160.886 148.802  0.00  0.00     0.034 C 
ENDBRANCH   1  13
TORSDOF 4
ENDMDL
MODEL 5
REMARK VINA RESULT:      -5.7     36.034     37.796
REMARK  4 active torsions:
REMARK  status: ('A' for Active; 'I' for Inactive)
REMARK    1  A    between atoms: O_1  and  C_10 
REMARK    2  A    between atoms: O_1  and  C_11 
REMARK    3  A    between atoms: N_3  and  C_7 
REMARK    4  A    between atoms: C_4  and  C_10 
ROOT
HETATM    1  O   UNK     0     190.276 176.009 177.308  0.00  0.00    -0.318 OA
ENDROOT
BRANCH   1   2
HETATM    2  C   UNK     0     191.002 176.562 178.328  0.00  0.00     0.293 C 
HETATM    3  O   UNK     0     192.224 176.753 178.283  0.00  0.00    -0.259 OA
BRANCH   2   4
HETATM    4  C   UNK     0     190.159 176.893 179.465  0.00  0.00     0.039 A 
HETATM    5  C   UNK     0     190.564 176.551 180.756  0.00  0.00     0.020 A 
HETATM    6  C   UNK     0     189.754 176.868 181.847  0.00  0.00     0.030 A 
HETATM    7  C   UNK     0     188.541 177.527 181.649  0.00  0.00     0.025 A 
HETATM    8  C   UNK     0     188.137 177.868 180.358  0.00  0.00     0.030 A 
HETATM    9  C   UNK     0     188.945 177.551 179.267  0.00  0.00     0.020 A 
BRANCH   7  10
HETATM   10  N   UNK     0     187.723 177.847 182.751  0.00  0.00    -0.399 N 
HETATM   11  H   UNK     0     187.308 177.109 183.304  0.00  0.00     0.156 HD
HETATM   12  H   UNK     0     187.550 178.815 182.990  0.00  0.00     0.156 HD
ENDBRANCH   7  10
ENDBRANCH   2   4
ENDBRANCH   1   2
BRANCH   1  13
HETATM   13  C   UNK     0     190.127 174.584 177.319  0.00  0.00     0.174 C 
HETATM   14  C   UNK     0     188.655 174.243 177.237  0.00  0.00     0.034 C 
ENDBRANCH   1  13
TORSDOF 4
ENDMDL
MODEL 6
REMARK VINA RESULT:      -5.6     28.055     29.055
REMARK  4 active torsions:
REMARK  status: ('A' for Active; 'I' for Inactive)
REMARK    1  A    between atoms: O_1  and  C_10 
REMARK    2  A    between atoms: O_1  and  C_11 
REMARK    3  A    between atoms: N_3  and  C_7 
REMARK    4  A    between atoms: C_4  and  C_10 
ROOT
HETATM    1  O   UNK     0     149.902 176.993 161.956  0.00  0.00    -0.318 OA
ENDROOT
BRANCH   1   2
HETATM    2  C   UNK     0     149.840 176.194 163.066  0.00  0.00     0.293 C 
HETATM    3  O   UNK     0     150.433 175.113 163.174  0.00  0.00    -0.259 OA
BRANCH   2   4
HETATM    4  C   UNK     0     148.990 176.773 164.094  0.00  0.00     0.039 A 
HETATM    5  C   UNK     0     148.189 175.947 164.883  0.00  0.00     0.020 A 
HETATM    6  C   UNK     0     147.373 176.503 165.869  0.00  0.00     0.030 A 
HETATM    7  C   UNK     0     147.360 177.884 166.067  0.00  0.00     0.025 A 
HETATM    8  C   UNK     0     148.161 178.709 165.279  0.00  0.00     0.030 A 
HETATM    9  C   UNK     0     148.976 178.154 164.292  0.00  0.00     0.020 A 
BRANCH   7  10
HETATM   10  N   UNK     0     146.536 178.445 167.064  0.00  0.00    -0.399 N 
HETATM   11  H   UNK     0     146.669 179.406 167.349  0.00  0.00     0.156 HD
HETATM   12  H   UNK     0     145.811 177.886 167.496  0.00  0.00     0.156 HD
ENDBRANCH   7  10
ENDBRANCH   2   4
ENDBRANCH   1   2
BRANCH   1  13
HETATM   13  C   UNK     0     150.464 176.414 160.773  0.00  0.00     0.174 C 
HETATM   14  C   UNK     0     150.289 177.380 159.622  0.00  0.00     0.034 C 
ENDBRANCH   1  13
TORSDOF 4
ENDMDL
MODEL 7
REMARK VINA RESULT:      -5.6     30.446     31.275
REMARK  4 active torsions:
REMARK  status: ('A' for Active; 'I' for Inactive)
REMARK    1  A    between atoms: O_1  and  C_10 
REMARK    2  A    between atoms: O_1  and  C_11 
REMARK    3  A    between atoms: N_3  and  C_7 
REMARK    4  A    between atoms: C_4  and  C_10 
ROOT
HETATM    1  O   UNK     0     192.497 179.819 166.137  0.00  0.00    -0.318 OA
ENDROOT
BRANCH   1   2
HETATM    2  C   UNK     0     193.128 181.000 165.853  0.00  0.00     0.293 C 
HETATM    3  O   UNK     0     194.218 181.335 166.334  0.00  0.00    -0.259 OA
BRANCH   2   4
HETATM    4  C   UNK     0     192.357 181.807 164.921  0.00  0.00     0.039 A 
HETATM    5  C   UNK     0     190.994 182.014 165.141  0.00  0.00     0.020 A 
HETATM    6  C   UNK     0     190.254 182.788 164.246  0.00  0.00     0.030 A 
HETATM    7  C   UNK     0     190.876 183.354 163.133  0.00  0.00     0.025 A 
HETATM    8  C   UNK     0     192.237 183.146 162.914  0.00  0.00     0.030 A 
HETATM    9  C   UNK     0     192.978 182.372 163.808  0.00  0.00     0.020 A 
BRANCH   7  10
HETATM   10  N   UNK     0     190.128 184.135 162.229  0.00  0.00    -0.399 N 
HETATM   11  H   UNK     0     190.142 185.144 162.299  0.00  0.00     0.156 HD
HETATM   12  H   UNK     0     189.574 183.687 161.510  0.00  0.00     0.156 HD
ENDBRANCH   7  10
ENDBRANCH   2   4
ENDBRANCH   1   2
BRANCH   1  13
HETATM   13  C   UNK     0     192.178 179.570 167.511  0.00  0.00     0.174 C 
HETATM   14  C   UNK     0     190.746 179.087 167.603  0.00  0.00     0.034 C 
ENDBRANCH   1  13
TORSDOF 4
ENDMDL
MODEL 8
REMARK VINA RESULT:      -5.5     35.196     35.986
REMARK  4 active torsions:
REMARK  status: ('A' for Active; 'I' for Inactive)
REMARK    1  A    between atoms: O_1  and  C_10 
REMARK    2  A    between atoms: O_1  and  C_11 
REMARK    3  A    between atoms: N_3  and  C_7 
REMARK    4  A    between atoms: C_4  and  C_10 
ROOT
HETATM    1  O   UNK     0     186.046 178.318 177.968  0.00  0.00    -0.318 OA
ENDROOT
BRANCH   1   2
HETATM    2  C   UNK     0     187.284 178.408 178.545  0.00  0.00     0.293 C 
HETATM    3  O   UNK     0     187.645 179.348 179.265  0.00  0.00    -0.259 OA
BRANCH   2   4
HETATM    4  C   UNK     0     188.116 177.264 178.206  0.00  0.00     0.039 A 
HETATM    5  C   UNK     0     187.535 176.010 178.020  0.00  0.00     0.020 A 
HETATM    6  C   UNK     0     188.334 174.913 177.695  0.00  0.00     0.030 A 
HETATM    7  C   UNK     0     189.713 175.070 177.556  0.00  0.00     0.025 A 
HETATM    8  C   UNK     0     190.293 176.324 177.742  0.00  0.00     0.030 A 
HETATM    9  C   UNK     0     189.495 177.421 178.068  0.00  0.00     0.020 A 
BRANCH   7  10
HETATM   10  N   UNK     0     190.519 173.962 177.228  0.00  0.00    -0.399 N 
HETATM   11  H   UNK     0     190.918 173.881 176.302  0.00  0.00     0.156 HD
HETATM   12  H   UNK     0     190.699 173.244 177.919  0.00  0.00     0.156 HD
ENDBRANCH   7  10
ENDBRANCH   2   4
ENDBRANCH   1   2
BRANCH   1  13
HETATM   13  C   UNK     0     184.919 178.581 178.810  0.00  0.00     0.174 C 
HETATM   14  C   UNK     0     184.734 177.419 179.762  0.00  0.00     0.034 C 
ENDBRANCH   1  13
TORSDOF 4
ENDMDL
MODEL 9
REMARK VINA RESULT:      -5.5     35.325     36.980
REMARK  4 active torsions:
REMARK  status: ('A' for Active; 'I' for Inactive)
REMARK    1  A    between atoms: O_1  and  C_10 
REMARK    2  A    between atoms: O_1  and  C_11 
REMARK    3  A    between atoms: N_3  and  C_7 
REMARK    4  A    between atoms: C_4  and  C_10 
ROOT
HETATM    1  O   UNK     0     187.493 173.882 179.105  0.00  0.00    -0.318 OA
ENDROOT
BRANCH   1   2
HETATM    2  C   UNK     0     188.812 173.517 179.149  0.00  0.00     0.293 C 
HETATM    3  O   UNK     0     189.224 172.380 178.886  0.00  0.00    -0.259 OA
BRANCH   2   4
HETATM    4  C   UNK     0     189.661 174.630 179.543  0.00  0.00     0.039 A 
HETATM    5  C   UNK     0     189.092 175.787 180.075  0.00  0.00     0.020 A 
HETATM    6  C   UNK     0     189.907 176.855 180.453  0.00  0.00     0.030 A 
HETATM    7  C   UNK     0     191.291 176.765 180.299  0.00  0.00     0.025 A 
HETATM    8  C   UNK     0     191.859 175.608 179.767  0.00  0.00     0.030 A 
HETATM    9  C   UNK     0     191.045 174.540 179.388  0.00  0.00     0.020 A 
BRANCH   7  10
HETATM   10  N   UNK     0     192.114 177.844 180.680  0.00  0.00    -0.399 N 
HETATM   11  H   UNK     0     192.281 178.605 180.036  0.00  0.00     0.156 HD
HETATM   12  H   UNK     0     192.539 177.857 181.598  0.00  0.00     0.156 HD
ENDBRANCH   7  10
ENDBRANCH   2   4
ENDBRANCH   1   2
BRANCH   1  13
HETATM   13  C   UNK     0     186.755 173.500 177.939  0.00  0.00     0.174 C 
HETATM   14  C   UNK     0     187.208 174.347 176.770  0.00  0.00     0.034 C 
ENDBRANCH   1  13
TORSDOF 4
ENDMDL
