MODEL 1
REMARK VINA RESULT:   -10.996      0.000      0.000
REMARK INTER + INTRA:         -27.482
REMARK INTER:                 -23.531
REMARK INTRA:                  -3.950
REMARK UNBOUND:                -3.950
REMARK  26 active torsions:
REMARK  status: ('A' for Active; 'I' for Inactive)
REMARK    1  A    between atoms: O_2  and  C_29 
REMARK    2  A    between atoms: O_2  and  C_23 
REMARK    3  A    between atoms: O_3  and  C_24 
REMARK    4  A    between atoms: O_3  and  C_30 
REMARK    5  A    between atoms: O_4  and  C_26 
REMARK    6  A    between atoms: O_5  and  C_31 
REMARK    7  A    between atoms: O_5  and  C_27 
REMARK    8  A    between atoms: O_6  and  C_28 
REMARK    9  A    between atoms: O_6  and  C_34 
REMARK   10  A    between atoms: O_11  and  C_43 
REMARK   11  A    between atoms: O_12  and  C_44 
REMARK   12  A    between atoms: O_13  and  C_45 
REMARK   13  A    between atoms: O_14  and  C_46 
REMARK   14  A    between atoms: O_15  and  C_49 
REMARK   15  A    between atoms: O_16  and  C_50 
REMARK   16  A    between atoms: O_17  and  C_51 
REMARK   17  A    between atoms: O_18  and  C_52 
REMARK   18  A    between atoms: O_19  and  C_53 
REMARK   19  A    between atoms: O_20  and  C_54 
REMARK   20  A    between atoms: O_21  and  C_55 
REMARK   21  A    between atoms: O_22  and  C_56 
REMARK   22  A    between atoms: C_25  and  C_28 
REMARK   23  A    between atoms: C_29  and  C_32 
REMARK   24  A    between atoms: C_30  and  C_33 
REMARK   25  A    between atoms: C_31  and  C_35 
REMARK   26  A    between atoms: C_34  and  C_36 
ROOT
HETATM    1  O   UNL     1      83.844  89.552 112.597  1.00  0.00    -0.348 OA
HETATM    2  C   UNL     1      81.565  90.297 112.886  1.00  0.00     0.195 C 
HETATM    3  C   UNL     1      81.774  91.381 111.818  1.00  0.00     0.198 C 
HETATM    4  C   UNL     1      82.914  90.029 113.576  1.00  0.00     0.181 C 
HETATM    5  C   UNL     1      82.944  91.049 110.870  1.00  0.00     0.206 C 
HETATM    6  C   UNL     1      84.191  90.565 111.649  1.00  0.00     0.301 C 
ENDROOT
BRANCH   4   7
HETATM    7  C   UNL     1      82.761  89.010 114.717  1.00  0.00     0.213 C 
BRANCH   7   8
HETATM    8  O   UNL     1      83.773  87.995 114.639  1.00  0.00    -0.315 OA
BRANCH   8   9
HETATM    9  C   UNL     1      84.832  88.191 115.468  1.00  0.00     0.293 C 
HETATM   10  O   UNL     1      85.114  89.222 116.057  1.00  0.00    -0.259 OA
BRANCH   9  11
HETATM   11  C   UNL     1      85.623  86.947 115.567  1.00  0.00     0.045 A 
HETATM   12  C   UNL     1      86.696  86.695 114.695  1.00  0.00     0.057 A 
HETATM   13  C   UNL     1      87.444  85.535 114.865  1.00  0.00     0.102 A 
HETATM   14  C   UNL     1      87.124  84.637 115.878  1.00  0.00     0.132 A 
HETATM   15  C   UNL     1      86.059  84.891 116.732  1.00  0.00     0.102 A 
HETATM   16  C   UNL     1      85.305  86.046 116.593  1.00  0.00     0.057 A 
BRANCH  13  17
HETATM   17  O   UNL     1      88.515  85.237 114.068  1.00  0.00    -0.358 OA
HETATM   18  H   UNL     1      89.008  86.057 113.888  1.00  0.00     0.217 HD
ENDBRANCH  13  17
BRANCH  14  19
HETATM   19  O   UNL     1      87.860  83.496 116.055  1.00  0.00    -0.356 OA
HETATM   20  H   UNL     1      88.025  83.170 115.147  1.00  0.00     0.218 HD
ENDBRANCH  14  19
BRANCH  15  21
HETATM   21  O   UNL     1      85.750  84.007 117.724  1.00  0.00    -0.358 OA
HETATM   22  H   UNL     1      86.613  83.753 118.111  1.00  0.00     0.217 HD
ENDBRANCH  15  21
ENDBRANCH   9  11
ENDBRANCH   8   9
ENDBRANCH   7   8
ENDBRANCH   4   7
BRANCH   2  23
HETATM   23  O   UNL     1      80.633  90.759 113.894  1.00  0.00    -0.307 OA
BRANCH  23  24
HETATM   24  C   UNL     1      79.327  90.441 114.055  1.00  0.00     0.294 C 
HETATM   25  O   UNL     1      79.008  89.327 114.456  1.00  0.00    -0.259 OA
BRANCH  24  26
HETATM   26  C   UNL     1      78.263  91.437 113.795  1.00  0.00     0.045 A 
HETATM   27  C   UNL     1      78.153  92.630 114.526  1.00  0.00     0.057 A 
HETATM   28  C   UNL     1      77.104  93.503 114.256  1.00  0.00     0.102 A 
HETATM   29  C   UNL     1      76.226  93.237 113.213  1.00  0.00     0.132 A 
HETATM   30  C   UNL     1      76.384  92.097 112.437  1.00  0.00     0.102 A 
HETATM   31  C   UNL     1      77.399  91.193 112.717  1.00  0.00     0.057 A 
BRANCH  28  32
HETATM   32  O   UNL     1      76.895  94.634 114.991  1.00  0.00    -0.358 OA
HETATM   33  H   UNL     1      76.101  95.090 114.657  1.00  0.00     0.217 HD
ENDBRANCH  28  32
BRANCH  29  34
HETATM   34  O   UNL     1      75.198  94.096 112.934  1.00  0.00    -0.356 OA
HETATM   35  H   UNL     1      74.396  93.534 112.974  1.00  0.00     0.218 HD
ENDBRANCH  29  34
BRANCH  30  36
HETATM   36  O   UNL     1      75.540  91.856 111.395  1.00  0.00    -0.358 OA
HETATM   37  H   UNL     1      75.936  92.327 110.635  1.00  0.00     0.217 HD
ENDBRANCH  30  36
ENDBRANCH  24  26
ENDBRANCH  23  24
ENDBRANCH   2  23
BRANCH   6  38
HETATM   38  O   UNL     1      85.100  90.002 110.678  1.00  0.00    -0.283 OA
BRANCH  38  39
HETATM   39  C   UNL     1      86.436  89.866 110.827  1.00  0.00     0.295 C 
HETATM   40  O   UNL     1      87.191  90.831 110.821  1.00  0.00    -0.259 OA
BRANCH  39  41
HETATM   41  C   UNL     1      87.015  88.510 110.847  1.00  0.00     0.045 A 
HETATM   42  C   UNL     1      86.201  87.374 110.965  1.00  0.00     0.057 A 
HETATM   43  C   UNL     1      86.792  86.116 110.941  1.00  0.00     0.102 A 
HETATM   44  C   UNL     1      88.176  85.995 110.883  1.00  0.00     0.132 A 
HETATM   45  C   UNL     1      88.980  87.128 110.843  1.00  0.00     0.102 A 
HETATM   46  C   UNL     1      88.412  88.393 110.818  1.00  0.00     0.057 A 
BRANCH  43  47
HETATM   47  O   UNL     1      86.051  84.969 110.963  1.00  0.00    -0.358 OA
HETATM   48  H   UNL     1      86.255  84.481 111.781  1.00  0.00     0.217 HD
ENDBRANCH  43  47
BRANCH  44  49
HETATM   49  O   UNL     1      88.766  84.761 110.868  1.00  0.00    -0.356 OA
HETATM   50  H   UNL     1      88.677  84.437 111.789  1.00  0.00     0.218 HD
ENDBRANCH  44  49
BRANCH  45  51
HETATM   51  O   UNL     1      90.338  87.002 110.831  1.00  0.00    -0.358 OA
HETATM   52  H   UNL     1      90.668  87.860 110.494  1.00  0.00     0.217 HD
ENDBRANCH  45  51
ENDBRANCH  39  41
ENDBRANCH  38  39
ENDBRANCH   6  38
BRANCH   3  53
HETATM   53  O   UNL     1      80.546  91.701 111.101  1.00  0.00    -0.306 OA
BRANCH  53  54
HETATM   54  C   UNL     1      80.125  92.986 111.049  1.00  0.00     0.294 C 
HETATM   55  O   UNL     1      80.319  93.838 111.897  1.00  0.00    -0.259 OA
BRANCH  54  56
HETATM   56  C   UNL     1      79.318  93.215 109.833  1.00  0.00     0.045 A 
HETATM   57  C   UNL     1      79.389  94.475 109.217  1.00  0.00     0.057 A 
HETATM   58  C   UNL     1      78.674  94.698 108.046  1.00  0.00     0.102 A 
HETATM   59  C   UNL     1      77.923  93.673 107.480  1.00  0.00     0.132 A 
HETATM   60  C   UNL     1      77.863  92.427 108.091  1.00  0.00     0.102 A 
HETATM   61  C   UNL     1      78.542  92.188 109.278  1.00  0.00     0.057 A 
BRANCH  58  62
HETATM   62  O   UNL     1      78.681  95.907 107.409  1.00  0.00    -0.358 OA
HETATM   63  H   UNL     1      78.279  95.800 106.529  1.00  0.00     0.217 HD
ENDBRANCH  58  62
BRANCH  59  64
HETATM   64  O   UNL     1      77.237  93.875 106.313  1.00  0.00    -0.356 OA
HETATM   65  H   UNL     1      77.461  94.792 106.054  1.00  0.00     0.218 HD
ENDBRANCH  59  64
BRANCH  60  66
HETATM   66  O   UNL     1      77.142  91.419 107.522  1.00  0.00    -0.358 OA
HETATM   67  H   UNL     1      77.515  91.323 106.621  1.00  0.00     0.217 HD
ENDBRANCH  60  66
ENDBRANCH  54  56
ENDBRANCH  53  54
ENDBRANCH   3  53
BRANCH   5  68
HETATM   68  O   UNL     1      83.262  92.223 110.101  1.00  0.00    -0.388 OA
HETATM   69  H   UNL     1      82.411  92.620 109.836  1.00  0.00     0.210 HD
ENDBRANCH   5  68
TORSDOF 26
ENDMDL
MODEL 2
REMARK VINA RESULT:   -10.968      2.463      4.828
REMARK INTER + INTRA:         -27.422
REMARK INTER:                 -22.346
REMARK INTRA:                  -5.075
REMARK UNBOUND:                -3.950
REMARK  26 active torsions:
REMARK  status: ('A' for Active; 'I' for Inactive)
REMARK    1  A    between atoms: O_2  and  C_29 
REMARK    2  A    between atoms: O_2  and  C_23 
REMARK    3  A    between atoms: O_3  and  C_24 
REMARK    4  A    between atoms: O_3  and  C_30 
REMARK    5  A    between atoms: O_4  and  C_26 
REMARK    6  A    between atoms: O_5  and  C_31 
REMARK    7  A    between atoms: O_5  and  C_27 
REMARK    8  A    between atoms: O_6  and  C_28 
REMARK    9  A    between atoms: O_6  and  C_34 
REMARK   10  A    between atoms: O_11  and  C_43 
REMARK   11  A    between atoms: O_12  and  C_44 
REMARK   12  A    between atoms: O_13  and  C_45 
REMARK   13  A    between atoms: O_14  and  C_46 
REMARK   14  A    between atoms: O_15  and  C_49 
REMARK   15  A    between atoms: O_16  and  C_50 
REMARK   16  A    between atoms: O_17  and  C_51 
REMARK   17  A    between atoms: O_18  and  C_52 
REMARK   18  A    between atoms: O_19  and  C_53 
REMARK   19  A    between atoms: O_20  and  C_54 
REMARK   20  A    between atoms: O_21  and  C_55 
REMARK   21  A    between atoms: O_22  and  C_56 
REMARK   22  A    between atoms: C_25  and  C_28 
REMARK   23  A    between atoms: C_29  and  C_32 
REMARK   24  A    between atoms: C_30  and  C_33 
REMARK   25  A    between atoms: C_31  and  C_35 
REMARK   26  A    between atoms: C_34  and  C_36 
ROOT
HETATM    1  O   UNL     1      84.694  91.937 112.392  1.00  0.00    -0.348 OA
HETATM    2  C   UNL     1      82.512  92.281 113.368  1.00  0.00     0.195 C 
HETATM    3  C   UNL     1      81.847  91.937 112.027  1.00  0.00     0.198 C 
HETATM    4  C   UNL     1      83.891  92.902 113.081  1.00  0.00     0.181 C 
HETATM    5  C   UNL     1      82.769  91.100 111.116  1.00  0.00     0.206 C 
HETATM    6  C   UNL     1      84.205  91.676 111.073  1.00  0.00     0.301 C 
ENDROOT
BRANCH   4   7
HETATM    7  C   UNL     1      84.581  93.348 114.380  1.00  0.00     0.213 C 
BRANCH   7   8
HETATM    8  O   UNL     1      85.819  92.648 114.573  1.00  0.00    -0.315 OA
BRANCH   8   9
HETATM    9  C   UNL     1      86.185  92.503 115.873  1.00  0.00     0.293 C 
HETATM   10  O   UNL     1      86.835  93.291 116.540  1.00  0.00    -0.259 OA
BRANCH   9  11
HETATM   11  C   UNL     1      85.672  91.218 116.393  1.00  0.00     0.045 A 
HETATM   12  C   UNL     1      85.139  90.244 115.531  1.00  0.00     0.057 A 
HETATM   13  C   UNL     1      84.721  89.029 116.063  1.00  0.00     0.102 A 
HETATM   14  C   UNL     1      84.820  88.792 117.430  1.00  0.00     0.132 A 
HETATM   15  C   UNL     1      85.343  89.761 118.276  1.00  0.00     0.102 A 
HETATM   16  C   UNL     1      85.780  90.975 117.770  1.00  0.00     0.057 A 
BRANCH  13  17
HETATM   17  O   UNL     1      84.214  88.029 115.281  1.00  0.00    -0.358 OA
HETATM   18  H   UNL     1      83.346  88.309 114.938  1.00  0.00     0.217 HD
ENDBRANCH  13  17
BRANCH  14  19
HETATM   19  O   UNL     1      84.415  87.597 117.960  1.00  0.00    -0.356 OA
HETATM   20  H   UNL     1      83.546  87.428 117.542  1.00  0.00     0.218 HD
ENDBRANCH  14  19
BRANCH  15  21
HETATM   21  O   UNL     1      85.439  89.523 119.616  1.00  0.00    -0.358 OA
HETATM   22  H   UNL     1      86.345  89.807 119.856  1.00  0.00     0.217 HD
ENDBRANCH  15  21
ENDBRANCH   9  11
ENDBRANCH   8   9
ENDBRANCH   7   8
ENDBRANCH   4   7
BRANCH   2  23
HETATM   23  O   UNL     1      81.723  93.264 114.082  1.00  0.00    -0.307 OA
BRANCH  23  24
HETATM   24  C   UNL     1      81.027  93.121 115.234  1.00  0.00     0.294 C 
HETATM   25  O   UNL     1      80.273  94.010 115.613  1.00  0.00    -0.259 OA
BRANCH  24  26
HETATM   26  C   UNL     1      81.125  91.879 116.035  1.00  0.00     0.045 A 
HETATM   27  C   UNL     1      80.628  90.649 115.581  1.00  0.00     0.057 A 
HETATM   28  C   UNL     1      80.718  89.530 116.402  1.00  0.00     0.102 A 
HETATM   29  C   UNL     1      81.373  89.612 117.625  1.00  0.00     0.132 A 
HETATM   30  C   UNL     1      81.937  90.811 118.037  1.00  0.00     0.102 A 
HETATM   31  C   UNL     1      81.822  91.949 117.251  1.00  0.00     0.057 A 
BRANCH  28  32
HETATM   32  O   UNL     1      80.175  88.328 116.051  1.00  0.00    -0.358 OA
HETATM   33  H   UNL     1      80.890  87.676 115.933  1.00  0.00     0.217 HD
ENDBRANCH  28  32
BRANCH  29  34
HETATM   34  O   UNL     1      81.475  88.514 118.434  1.00  0.00    -0.356 OA
HETATM   35  H   UNL     1      81.830  88.866 119.276  1.00  0.00     0.218 HD
ENDBRANCH  29  34
BRANCH  30  36
HETATM   36  O   UNL     1      82.605  90.881 119.223  1.00  0.00    -0.358 OA
HETATM   37  H   UNL     1      83.136  91.701 119.166  1.00  0.00     0.217 HD
ENDBRANCH  30  36
ENDBRANCH  24  26
ENDBRANCH  23  24
ENDBRANCH   2  23
BRANCH   6  38
HETATM   38  O   UNL     1      85.042  90.671 110.457  1.00  0.00    -0.283 OA
BRANCH  38  39
HETATM   39  C   UNL     1      86.214  90.207 110.944  1.00  0.00     0.295 C 
HETATM   40  O   UNL     1      87.184  90.938 111.106  1.00  0.00    -0.259 OA
BRANCH  39  41
HETATM   41  C   UNL     1      86.375  88.755 111.146  1.00  0.00     0.045 A 
HETATM   42  C   UNL     1      86.161  88.168 112.401  1.00  0.00     0.057 A 
HETATM   43  C   UNL     1      86.289  86.790 112.531  1.00  0.00     0.102 A 
HETATM   44  C   UNL     1      86.701  86.021 111.448  1.00  0.00     0.132 A 
HETATM   45  C   UNL     1      86.985  86.621 110.227  1.00  0.00     0.102 A 
HETATM   46  C   UNL     1      86.819  87.988 110.060  1.00  0.00     0.057 A 
BRANCH  43  47
HETATM   47  O   UNL     1      86.010  86.146 113.702  1.00  0.00    -0.358 OA
HETATM   48  H   UNL     1      86.523  85.318 113.734  1.00  0.00     0.217 HD
ENDBRANCH  43  47
BRANCH  44  49
HETATM   49  O   UNL     1      86.838  84.666 111.570  1.00  0.00    -0.356 OA
HETATM   50  H   UNL     1      87.715  84.472 111.179  1.00  0.00     0.218 HD
ENDBRANCH  44  49
BRANCH  45  51
HETATM   51  O   UNL     1      87.431  85.867 109.181  1.00  0.00    -0.358 OA
HETATM   52  H   UNL     1      87.000  84.995 109.297  1.00  0.00     0.217 HD
ENDBRANCH  45  51
ENDBRANCH  39  41
ENDBRANCH  38  39
ENDBRANCH   6  38
BRANCH   3  53
HETATM   53  O   UNL     1      80.532  91.334 112.196  1.00  0.00    -0.306 OA
BRANCH  53  54
HETATM   54  C   UNL     1      79.508  91.750 111.415  1.00  0.00     0.294 C 
HETATM   55  O   UNL     1      79.541  91.893 110.207  1.00  0.00    -0.259 OA
BRANCH  54  56
HETATM   56  C   UNL     1      78.331  92.085 112.244  1.00  0.00     0.045 A 
HETATM   57  C   UNL     1      77.250  91.187 112.255  1.00  0.00     0.057 A 
HETATM   58  C   UNL     1      76.152  91.459 113.063  1.00  0.00     0.102 A 
HETATM   59  C   UNL     1      76.143  92.592 113.871  1.00  0.00     0.132 A 
HETATM   60  C   UNL     1      77.218  93.471 113.861  1.00  0.00     0.102 A 
HETATM   61  C   UNL     1      78.313  93.239 113.039  1.00  0.00     0.057 A 
BRANCH  58  62
HETATM   62  O   UNL     1      75.058  90.641 113.103  1.00  0.00    -0.358 OA
HETATM   63  H   UNL     1      75.176  89.928 112.451  1.00  0.00     0.217 HD
ENDBRANCH  58  62
BRANCH  59  64
HETATM   64  O   UNL     1      75.078  92.853 114.690  1.00  0.00    -0.356 OA
HETATM   65  H   UNL     1      74.700  91.972 114.887  1.00  0.00     0.218 HD
ENDBRANCH  59  64
BRANCH  60  66
HETATM   66  O   UNL     1      77.214  94.568 114.670  1.00  0.00    -0.358 OA
HETATM   67  H   UNL     1      77.598  94.256 115.516  1.00  0.00     0.217 HD
ENDBRANCH  60  66
ENDBRANCH  54  56
ENDBRANCH  53  54
ENDBRANCH   3  53
BRANCH   5  68
HETATM   68  O   UNL     1      82.205  91.070 109.792  1.00  0.00    -0.388 OA
HETATM   69  H   UNL     1      82.520  90.246 109.376  1.00  0.00     0.210 HD
ENDBRANCH   5  68
TORSDOF 26
ENDMDL
MODEL 3
REMARK VINA RESULT:   -10.897      1.288     11.536
REMARK INTER + INTRA:         -27.269
REMARK INTER:                 -23.368
REMARK INTRA:                  -3.901
REMARK UNBOUND:                -3.950
REMARK  26 active torsions:
REMARK  status: ('A' for Active; 'I' for Inactive)
REMARK    1  A    between atoms: O_2  and  C_29 
REMARK    2  A    between atoms: O_2  and  C_23 
REMARK    3  A    between atoms: O_3  and  C_24 
REMARK    4  A    between atoms: O_3  and  C_30 
REMARK    5  A    between atoms: O_4  and  C_26 
REMARK    6  A    between atoms: O_5  and  C_31 
REMARK    7  A    between atoms: O_5  and  C_27 
REMARK    8  A    between atoms: O_6  and  C_28 
REMARK    9  A    between atoms: O_6  and  C_34 
REMARK   10  A    between atoms: O_11  and  C_43 
REMARK   11  A    between atoms: O_12  and  C_44 
REMARK   12  A    between atoms: O_13  and  C_45 
REMARK   13  A    between atoms: O_14  and  C_46 
REMARK   14  A    between atoms: O_15  and  C_49 
REMARK   15  A    between atoms: O_16  and  C_50 
REMARK   16  A    between atoms: O_17  and  C_51 
REMARK   17  A    between atoms: O_18  and  C_52 
REMARK   18  A    between atoms: O_19  and  C_53 
REMARK   19  A    between atoms: O_20  and  C_54 
REMARK   20  A    between atoms: O_21  and  C_55 
REMARK   21  A    between atoms: O_22  and  C_56 
REMARK   22  A    between atoms: C_25  and  C_28 
REMARK   23  A    between atoms: C_29  and  C_32 
REMARK   24  A    between atoms: C_30  and  C_33 
REMARK   25  A    between atoms: C_31  and  C_35 
REMARK   26  A    between atoms: C_34  and  C_36 
ROOT
HETATM    1  O   UNL     1      82.144  91.074 113.319  1.00  0.00    -0.348 OA
HETATM    2  C   UNL     1      84.187  89.910 112.771  1.00  0.00     0.195 C 
HETATM    3  C   UNL     1      84.242  89.319 114.188  1.00  0.00     0.198 C 
HETATM    4  C   UNL     1      83.479  91.274 112.841  1.00  0.00     0.181 C 
HETATM    5  C   UNL     1      82.857  89.308 114.869  1.00  0.00     0.206 C 
HETATM    6  C   UNL     1      82.121  90.656 114.686  1.00  0.00     0.301 C 
ENDROOT
BRANCH   4   7
HETATM    7  C   UNL     1      83.463  91.963 111.467  1.00  0.00     0.213 C 
BRANCH   7   8
HETATM    8  O   UNL     1      82.124  92.306 111.079  1.00  0.00    -0.315 OA
BRANCH   8   9
HETATM    9  C   UNL     1      81.882  93.642 111.017  1.00  0.00     0.293 C 
HETATM   10  O   UNL     1      82.543  94.526 111.535  1.00  0.00    -0.259 OA
BRANCH   9  11
HETATM   11  C   UNL     1      80.670  93.891 110.208  1.00  0.00     0.045 A 
HETATM   12  C   UNL     1      80.340  95.186 109.771  1.00  0.00     0.057 A 
HETATM   13  C   UNL     1      79.220  95.359 108.965  1.00  0.00     0.102 A 
HETATM   14  C   UNL     1      78.436  94.266 108.610  1.00  0.00     0.132 A 
HETATM   15  C   UNL     1      78.767  92.991 109.050  1.00  0.00     0.102 A 
HETATM   16  C   UNL     1      79.886  92.788 109.843  1.00  0.00     0.057 A 
BRANCH  13  17
HETATM   17  O   UNL     1      78.853  96.586 108.485  1.00  0.00    -0.358 OA
HETATM   18  H   UNL     1      79.551  96.911 107.890  1.00  0.00     0.217 HD
ENDBRANCH  13  17
BRANCH  14  19
HETATM   19  O   UNL     1      77.335  94.429 107.813  1.00  0.00    -0.356 OA
HETATM   20  H   UNL     1      77.210  93.556 107.389  1.00  0.00     0.218 HD
ENDBRANCH  14  19
BRANCH  15  21
HETATM   21  O   UNL     1      77.995  91.923 108.698  1.00  0.00    -0.358 OA
HETATM   22  H   UNL     1      78.347  91.175 109.224  1.00  0.00     0.217 HD
ENDBRANCH  15  21
ENDBRANCH   9  11
ENDBRANCH   8   9
ENDBRANCH   7   8
ENDBRANCH   4   7
BRANCH   2  23
HETATM   23  O   UNL     1      85.528  90.131 112.268  1.00  0.00    -0.307 OA
BRANCH  23  24
HETATM   24  C   UNL     1      86.087  89.689 111.116  1.00  0.00     0.294 C 
HETATM   25  O   UNL     1      86.083  90.399 110.117  1.00  0.00    -0.259 OA
BRANCH  24  26
HETATM   26  C   UNL     1      86.751  88.367 111.049  1.00  0.00     0.045 A 
HETATM   27  C   UNL     1      86.033  87.169 110.924  1.00  0.00     0.057 A 
HETATM   28  C   UNL     1      86.720  85.960 110.906  1.00  0.00     0.102 A 
HETATM   29  C   UNL     1      88.109  85.945 110.926  1.00  0.00     0.132 A 
HETATM   30  C   UNL     1      88.821  87.135 110.968  1.00  0.00     0.102 A 
HETATM   31  C   UNL     1      88.154  88.351 111.027  1.00  0.00     0.057 A 
BRANCH  28  32
HETATM   32  O   UNL     1      86.071  84.758 110.874  1.00  0.00    -0.358 OA
HETATM   33  H   UNL     1      86.702  84.049 111.094  1.00  0.00     0.217 HD
ENDBRANCH  28  32
BRANCH  29  34
HETATM   34  O   UNL     1      88.792  84.759 110.899  1.00  0.00    -0.356 OA
HETATM   35  H   UNL     1      88.092  84.077 110.960  1.00  0.00     0.218 HD
ENDBRANCH  29  34
BRANCH  30  36
HETATM   36  O   UNL     1      90.184  87.118 110.956  1.00  0.00    -0.358 OA
HETATM   37  H   UNL     1      90.450  87.916 111.456  1.00  0.00     0.217 HD
ENDBRANCH  30  36
ENDBRANCH  24  26
ENDBRANCH  23  24
ENDBRANCH   2  23
BRANCH   6  38
HETATM   38  O   UNL     1      80.748  90.441 115.084  1.00  0.00    -0.283 OA
BRANCH  38  39
HETATM   39  C   UNL     1      79.827  91.404 115.311  1.00  0.00     0.295 C 
HETATM   40  O   UNL     1      79.923  92.184 116.250  1.00  0.00    -0.259 OA
BRANCH  39  41
HETATM   41  C   UNL     1      78.599  91.420 114.494  1.00  0.00     0.045 A 
HETATM   42  C   UNL     1      77.391  91.911 115.009  1.00  0.00     0.057 A 
HETATM   43  C   UNL     1      76.271  91.940 114.187  1.00  0.00     0.102 A 
HETATM   44  C   UNL     1      76.334  91.415 112.901  1.00  0.00     0.132 A 
HETATM   45  C   UNL     1      77.516  90.860 112.424  1.00  0.00     0.102 A 
HETATM   46  C   UNL     1      78.660  90.863 113.209  1.00  0.00     0.057 A 
BRANCH  43  47
HETATM   47  O   UNL     1      75.087  92.484 114.597  1.00  0.00    -0.358 OA
HETATM   48  H   UNL     1      75.100  93.440 114.408  1.00  0.00     0.217 HD
ENDBRANCH  43  47
BRANCH  44  49
HETATM   49  O   UNL     1      75.233  91.431 112.089  1.00  0.00    -0.356 OA
HETATM   50  H   UNL     1      74.740  90.619 112.329  1.00  0.00     0.218 HD
ENDBRANCH  44  49
BRANCH  45  51
HETATM   51  O   UNL     1      77.558  90.308 111.178  1.00  0.00    -0.358 OA
HETATM   52  H   UNL     1      76.755  89.752 111.121  1.00  0.00     0.217 HD
ENDBRANCH  45  51
ENDBRANCH  39  41
ENDBRANCH  38  39
ENDBRANCH   6  38
BRANCH   3  53
HETATM   53  O   UNL     1      84.893  88.016 114.223  1.00  0.00    -0.306 OA
BRANCH  53  54
HETATM   54  C   UNL     1      86.117  87.902 114.789  1.00  0.00     0.294 C 
HETATM   55  O   UNL     1      86.950  88.786 114.877  1.00  0.00    -0.259 OA
BRANCH  54  56
HETATM   56  C   UNL     1      86.350  86.515 115.239  1.00  0.00     0.045 A 
HETATM   57  C   UNL     1      87.244  85.719 114.503  1.00  0.00     0.057 A 
HETATM   58  C   UNL     1      87.514  84.426 114.935  1.00  0.00     0.102 A 
HETATM   59  C   UNL     1      86.925  83.941 116.099  1.00  0.00     0.132 A 
HETATM   60  C   UNL     1      86.047  84.736 116.825  1.00  0.00     0.102 A 
HETATM   61  C   UNL     1      85.737  86.019 116.398  1.00  0.00     0.057 A 
BRANCH  58  62
HETATM   62  O   UNL     1      88.355  83.592 114.253  1.00  0.00    -0.358 OA
HETATM   63  H   UNL     1      87.965  82.701 114.235  1.00  0.00     0.217 HD
ENDBRANCH  58  62
BRANCH  59  64
HETATM   64  O   UNL     1      87.205  82.678 116.546  1.00  0.00    -0.356 OA
HETATM   65  H   UNL     1      87.443  82.181 115.737  1.00  0.00     0.218 HD
ENDBRANCH  59  64
BRANCH  60  66
HETATM   66  O   UNL     1      85.490  84.264 117.977  1.00  0.00    -0.358 OA
HETATM   67  H   UNL     1      85.855  84.835 118.683  1.00  0.00     0.217 HD
ENDBRANCH  60  66
ENDBRANCH  54  56
ENDBRANCH  53  54
ENDBRANCH   3  53
BRANCH   5  68
HETATM   68  O   UNL     1      83.035  89.023 116.268  1.00  0.00    -0.388 OA
HETATM   69  H   UNL     1      83.307  88.088 116.328  1.00  0.00     0.210 HD
ENDBRANCH   5  68
TORSDOF 26
ENDMDL
MODEL 4
REMARK VINA RESULT:   -10.893      2.219      7.960
REMARK INTER + INTRA:         -27.260
REMARK INTER:                 -22.721
REMARK INTRA:                  -4.539
REMARK UNBOUND:                -3.950
REMARK  26 active torsions:
REMARK  status: ('A' for Active; 'I' for Inactive)
REMARK    1  A    between atoms: O_2  and  C_29 
REMARK    2  A    between atoms: O_2  and  C_23 
REMARK    3  A    between atoms: O_3  and  C_24 
REMARK    4  A    between atoms: O_3  and  C_30 
REMARK    5  A    between atoms: O_4  and  C_26 
REMARK    6  A    between atoms: O_5  and  C_31 
REMARK    7  A    between atoms: O_5  and  C_27 
REMARK    8  A    between atoms: O_6  and  C_28 
REMARK    9  A    between atoms: O_6  and  C_34 
REMARK   10  A    between atoms: O_11  and  C_43 
REMARK   11  A    between atoms: O_12  and  C_44 
REMARK   12  A    between atoms: O_13  and  C_45 
REMARK   13  A    between atoms: O_14  and  C_46 
REMARK   14  A    between atoms: O_15  and  C_49 
REMARK   15  A    between atoms: O_16  and  C_50 
REMARK   16  A    between atoms: O_17  and  C_51 
REMARK   17  A    between atoms: O_18  and  C_52 
REMARK   18  A    between atoms: O_19  and  C_53 
REMARK   19  A    between atoms: O_20  and  C_54 
REMARK   20  A    between atoms: O_21  and  C_55 
REMARK   21  A    between atoms: O_22  and  C_56 
REMARK   22  A    between atoms: C_25  and  C_28 
REMARK   23  A    between atoms: C_29  and  C_32 
REMARK   24  A    between atoms: C_30  and  C_33 
REMARK   25  A    between atoms: C_31  and  C_35 
REMARK   26  A    between atoms: C_34  and  C_36 
ROOT
HETATM    1  O   UNL     1      82.230  92.522 111.450  1.00  0.00    -0.348 OA
HETATM    2  C   UNL     1      79.918  92.431 112.141  1.00  0.00     0.195 C 
HETATM    3  C   UNL     1      80.023  90.910 112.327  1.00  0.00     0.198 C 
HETATM    4  C   UNL     1      80.901  92.854 111.035  1.00  0.00     0.181 C 
HETATM    5  C   UNL     1      81.481  90.446 112.528  1.00  0.00     0.206 C 
HETATM    6  C   UNL     1      82.436  91.108 111.506  1.00  0.00     0.301 C 
ENDROOT
BRANCH   4   7
HETATM    7  C   UNL     1      80.788  94.358 110.737  1.00  0.00     0.213 C 
BRANCH   7   8
HETATM    8  O   UNL     1      80.351  94.584 109.388  1.00  0.00    -0.315 OA
BRANCH   8   9
HETATM    9  C   UNL     1      79.223  95.335 109.282  1.00  0.00     0.293 C 
HETATM   10  O   UNL     1      79.123  96.532 109.492  1.00  0.00    -0.259 OA
BRANCH   9  11
HETATM   11  C   UNL     1      78.094  94.479 108.862  1.00  0.00     0.045 A 
HETATM   12  C   UNL     1      78.313  93.214 108.287  1.00  0.00     0.057 A 
HETATM   13  C   UNL     1      77.217  92.424 107.960  1.00  0.00     0.102 A 
HETATM   14  C   UNL     1      75.926  92.887 108.190  1.00  0.00     0.132 A 
HETATM   15  C   UNL     1      75.718  94.139 108.753  1.00  0.00     0.102 A 
HETATM   16  C   UNL     1      76.793  94.942 109.101  1.00  0.00     0.057 A 
BRANCH  13  17
HETATM   17  O   UNL     1      77.356  91.176 107.419  1.00  0.00    -0.358 OA
HETATM   18  H   UNL     1      77.516  91.265 106.463  1.00  0.00     0.217 HD
ENDBRANCH  13  17
BRANCH  14  19
HETATM   19  O   UNL     1      74.842  92.112 107.874  1.00  0.00    -0.356 OA
HETATM   20  H   UNL     1      74.171  92.347 108.546  1.00  0.00     0.218 HD
ENDBRANCH  14  19
BRANCH  15  21
HETATM   21  O   UNL     1      74.449  94.589 108.976  1.00  0.00    -0.358 OA
HETATM   22  H   UNL     1      74.055  93.933 109.588  1.00  0.00     0.217 HD
ENDBRANCH  15  21
ENDBRANCH   9  11
ENDBRANCH   8   9
ENDBRANCH   7   8
ENDBRANCH   4   7
BRANCH   2  23
HETATM   23  O   UNL     1      78.583  92.793 111.712  1.00  0.00    -0.307 OA
BRANCH  23  24
HETATM   24  C   UNL     1      77.627  93.473 112.388  1.00  0.00     0.294 C 
HETATM   25  O   UNL     1      77.899  94.535 112.938  1.00  0.00    -0.259 OA
BRANCH  24  26
HETATM   26  C   UNL     1      76.233  92.979 112.442  1.00  0.00     0.045 A 
HETATM   27  C   UNL     1      75.744  92.007 111.556  1.00  0.00     0.057 A 
HETATM   28  C   UNL     1      74.411  91.617 111.637  1.00  0.00     0.102 A 
HETATM   29  C   UNL     1      73.596  92.122 112.642  1.00  0.00     0.132 A 
HETATM   30  C   UNL     1      74.103  93.022 113.569  1.00  0.00     0.102 A 
HETATM   31  C   UNL     1      75.419  93.455 113.480  1.00  0.00     0.057 A 
BRANCH  28  32
HETATM   32  O   UNL     1      73.857  90.742 110.748  1.00  0.00    -0.358 OA
HETATM   33  H   UNL     1      74.537  90.106 110.459  1.00  0.00     0.217 HD
ENDBRANCH  28  32
BRANCH  29  34
HETATM   34  O   UNL     1      72.287  91.736 112.735  1.00  0.00    -0.356 OA
HETATM   35  H   UNL     1      72.327  90.758 112.778  1.00  0.00     0.218 HD
ENDBRANCH  29  34
BRANCH  30  36
HETATM   36  O   UNL     1      73.309  93.491 114.572  1.00  0.00    -0.358 OA
HETATM   37  H   UNL     1      73.305  94.463 114.457  1.00  0.00     0.217 HD
ENDBRANCH  30  36
ENDBRANCH  24  26
ENDBRANCH  23  24
ENDBRANCH   2  23
BRANCH   6  38
HETATM   38  O   UNL     1      83.783  90.852 111.965  1.00  0.00    -0.283 OA
BRANCH  38  39
HETATM   39  C   UNL     1      84.807  90.400 111.208  1.00  0.00     0.295 C 
HETATM   40  O   UNL     1      85.254  91.049 110.269  1.00  0.00    -0.259 OA
BRANCH  39  41
HETATM   41  C   UNL     1      85.300  89.027 111.424  1.00  0.00     0.045 A 
HETATM   42  C   UNL     1      85.180  88.401 112.673  1.00  0.00     0.057 A 
HETATM   43  C   UNL     1      85.626  87.092 112.816  1.00  0.00     0.102 A 
HETATM   44  C   UNL     1      86.254  86.448 111.755  1.00  0.00     0.132 A 
HETATM   45  C   UNL     1      86.437  87.103 110.544  1.00  0.00     0.102 A 
HETATM   46  C   UNL     1      85.958  88.392 110.362  1.00  0.00     0.057 A 
BRANCH  43  47
HETATM   47  O   UNL     1      85.460  86.396 113.979  1.00  0.00    -0.358 OA
HETATM   48  H   UNL     1      85.880  85.522 113.883  1.00  0.00     0.217 HD
ENDBRANCH  43  47
BRANCH  44  49
HETATM   49  O   UNL     1      86.704  85.164 111.891  1.00  0.00    -0.356 OA
HETATM   50  H   UNL     1      86.558  84.759 111.010  1.00  0.00     0.218 HD
ENDBRANCH  44  49
BRANCH  45  51
HETATM   51  O   UNL     1      87.092  86.481 109.522  1.00  0.00    -0.358 OA
HETATM   52  H   UNL     1      88.015  86.800 109.583  1.00  0.00     0.217 HD
ENDBRANCH  45  51
ENDBRANCH  39  41
ENDBRANCH  38  39
ENDBRANCH   6  38
BRANCH   3  53
HETATM   53  O   UNL     1      79.130  90.413 113.366  1.00  0.00    -0.306 OA
BRANCH  53  54
HETATM   54  C   UNL     1      79.619  90.187 114.607  1.00  0.00     0.294 C 
HETATM   55  O   UNL     1      79.968  89.109 115.054  1.00  0.00    -0.259 OA
BRANCH  54  56
HETATM   56  C   UNL     1      79.613  91.435 115.398  1.00  0.00     0.045 A 
HETATM   57  C   UNL     1      80.795  91.806 116.062  1.00  0.00     0.057 A 
HETATM   58  C   UNL     1      80.825  92.999 116.774  1.00  0.00     0.102 A 
HETATM   59  C   UNL     1      79.706  93.825 116.801  1.00  0.00     0.132 A 
HETATM   60  C   UNL     1      78.544  93.455 116.137  1.00  0.00     0.102 A 
HETATM   61  C   UNL     1      78.477  92.254 115.445  1.00  0.00     0.057 A 
BRANCH  58  62
HETATM   62  O   UNL     1      81.934  93.408 117.460  1.00  0.00    -0.358 OA
HETATM   63  H   UNL     1      82.660  93.550 116.828  1.00  0.00     0.217 HD
ENDBRANCH  58  62
BRANCH  59  64
HETATM   64  O   UNL     1      79.736  95.015 117.478  1.00  0.00    -0.356 OA
HETATM   65  H   UNL     1      80.551  95.455 117.161  1.00  0.00     0.218 HD
ENDBRANCH  59  64
BRANCH  60  66
HETATM   66  O   UNL     1      77.456  94.278 116.149  1.00  0.00    -0.358 OA
HETATM   67  H   UNL     1      77.803  95.146 116.441  1.00  0.00     0.217 HD
ENDBRANCH  60  66
ENDBRANCH  54  56
ENDBRANCH  53  54
ENDBRANCH   3  53
BRANCH   5  68
HETATM   68  O   UNL     1      81.530  89.013 112.401  1.00  0.00    -0.388 OA
HETATM   69  H   UNL     1      81.678  88.661 113.298  1.00  0.00     0.210 HD
ENDBRANCH   5  68
TORSDOF 26
ENDMDL
MODEL 5
REMARK VINA RESULT:   -10.889      1.537      2.467
REMARK INTER + INTRA:         -27.253
REMARK INTER:                 -22.698
REMARK INTRA:                  -4.555
REMARK UNBOUND:                -3.950
REMARK  26 active torsions:
REMARK  status: ('A' for Active; 'I' for Inactive)
REMARK    1  A    between atoms: O_2  and  C_29 
REMARK    2  A    between atoms: O_2  and  C_23 
REMARK    3  A    between atoms: O_3  and  C_24 
REMARK    4  A    between atoms: O_3  and  C_30 
REMARK    5  A    between atoms: O_4  and  C_26 
REMARK    6  A    between atoms: O_5  and  C_31 
REMARK    7  A    between atoms: O_5  and  C_27 
REMARK    8  A    between atoms: O_6  and  C_28 
REMARK    9  A    between atoms: O_6  and  C_34 
REMARK   10  A    between atoms: O_11  and  C_43 
REMARK   11  A    between atoms: O_12  and  C_44 
REMARK   12  A    between atoms: O_13  and  C_45 
REMARK   13  A    between atoms: O_14  and  C_46 
REMARK   14  A    between atoms: O_15  and  C_49 
REMARK   15  A    between atoms: O_16  and  C_50 
REMARK   16  A    between atoms: O_17  and  C_51 
REMARK   17  A    between atoms: O_18  and  C_52 
REMARK   18  A    between atoms: O_19  and  C_53 
REMARK   19  A    between atoms: O_20  and  C_54 
REMARK   20  A    between atoms: O_21  and  C_55 
REMARK   21  A    between atoms: O_22  and  C_56 
REMARK   22  A    between atoms: C_25  and  C_28 
REMARK   23  A    between atoms: C_29  and  C_32 
REMARK   24  A    between atoms: C_30  and  C_33 
REMARK   25  A    between atoms: C_31  and  C_35 
REMARK   26  A    between atoms: C_34  and  C_36 
ROOT
HETATM    1  O   UNL     1      83.974  89.124 112.398  1.00  0.00    -0.348 OA
HETATM    2  C   UNL     1      81.643  89.688 112.682  1.00  0.00     0.195 C 
HETATM    3  C   UNL     1      81.817  90.910 111.767  1.00  0.00     0.198 C 
HETATM    4  C   UNL     1      82.982  89.416 113.389  1.00  0.00     0.181 C 
HETATM    5  C   UNL     1      83.038  90.771 110.835  1.00  0.00     0.206 C 
HETATM    6  C   UNL     1      84.286  90.269 111.600  1.00  0.00     0.301 C 
ENDROOT
BRANCH   4   7
HETATM    7  C   UNL     1      82.858  88.253 114.387  1.00  0.00     0.213 C 
BRANCH   7   8
HETATM    8  O   UNL     1      84.032  87.428 114.364  1.00  0.00    -0.315 OA
BRANCH   8   9
HETATM    9  C   UNL     1      84.873  87.619 115.415  1.00  0.00     0.293 C 
HETATM   10  O   UNL     1      84.845  88.543 116.211  1.00  0.00    -0.259 OA
BRANCH   9  11
HETATM   11  C   UNL     1      85.859  86.519 115.469  1.00  0.00     0.045 A 
HETATM   12  C   UNL     1      86.943  86.469 114.574  1.00  0.00     0.057 A 
HETATM   13  C   UNL     1      87.874  85.444 114.702  1.00  0.00     0.102 A 
HETATM   14  C   UNL     1      87.724  84.481 115.694  1.00  0.00     0.132 A 
HETATM   15  C   UNL     1      86.648  84.535 116.570  1.00  0.00     0.102 A 
HETATM   16  C   UNL     1      85.713  85.554 116.474  1.00  0.00     0.057 A 
BRANCH  13  17
HETATM   17  O   UNL     1      88.964  85.346 113.882  1.00  0.00    -0.358 OA
HETATM   18  H   UNL     1      89.745  85.137 114.425  1.00  0.00     0.217 HD
ENDBRANCH  13  17
BRANCH  14  19
HETATM   19  O   UNL     1      88.640  83.472 115.829  1.00  0.00    -0.356 OA
HETATM   20  H   UNL     1      88.193  82.813 116.398  1.00  0.00     0.218 HD
ENDBRANCH  14  19
BRANCH  15  21
HETATM   21  O   UNL     1      86.506  83.588 117.542  1.00  0.00    -0.358 OA
HETATM   22  H   UNL     1      85.959  82.888 117.130  1.00  0.00     0.217 HD
ENDBRANCH  15  21
ENDBRANCH   9  11
ENDBRANCH   8   9
ENDBRANCH   7   8
ENDBRANCH   4   7
BRANCH   2  23
HETATM   23  O   UNL     1      80.650  89.961 113.700  1.00  0.00    -0.307 OA
BRANCH  23  24
HETATM   24  C   UNL     1      80.500  91.067 114.467  1.00  0.00     0.294 C 
HETATM   25  O   UNL     1      81.446  91.499 115.117  1.00  0.00    -0.259 OA
BRANCH  24  26
HETATM   26  C   UNL     1      79.214  91.801 114.504  1.00  0.00     0.045 A 
HETATM   27  C   UNL     1      77.985  91.181 114.236  1.00  0.00     0.057 A 
HETATM   28  C   UNL     1      76.820  91.939 114.249  1.00  0.00     0.102 A 
HETATM   29  C   UNL     1      76.864  93.280 114.610  1.00  0.00     0.132 A 
HETATM   30  C   UNL     1      78.070  93.873 114.955  1.00  0.00     0.102 A 
HETATM   31  C   UNL     1      79.250  93.144 114.908  1.00  0.00     0.057 A 
BRANCH  28  32
HETATM   32  O   UNL     1      75.607  91.411 113.911  1.00  0.00    -0.358 OA
HETATM   33  H   UNL     1      75.582  91.260 112.948  1.00  0.00     0.217 HD
ENDBRANCH  28  32
BRANCH  29  34
HETATM   34  O   UNL     1      75.720  94.031 114.635  1.00  0.00    -0.356 OA
HETATM   35  H   UNL     1      76.021  94.936 114.412  1.00  0.00     0.218 HD
ENDBRANCH  29  34
BRANCH  30  36
HETATM   36  O   UNL     1      78.105  95.180 115.338  1.00  0.00    -0.358 OA
HETATM   37  H   UNL     1      78.980  95.506 115.046  1.00  0.00     0.217 HD
ENDBRANCH  30  36
ENDBRANCH  24  26
ENDBRANCH  23  24
ENDBRANCH   2  23
BRANCH   6  38
HETATM   38  O   UNL     1      85.263  89.889 110.604  1.00  0.00    -0.283 OA
BRANCH  38  39
HETATM   39  C   UNL     1      86.598  89.804 110.794  1.00  0.00     0.295 C 
HETATM   40  O   UNL     1      87.311  90.799 110.840  1.00  0.00    -0.259 OA
BRANCH  39  41
HETATM   41  C   UNL     1      87.233  88.472 110.797  1.00  0.00     0.045 A 
HETATM   42  C   UNL     1      88.623  88.330 110.676  1.00  0.00     0.057 A 
HETATM   43  C   UNL     1      89.176  87.056 110.722  1.00  0.00     0.102 A 
HETATM   44  C   UNL     1      88.351  85.939 110.805  1.00  0.00     0.132 A 
HETATM   45  C   UNL     1      86.970  86.085 110.847  1.00  0.00     0.102 A 
HETATM   46  C   UNL     1      86.397  87.348 110.851  1.00  0.00     0.057 A 
BRANCH  43  47
HETATM   47  O   UNL     1      90.526  86.853 110.699  1.00  0.00    -0.358 OA
HETATM   48  H   UNL     1      90.915  87.419 110.007  1.00  0.00     0.217 HD
ENDBRANCH  43  47
BRANCH  44  49
HETATM   49  O   UNL     1      88.888  84.681 110.842  1.00  0.00    -0.356 OA
HETATM   50  H   UNL     1      88.134  84.101 111.076  1.00  0.00     0.218 HD
ENDBRANCH  44  49
BRANCH  45  51
HETATM   51  O   UNL     1      86.167  84.984 110.885  1.00  0.00    -0.358 OA
HETATM   52  H   UNL     1      86.670  84.321 111.400  1.00  0.00     0.217 HD
ENDBRANCH  45  51
ENDBRANCH  39  41
ENDBRANCH  38  39
ENDBRANCH   6  38
BRANCH   3  53
HETATM   53  O   UNL     1      80.596  91.243 111.045  1.00  0.00    -0.306 OA
BRANCH  53  54
HETATM   54  C   UNL     1      80.179  92.530 111.008  1.00  0.00     0.294 C 
HETATM   55  O   UNL     1      80.883  93.515 111.142  1.00  0.00    -0.259 OA
BRANCH  54  56
HETATM   56  C   UNL     1      78.711  92.591 110.851  1.00  0.00     0.045 A 
HETATM   57  C   UNL     1      78.046  91.446 110.382  1.00  0.00     0.057 A 
HETATM   58  C   UNL     1      76.660  91.466 110.270  1.00  0.00     0.102 A 
HETATM   59  C   UNL     1      75.945  92.599 110.647  1.00  0.00     0.132 A 
HETATM   60  C   UNL     1      76.610  93.725 111.116  1.00  0.00     0.102 A 
HETATM   61  C   UNL     1      77.995  93.742 111.208  1.00  0.00     0.057 A 
BRANCH  58  62
HETATM   62  O   UNL     1      75.953  90.396 109.800  1.00  0.00    -0.358 OA
HETATM   63  H   UNL     1      75.530  89.946 110.551  1.00  0.00     0.217 HD
ENDBRANCH  58  62
BRANCH  59  64
HETATM   64  O   UNL     1      74.579  92.619 110.565  1.00  0.00    -0.356 OA
HETATM   65  H   UNL     1      74.361  93.551 110.362  1.00  0.00     0.218 HD
ENDBRANCH  59  64
BRANCH  60  66
HETATM   66  O   UNL     1      75.904  94.825 111.505  1.00  0.00    -0.358 OA
HETATM   67  H   UNL     1      75.776  94.712 112.469  1.00  0.00     0.217 HD
ENDBRANCH  60  66
ENDBRANCH  54  56
ENDBRANCH  53  54
ENDBRANCH   3  53
BRANCH   5  68
HETATM   68  O   UNL     1      83.305  92.051 110.232  1.00  0.00    -0.388 OA
HETATM   69  H   UNL     1      82.757  92.097 109.427  1.00  0.00     0.210 HD
ENDBRANCH   5  68
TORSDOF 26
ENDMDL
MODEL 6
REMARK VINA RESULT:   -10.842      1.413      1.879
REMARK INTER + INTRA:         -27.153
REMARK INTER:                 -22.724
REMARK INTRA:                  -4.429
REMARK UNBOUND:                -3.950
REMARK  26 active torsions:
REMARK  status: ('A' for Active; 'I' for Inactive)
REMARK    1  A    between atoms: O_2  and  C_29 
REMARK    2  A    between atoms: O_2  and  C_23 
REMARK    3  A    between atoms: O_3  and  C_24 
REMARK    4  A    between atoms: O_3  and  C_30 
REMARK    5  A    between atoms: O_4  and  C_26 
REMARK    6  A    between atoms: O_5  and  C_31 
REMARK    7  A    between atoms: O_5  and  C_27 
REMARK    8  A    between atoms: O_6  and  C_28 
REMARK    9  A    between atoms: O_6  and  C_34 
REMARK   10  A    between atoms: O_11  and  C_43 
REMARK   11  A    between atoms: O_12  and  C_44 
REMARK   12  A    between atoms: O_13  and  C_45 
REMARK   13  A    between atoms: O_14  and  C_46 
REMARK   14  A    between atoms: O_15  and  C_49 
REMARK   15  A    between atoms: O_16  and  C_50 
REMARK   16  A    between atoms: O_17  and  C_51 
REMARK   17  A    between atoms: O_18  and  C_52 
REMARK   18  A    between atoms: O_19  and  C_53 
REMARK   19  A    between atoms: O_20  and  C_54 
REMARK   20  A    between atoms: O_21  and  C_55 
REMARK   21  A    between atoms: O_22  and  C_56 
REMARK   22  A    between atoms: C_25  and  C_28 
REMARK   23  A    between atoms: C_29  and  C_32 
REMARK   24  A    between atoms: C_30  and  C_33 
REMARK   25  A    between atoms: C_31  and  C_35 
REMARK   26  A    between atoms: C_34  and  C_36 
ROOT
HETATM    1  O   UNL     1      83.933  89.309 112.425  1.00  0.00    -0.348 OA
HETATM    2  C   UNL     1      81.593  89.871 112.626  1.00  0.00     0.195 C 
HETATM    3  C   UNL     1      81.783  91.047 111.656  1.00  0.00     0.198 C 
HETATM    4  C   UNL     1      82.917  89.643 113.377  1.00  0.00     0.181 C 
HETATM    5  C   UNL     1      83.027  90.870 110.760  1.00  0.00     0.206 C 
HETATM    6  C   UNL     1      84.259  90.414 111.579  1.00  0.00     0.301 C 
ENDROOT
BRANCH   4   7
HETATM    7  C   UNL     1      82.774  88.531 114.428  1.00  0.00     0.213 C 
BRANCH   7   8
HETATM    8  O   UNL     1      83.910  87.652 114.405  1.00  0.00    -0.315 OA
BRANCH   8   9
HETATM    9  C   UNL     1      84.813  87.877 115.395  1.00  0.00     0.293 C 
HETATM   10  O   UNL     1      84.899  88.876 116.090  1.00  0.00    -0.259 OA
BRANCH   9  11
HETATM   11  C   UNL     1      85.710  86.709 115.525  1.00  0.00     0.045 A 
HETATM   12  C   UNL     1      86.770  86.502 114.625  1.00  0.00     0.057 A 
HETATM   13  C   UNL     1      87.619  85.418 114.823  1.00  0.00     0.102 A 
HETATM   14  C   UNL     1      87.410  84.550 115.890  1.00  0.00     0.132 A 
HETATM   15  C   UNL     1      86.356  84.759 116.770  1.00  0.00     0.102 A 
HETATM   16  C   UNL     1      85.504  85.839 116.604  1.00  0.00     0.057 A 
BRANCH  13  17
HETATM   17  O   UNL     1      88.684  85.169 114.002  1.00  0.00    -0.358 OA
HETATM   18  H   UNL     1      89.217  84.453 114.390  1.00  0.00     0.217 HD
ENDBRANCH  13  17
BRANCH  14  19
HETATM   19  O   UNL     1      88.244  83.484 116.093  1.00  0.00    -0.356 OA
HETATM   20  H   UNL     1      87.940  83.095 116.938  1.00  0.00     0.218 HD
ENDBRANCH  14  19
BRANCH  15  21
HETATM   21  O   UNL     1      86.156  83.905 117.815  1.00  0.00    -0.358 OA
HETATM   22  H   UNL     1      85.198  83.699 117.790  1.00  0.00     0.217 HD
ENDBRANCH  15  21
ENDBRANCH   9  11
ENDBRANCH   8   9
ENDBRANCH   7   8
ENDBRANCH   4   7
BRANCH   2  23
HETATM   23  O   UNL     1      80.575  90.188 113.606  1.00  0.00    -0.307 OA
BRANCH  23  24
HETATM   24  C   UNL     1      80.324  91.368 114.221  1.00  0.00     0.294 C 
HETATM   25  O   UNL     1      81.244  92.019 114.704  1.00  0.00    -0.259 OA
BRANCH  24  26
HETATM   26  C   UNL     1      78.951  91.919 114.284  1.00  0.00     0.045 A 
HETATM   27  C   UNL     1      78.683  93.227 114.714  1.00  0.00     0.057 A 
HETATM   28  C   UNL     1      77.366  93.666 114.786  1.00  0.00     0.102 A 
HETATM   29  C   UNL     1      76.331  92.845 114.355  1.00  0.00     0.132 A 
HETATM   30  C   UNL     1      76.604  91.581 113.853  1.00  0.00     0.102 A 
HETATM   31  C   UNL     1      77.909  91.108 113.810  1.00  0.00     0.057 A 
BRANCH  28  32
HETATM   32  O   UNL     1      77.038  94.896 115.280  1.00  0.00    -0.358 OA
HETATM   33  H   UNL     1      77.089  94.874 116.253  1.00  0.00     0.217 HD
ENDBRANCH  28  32
BRANCH  29  34
HETATM   34  O   UNL     1      75.033  93.274 114.414  1.00  0.00    -0.356 OA
HETATM   35  H   UNL     1      74.514  92.516 114.073  1.00  0.00     0.218 HD
ENDBRANCH  29  34
BRANCH  30  36
HETATM   36  O   UNL     1      75.590  90.790 113.401  1.00  0.00    -0.358 OA
HETATM   37  H   UNL     1      74.788  91.346 113.467  1.00  0.00     0.217 HD
ENDBRANCH  30  36
ENDBRANCH  24  26
ENDBRANCH  23  24
ENDBRANCH   2  23
BRANCH   6  38
HETATM   38  O   UNL     1      85.261  89.991 110.627  1.00  0.00    -0.283 OA
BRANCH  38  39
HETATM   39  C   UNL     1      86.586  89.879 110.866  1.00  0.00     0.295 C 
HETATM   40  O   UNL     1      87.314  90.860 110.957  1.00  0.00    -0.259 OA
BRANCH  39  41
HETATM   41  C   UNL     1      87.197  88.537 110.870  1.00  0.00     0.045 A 
HETATM   42  C   UNL     1      88.587  88.371 110.787  1.00  0.00     0.057 A 
HETATM   43  C   UNL     1      89.116  87.087 110.833  1.00  0.00     0.102 A 
HETATM   44  C   UNL     1      88.270  85.984 110.879  1.00  0.00     0.132 A 
HETATM   45  C   UNL     1      86.891  86.154 110.884  1.00  0.00     0.102 A 
HETATM   46  C   UNL     1      86.341  87.427 110.887  1.00  0.00     0.057 A 
BRANCH  43  47
HETATM   47  O   UNL     1      90.463  86.860 110.845  1.00  0.00    -0.358 OA
HETATM   48  H   UNL     1      90.917  87.656 110.514  1.00  0.00     0.217 HD
ENDBRANCH  43  47
BRANCH  44  49
HETATM   49  O   UNL     1      88.783  84.716 110.915  1.00  0.00    -0.356 OA
HETATM   50  H   UNL     1      89.720  84.839 111.175  1.00  0.00     0.218 HD
ENDBRANCH  44  49
BRANCH  45  51
HETATM   51  O   UNL     1      86.068  85.067 110.885  1.00  0.00    -0.358 OA
HETATM   52  H   UNL     1      86.466  84.449 111.531  1.00  0.00     0.217 HD
ENDBRANCH  45  51
ENDBRANCH  39  41
ENDBRANCH  38  39
ENDBRANCH   6  38
BRANCH   3  53
HETATM   53  O   UNL     1      80.578  91.337 110.889  1.00  0.00    -0.306 OA
BRANCH  53  54
HETATM   54  C   UNL     1      80.128  92.611 110.819  1.00  0.00     0.294 C 
HETATM   55  O   UNL     1      80.811  93.617 110.896  1.00  0.00    -0.259 OA
BRANCH  54  56
HETATM   56  C   UNL     1      78.656  92.632 110.704  1.00  0.00     0.045 A 
HETATM   57  C   UNL     1      77.981  93.820 111.032  1.00  0.00     0.057 A 
HETATM   58  C   UNL     1      76.599  93.876 110.887  1.00  0.00     0.102 A 
HETATM   59  C   UNL     1      75.903  92.777 110.393  1.00  0.00     0.132 A 
HETATM   60  C   UNL     1      76.578  91.609 110.064  1.00  0.00     0.102 A 
HETATM   61  C   UNL     1      77.953  91.516 110.230  1.00  0.00     0.057 A 
BRANCH  58  62
HETATM   62  O   UNL     1      75.879  94.992 111.210  1.00  0.00    -0.358 OA
HETATM   63  H   UNL     1      74.934  94.805 111.075  1.00  0.00     0.217 HD
ENDBRANCH  58  62
BRANCH  59  64
HETATM   64  O   UNL     1      74.547  92.833 110.222  1.00  0.00    -0.356 OA
HETATM   65  H   UNL     1      74.244  93.486 110.885  1.00  0.00     0.218 HD
ENDBRANCH  59  64
BRANCH  60  66
HETATM   66  O   UNL     1      75.895  90.541 109.561  1.00  0.00    -0.358 OA
HETATM   67  H   UNL     1      75.326  90.917 108.858  1.00  0.00     0.217 HD
ENDBRANCH  60  66
ENDBRANCH  54  56
ENDBRANCH  53  54
ENDBRANCH   3  53
BRANCH   5  68
HETATM   68  O   UNL     1      83.301  92.120 110.102  1.00  0.00    -0.388 OA
HETATM   69  H   UNL     1      83.663  91.897 109.223  1.00  0.00     0.210 HD
ENDBRANCH   5  68
TORSDOF 26
ENDMDL
MODEL 7
REMARK VINA RESULT:   -10.837      2.139      3.350
REMARK INTER + INTRA:         -27.141
REMARK INTER:                 -22.157
REMARK INTRA:                  -4.984
REMARK UNBOUND:                -3.950
REMARK  26 active torsions:
REMARK  status: ('A' for Active; 'I' for Inactive)
REMARK    1  A    between atoms: O_2  and  C_29 
REMARK    2  A    between atoms: O_2  and  C_23 
REMARK    3  A    between atoms: O_3  and  C_24 
REMARK    4  A    between atoms: O_3  and  C_30 
REMARK    5  A    between atoms: O_4  and  C_26 
REMARK    6  A    between atoms: O_5  and  C_31 
REMARK    7  A    between atoms: O_5  and  C_27 
REMARK    8  A    between atoms: O_6  and  C_28 
REMARK    9  A    between atoms: O_6  and  C_34 
REMARK   10  A    between atoms: O_11  and  C_43 
REMARK   11  A    between atoms: O_12  and  C_44 
REMARK   12  A    between atoms: O_13  and  C_45 
REMARK   13  A    between atoms: O_14  and  C_46 
REMARK   14  A    between atoms: O_15  and  C_49 
REMARK   15  A    between atoms: O_16  and  C_50 
REMARK   16  A    between atoms: O_17  and  C_51 
REMARK   17  A    between atoms: O_18  and  C_52 
REMARK   18  A    between atoms: O_19  and  C_53 
REMARK   19  A    between atoms: O_20  and  C_54 
REMARK   20  A    between atoms: O_21  and  C_55 
REMARK   21  A    between atoms: O_22  and  C_56 
REMARK   22  A    between atoms: C_25  and  C_28 
REMARK   23  A    between atoms: C_29  and  C_32 
REMARK   24  A    between atoms: C_30  and  C_33 
REMARK   25  A    between atoms: C_31  and  C_35 
REMARK   26  A    between atoms: C_34  and  C_36 
ROOT
HETATM    1  O   UNL     1      83.646  90.264 112.909  1.00  0.00    -0.348 OA
HETATM    2  C   UNL     1      81.311  90.867 112.790  1.00  0.00     0.195 C 
HETATM    3  C   UNL     1      81.620  91.882 111.679  1.00  0.00     0.198 C 
HETATM    4  C   UNL     1      82.549  90.745 113.695  1.00  0.00     0.181 C 
HETATM    5  C   UNL     1      82.940  91.563 110.948  1.00  0.00     0.206 C 
HETATM    6  C   UNL     1      84.077  91.226 111.944  1.00  0.00     0.301 C 
ENDROOT
BRANCH   4   7
HETATM    7  C   UNL     1      82.281  89.805 114.880  1.00  0.00     0.213 C 
BRANCH   7   8
HETATM    8  O   UNL     1      83.471  89.603 115.657  1.00  0.00    -0.315 OA
BRANCH   8   9
HETATM    9  C   UNL     1      83.755  90.612 116.522  1.00  0.00     0.293 C 
HETATM   10  O   UNL     1      82.959  91.222 117.216  1.00  0.00    -0.259 OA
BRANCH   9  11
HETATM   11  C   UNL     1      85.209  90.879 116.514  1.00  0.00     0.045 A 
HETATM   12  C   UNL     1      86.065  90.223 115.612  1.00  0.00     0.057 A 
HETATM   13  C   UNL     1      87.416  90.551 115.606  1.00  0.00     0.102 A 
HETATM   14  C   UNL     1      87.910  91.504 116.491  1.00  0.00     0.132 A 
HETATM   15  C   UNL     1      87.058  92.143 117.383  1.00  0.00     0.102 A 
HETATM   16  C   UNL     1      85.704  91.846 117.400  1.00  0.00     0.057 A 
BRANCH  13  17
HETATM   17  O   UNL     1      88.302  89.970 114.741  1.00  0.00    -0.358 OA
HETATM   18  H   UNL     1      88.810  90.672 114.296  1.00  0.00     0.217 HD
ENDBRANCH  13  17
BRANCH  14  19
HETATM   19  O   UNL     1      89.238  91.835 116.488  1.00  0.00    -0.356 OA
HETATM   20  H   UNL     1      89.703  90.974 116.518  1.00  0.00     0.218 HD
ENDBRANCH  14  19
BRANCH  15  21
HETATM   21  O   UNL     1      87.547  93.078 118.248  1.00  0.00    -0.358 OA
HETATM   22  H   UNL     1      87.501  93.923 117.755  1.00  0.00     0.217 HD
ENDBRANCH  15  21
ENDBRANCH   9  11
ENDBRANCH   8   9
ENDBRANCH   7   8
ENDBRANCH   4   7
BRANCH   2  23
HETATM   23  O   UNL     1      80.209  91.336 113.606  1.00  0.00    -0.307 OA
BRANCH  23  24
HETATM   24  C   UNL     1      78.985  90.783 113.781  1.00  0.00     0.294 C 
HETATM   25  O   UNL     1      78.869  89.569 113.903  1.00  0.00    -0.259 OA
BRANCH  24  26
HETATM   26  C   UNL     1      77.773  91.629 113.874  1.00  0.00     0.045 A 
HETATM   27  C   UNL     1      76.512  91.186 113.448  1.00  0.00     0.057 A 
HETATM   28  C   UNL     1      75.423  92.048 113.529  1.00  0.00     0.102 A 
HETATM   29  C   UNL     1      75.567  93.303 114.105  1.00  0.00     0.132 A 
HETATM   30  C   UNL     1      76.798  93.709 114.601  1.00  0.00     0.102 A 
HETATM   31  C   UNL     1      77.906  92.881 114.493  1.00  0.00     0.057 A 
BRANCH  28  32
HETATM   32  O   UNL     1      74.191  91.705 113.049  1.00  0.00    -0.358 OA
HETATM   33  H   UNL     1      74.117  91.995 112.122  1.00  0.00     0.217 HD
ENDBRANCH  28  32
BRANCH  29  34
HETATM   34  O   UNL     1      74.498  94.152 114.197  1.00  0.00    -0.356 OA
HETATM   35  H   UNL     1      73.837  93.775 113.580  1.00  0.00     0.218 HD
ENDBRANCH  29  34
BRANCH  30  36
HETATM   36  O   UNL     1      76.928  94.929 115.194  1.00  0.00    -0.358 OA
HETATM   37  H   UNL     1      76.845  94.754 116.153  1.00  0.00     0.217 HD
ENDBRANCH  30  36
ENDBRANCH  24  26
ENDBRANCH  23  24
ENDBRANCH   2  23
BRANCH   6  38
HETATM   38  O   UNL     1      85.156  90.657 111.170  1.00  0.00    -0.283 OA
BRANCH  38  39
HETATM   39  C   UNL     1      86.296  90.128 111.667  1.00  0.00     0.295 C 
HETATM   40  O   UNL     1      87.219  90.832 112.061  1.00  0.00    -0.259 OA
BRANCH  39  41
HETATM   41  C   UNL     1      86.493  88.669 111.595  1.00  0.00     0.045 A 
HETATM   42  C   UNL     1      86.710  88.025 110.368  1.00  0.00     0.057 A 
HETATM   43  C   UNL     1      86.928  86.652 110.358  1.00  0.00     0.102 A 
HETATM   44  C   UNL     1      86.851  85.923 111.540  1.00  0.00     0.132 A 
HETATM   45  C   UNL     1      86.559  86.558 112.741  1.00  0.00     0.102 A 
HETATM   46  C   UNL     1      86.385  87.934 112.784  1.00  0.00     0.057 A 
BRANCH  43  47
HETATM   47  O   UNL     1      87.232  85.977 109.210  1.00  0.00    -0.358 OA
HETATM   48  H   UNL     1      87.869  86.506 108.696  1.00  0.00     0.217 HD
ENDBRANCH  43  47
BRANCH  44  49
HETATM   49  O   UNL     1      87.055  84.570 111.536  1.00  0.00    -0.356 OA
HETATM   50  H   UNL     1      87.567  84.402 110.717  1.00  0.00     0.218 HD
ENDBRANCH  44  49
BRANCH  45  51
HETATM   51  O   UNL     1      86.442  85.831 113.888  1.00  0.00    -0.358 OA
HETATM   52  H   UNL     1      87.287  85.969 114.362  1.00  0.00     0.217 HD
ENDBRANCH  45  51
ENDBRANCH  39  41
ENDBRANCH  38  39
ENDBRANCH   6  38
BRANCH   3  53
HETATM   53  O   UNL     1      80.502  92.062 110.762  1.00  0.00    -0.306 OA
BRANCH  53  54
HETATM   54  C   UNL     1      79.929  93.282 110.648  1.00  0.00     0.294 C 
HETATM   55  O   UNL     1      80.509  94.352 110.686  1.00  0.00    -0.259 OA
BRANCH  54  56
HETATM   56  C   UNL     1      78.461  93.154 110.538  1.00  0.00     0.045 A 
HETATM   57  C   UNL     1      77.674  94.290 110.791  1.00  0.00     0.057 A 
HETATM   58  C   UNL     1      76.294  94.204 110.648  1.00  0.00     0.102 A 
HETATM   59  C   UNL     1      75.708  93.013 110.231  1.00  0.00     0.132 A 
HETATM   60  C   UNL     1      76.493  91.896 109.975  1.00  0.00     0.102 A 
HETATM   61  C   UNL     1      77.870  91.947 110.141  1.00  0.00     0.057 A 
BRANCH  58  62
HETATM   62  O   UNL     1      75.470  95.264 110.902  1.00  0.00    -0.358 OA
HETATM   63  H   UNL     1      75.865  95.808 111.605  1.00  0.00     0.217 HD
ENDBRANCH  58  62
BRANCH  59  64
HETATM   64  O   UNL     1      74.353  92.927 110.062  1.00  0.00    -0.356 OA
HETATM   65  H   UNL     1      74.062  93.854 109.944  1.00  0.00     0.218 HD
ENDBRANCH  59  64
BRANCH  60  66
HETATM   66  O   UNL     1      75.916  90.738 109.546  1.00  0.00    -0.358 OA
HETATM   67  H   UNL     1      75.883  90.822 108.570  1.00  0.00     0.217 HD
ENDBRANCH  60  66
ENDBRANCH  54  56
ENDBRANCH  53  54
ENDBRANCH   3  53
BRANCH   5  68
HETATM   68  O   UNL     1      83.305  92.697 110.141  1.00  0.00    -0.388 OA
HETATM   69  H   UNL     1      84.235  92.901 110.354  1.00  0.00     0.210 HD
ENDBRANCH   5  68
TORSDOF 26
ENDMDL
MODEL 8
REMARK VINA RESULT:   -10.821      1.391     11.572
REMARK INTER + INTRA:         -27.106
REMARK INTER:                 -23.490
REMARK INTRA:                  -3.617
REMARK UNBOUND:                -3.950
REMARK  26 active torsions:
REMARK  status: ('A' for Active; 'I' for Inactive)
REMARK    1  A    between atoms: O_2  and  C_29 
REMARK    2  A    between atoms: O_2  and  C_23 
REMARK    3  A    between atoms: O_3  and  C_24 
REMARK    4  A    between atoms: O_3  and  C_30 
REMARK    5  A    between atoms: O_4  and  C_26 
REMARK    6  A    between atoms: O_5  and  C_31 
REMARK    7  A    between atoms: O_5  and  C_27 
REMARK    8  A    between atoms: O_6  and  C_28 
REMARK    9  A    between atoms: O_6  and  C_34 
REMARK   10  A    between atoms: O_11  and  C_43 
REMARK   11  A    between atoms: O_12  and  C_44 
REMARK   12  A    between atoms: O_13  and  C_45 
REMARK   13  A    between atoms: O_14  and  C_46 
REMARK   14  A    between atoms: O_15  and  C_49 
REMARK   15  A    between atoms: O_16  and  C_50 
REMARK   16  A    between atoms: O_17  and  C_51 
REMARK   17  A    between atoms: O_18  and  C_52 
REMARK   18  A    between atoms: O_19  and  C_53 
REMARK   19  A    between atoms: O_20  and  C_54 
REMARK   20  A    between atoms: O_21  and  C_55 
REMARK   21  A    between atoms: O_22  and  C_56 
REMARK   22  A    between atoms: C_25  and  C_28 
REMARK   23  A    between atoms: C_29  and  C_32 
REMARK   24  A    between atoms: C_30  and  C_33 
REMARK   25  A    between atoms: C_31  and  C_35 
REMARK   26  A    between atoms: C_34  and  C_36 
ROOT
HETATM    1  O   UNL     1      82.016  91.002 113.447  1.00  0.00    -0.348 OA
HETATM    2  C   UNL     1      84.049  89.826 112.883  1.00  0.00     0.195 C 
HETATM    3  C   UNL     1      84.180  89.338 114.334  1.00  0.00     0.198 C 
HETATM    4  C   UNL     1      83.324  91.184 112.892  1.00  0.00     0.181 C 
HETATM    5  C   UNL     1      82.830  89.359 115.081  1.00  0.00     0.206 C 
HETATM    6  C   UNL     1      82.065  90.682 114.840  1.00  0.00     0.301 C 
ENDROOT
BRANCH   4   7
HETATM    7  C   UNL     1      83.232  91.773 111.476  1.00  0.00     0.213 C 
BRANCH   7   8
HETATM    8  O   UNL     1      82.217  92.786 111.404  1.00  0.00    -0.315 OA
BRANCH   8   9
HETATM    9  C   UNL     1      81.129  92.440 110.668  1.00  0.00     0.293 C 
HETATM   10  O   UNL     1      80.694  91.313 110.496  1.00  0.00    -0.259 OA
BRANCH   9  11
HETATM   11  C   UNL     1      80.517  93.652 110.084  1.00  0.00     0.045 A 
HETATM   12  C   UNL     1      79.278  93.596 109.423  1.00  0.00     0.057 A 
HETATM   13  C   UNL     1      78.718  94.774 108.940  1.00  0.00     0.102 A 
HETATM   14  C   UNL     1      79.384  95.984 109.103  1.00  0.00     0.132 A 
HETATM   15  C   UNL     1      80.611  96.030 109.752  1.00  0.00     0.102 A 
HETATM   16  C   UNL     1      81.185  94.873 110.255  1.00  0.00     0.057 A 
BRANCH  13  17
HETATM   17  O   UNL     1      77.506  94.797 108.307  1.00  0.00    -0.358 OA
HETATM   18  H   UNL     1      77.041  93.961 108.491  1.00  0.00     0.217 HD
ENDBRANCH  13  17
BRANCH  14  19
HETATM   19  O   UNL     1      78.837  97.148 108.634  1.00  0.00    -0.356 OA
HETATM   20  H   UNL     1      79.406  97.397 107.878  1.00  0.00     0.218 HD
ENDBRANCH  14  19
BRANCH  15  21
HETATM   21  O   UNL     1      81.260  97.220 109.909  1.00  0.00    -0.358 OA
HETATM   22  H   UNL     1      81.113  97.463 110.846  1.00  0.00     0.217 HD
ENDBRANCH  15  21
ENDBRANCH   9  11
ENDBRANCH   8   9
ENDBRANCH   7   8
ENDBRANCH   4   7
BRANCH   2  23
HETATM   23  O   UNL     1      85.361  90.027 112.302  1.00  0.00    -0.307 OA
BRANCH  23  24
HETATM   24  C   UNL     1      85.850  89.562 111.128  1.00  0.00     0.294 C 
HETATM   25  O   UNL     1      85.657  90.185 110.090  1.00  0.00    -0.259 OA
BRANCH  24  26
HETATM   26  C   UNL     1      86.662  88.325 111.077  1.00  0.00     0.045 A 
HETATM   27  C   UNL     1      88.061  88.338 111.176  1.00  0.00     0.057 A 
HETATM   28  C   UNL     1      88.764  87.141 111.081  1.00  0.00     0.102 A 
HETATM   29  C   UNL     1      88.080  85.936 110.975  1.00  0.00     0.132 A 
HETATM   30  C   UNL     1      86.693  85.918 110.959  1.00  0.00     0.102 A 
HETATM   31  C   UNL     1      85.974  87.104 111.012  1.00  0.00     0.057 A 
BRANCH  28  32
HETATM   32  O   UNL     1      90.129  87.100 111.083  1.00  0.00    -0.358 OA
HETATM   33  H   UNL     1      90.474  87.975 111.340  1.00  0.00     0.217 HD
ENDBRANCH  28  32
BRANCH  29  34
HETATM   34  O   UNL     1      88.764  84.755 110.891  1.00  0.00    -0.356 OA
HETATM   35  H   UNL     1      88.139  84.146 110.446  1.00  0.00     0.218 HD
ENDBRANCH  29  34
BRANCH  30  36
HETATM   36  O   UNL     1      86.025  84.732 110.887  1.00  0.00    -0.358 OA
HETATM   37  H   UNL     1      85.470  84.804 110.085  1.00  0.00     0.217 HD
ENDBRANCH  30  36
ENDBRANCH  24  26
ENDBRANCH  23  24
ENDBRANCH   2  23
BRANCH   6  38
HETATM   38  O   UNL     1      80.716  90.479 115.317  1.00  0.00    -0.283 OA
BRANCH  38  39
HETATM   39  C   UNL     1      79.783  91.441 115.493  1.00  0.00     0.295 C 
HETATM   40  O   UNL     1      79.840  92.237 116.422  1.00  0.00    -0.259 OA
BRANCH  39  41
HETATM   41  C   UNL     1      78.587  91.437 114.630  1.00  0.00     0.045 A 
HETATM   42  C   UNL     1      77.348  91.891 115.105  1.00  0.00     0.057 A 
HETATM   43  C   UNL     1      76.259  91.903 114.240  1.00  0.00     0.102 A 
HETATM   44  C   UNL     1      76.385  91.396 112.952  1.00  0.00     0.132 A 
HETATM   45  C   UNL     1      77.597  90.877 112.514  1.00  0.00     0.102 A 
HETATM   46  C   UNL     1      78.710  90.898 113.342  1.00  0.00     0.057 A 
BRANCH  43  47
HETATM   47  O   UNL     1      75.048  92.413 114.612  1.00  0.00    -0.358 OA
HETATM   48  H   UNL     1      74.652  92.868 113.846  1.00  0.00     0.217 HD
ENDBRANCH  43  47
BRANCH  44  49
HETATM   49  O   UNL     1      75.315  91.396 112.098  1.00  0.00    -0.356 OA
HETATM   50  H   UNL     1      75.648  90.954 111.289  1.00  0.00     0.218 HD
ENDBRANCH  44  49
BRANCH  45  51
HETATM   51  O   UNL     1      77.701  90.342 111.264  1.00  0.00    -0.358 OA
HETATM   52  H   UNL     1      77.864  91.106 110.675  1.00  0.00     0.217 HD
ENDBRANCH  45  51
ENDBRANCH  39  41
ENDBRANCH  38  39
ENDBRANCH   6  38
BRANCH   3  53
HETATM   53  O   UNL     1      84.852  88.049 114.429  1.00  0.00    -0.306 OA
BRANCH  53  54
HETATM   54  C   UNL     1      86.083  87.983 114.988  1.00  0.00     0.294 C 
HETATM   55  O   UNL     1      86.836  88.922 115.173  1.00  0.00    -0.259 OA
BRANCH  54  56
HETATM   56  C   UNL     1      86.437  86.581 115.291  1.00  0.00     0.045 A 
HETATM   57  C   UNL     1      85.832  85.969 116.402  1.00  0.00     0.057 A 
HETATM   58  C   UNL     1      86.115  84.636 116.678  1.00  0.00     0.102 A 
HETATM   59  C   UNL     1      86.965  83.915 115.845  1.00  0.00     0.132 A 
HETATM   60  C   UNL     1      87.554  84.525 114.745  1.00  0.00     0.102 A 
HETATM   61  C   UNL     1      87.312  85.863 114.465  1.00  0.00     0.057 A 
BRANCH  58  62
HETATM   62  O   UNL     1      85.579  83.988 117.755  1.00  0.00    -0.358 OA
HETATM   63  H   UNL     1      85.778  83.038 117.679  1.00  0.00     0.217 HD
ENDBRANCH  58  62
BRANCH  59  64
HETATM   64  O   UNL     1      87.229  82.596 116.095  1.00  0.00    -0.356 OA
HETATM   65  H   UNL     1      87.124  82.157 115.226  1.00  0.00     0.218 HD
ENDBRANCH  59  64
BRANCH  60  66
HETATM   66  O   UNL     1      88.369  83.809 113.920  1.00  0.00    -0.358 OA
HETATM   67  H   UNL     1      88.026  83.980 113.019  1.00  0.00     0.217 HD
ENDBRANCH  60  66
ENDBRANCH  54  56
ENDBRANCH  53  54
ENDBRANCH   3  53
BRANCH   5  68
HETATM   68  O   UNL     1      83.079  89.175 116.486  1.00  0.00    -0.388 OA
HETATM   69  H   UNL     1      82.248  89.399 116.946  1.00  0.00     0.210 HD
ENDBRANCH   5  68
TORSDOF 26
ENDMDL
MODEL 9
REMARK VINA RESULT:   -10.768      2.117      3.306
REMARK INTER + INTRA:         -26.993
REMARK INTER:                 -21.944
REMARK INTRA:                  -5.048
REMARK UNBOUND:                -3.950
REMARK  26 active torsions:
REMARK  status: ('A' for Active; 'I' for Inactive)
REMARK    1  A    between atoms: O_2  and  C_29 
REMARK    2  A    between atoms: O_2  and  C_23 
REMARK    3  A    between atoms: O_3  and  C_24 
REMARK    4  A    between atoms: O_3  and  C_30 
REMARK    5  A    between atoms: O_4  and  C_26 
REMARK    6  A    between atoms: O_5  and  C_31 
REMARK    7  A    between atoms: O_5  and  C_27 
REMARK    8  A    between atoms: O_6  and  C_28 
REMARK    9  A    between atoms: O_6  and  C_34 
REMARK   10  A    between atoms: O_11  and  C_43 
REMARK   11  A    between atoms: O_12  and  C_44 
REMARK   12  A    between atoms: O_13  and  C_45 
REMARK   13  A    between atoms: O_14  and  C_46 
REMARK   14  A    between atoms: O_15  and  C_49 
REMARK   15  A    between atoms: O_16  and  C_50 
REMARK   16  A    between atoms: O_17  and  C_51 
REMARK   17  A    between atoms: O_18  and  C_52 
REMARK   18  A    between atoms: O_19  and  C_53 
REMARK   19  A    between atoms: O_20  and  C_54 
REMARK   20  A    between atoms: O_21  and  C_55 
REMARK   21  A    between atoms: O_22  and  C_56 
REMARK   22  A    between atoms: C_25  and  C_28 
REMARK   23  A    between atoms: C_29  and  C_32 
REMARK   24  A    between atoms: C_30  and  C_33 
REMARK   25  A    between atoms: C_31  and  C_35 
REMARK   26  A    between atoms: C_34  and  C_36 
ROOT
HETATM    1  O   UNL     1      82.889  91.654 112.111  1.00  0.00    -0.348 OA
HETATM    2  C   UNL     1      80.748  92.276 111.183  1.00  0.00     0.195 C 
HETATM    3  C   UNL     1      81.285  93.679 110.861  1.00  0.00     0.198 C 
HETATM    4  C   UNL     1      81.494  91.743 112.420  1.00  0.00     0.181 C 
HETATM    5  C   UNL     1      82.824  93.707 110.765  1.00  0.00     0.206 C 
HETATM    6  C   UNL     1      83.483  92.943 111.938  1.00  0.00     0.301 C 
ENDROOT
BRANCH   4   7
HETATM    7  C   UNL     1      80.947  90.373 112.850  1.00  0.00     0.213 C 
BRANCH   7   8
HETATM    8  O   UNL     1      82.005  89.517 113.309  1.00  0.00    -0.315 OA
BRANCH   8   9
HETATM    9  C   UNL     1      81.935  89.195 114.627  1.00  0.00     0.293 C 
HETATM   10  O   UNL     1      80.947  89.259 115.341  1.00  0.00    -0.259 OA
BRANCH   9  11
HETATM   11  C   UNL     1      83.258  88.736 115.098  1.00  0.00     0.045 A 
HETATM   12  C   UNL     1      83.849  89.280 116.253  1.00  0.00     0.057 A 
HETATM   13  C   UNL     1      85.070  88.775 116.686  1.00  0.00     0.102 A 
HETATM   14  C   UNL     1      85.698  87.756 115.978  1.00  0.00     0.132 A 
HETATM   15  C   UNL     1      85.111  87.229 114.835  1.00  0.00     0.102 A 
HETATM   16  C   UNL     1      83.887  87.703 114.389  1.00  0.00     0.057 A 
BRANCH  13  17
HETATM   17  O   UNL     1      85.690  89.241 117.813  1.00  0.00    -0.358 OA
HETATM   18  H   UNL     1      86.219  88.520 118.198  1.00  0.00     0.217 HD
ENDBRANCH  13  17
BRANCH  14  19
HETATM   19  O   UNL     1      86.898  87.252 116.402  1.00  0.00    -0.356 OA
HETATM   20  H   UNL     1      87.003  86.419 115.899  1.00  0.00     0.218 HD
ENDBRANCH  14  19
BRANCH  15  21
HETATM   21  O   UNL     1      85.731  86.229 114.145  1.00  0.00    -0.358 OA
HETATM   22  H   UNL     1      86.472  85.949 114.721  1.00  0.00     0.217 HD
ENDBRANCH  15  21
ENDBRANCH   9  11
ENDBRANCH   8   9
ENDBRANCH   7   8
ENDBRANCH   4   7
BRANCH   2  23
HETATM   23  O   UNL     1      79.338  92.340 111.508  1.00  0.00    -0.307 OA
BRANCH  23  24
HETATM   24  C   UNL     1      78.290  91.781 110.859  1.00  0.00     0.294 C 
HETATM   25  O   UNL     1      78.464  91.192 109.798  1.00  0.00    -0.259 OA
BRANCH  24  26
HETATM   26  C   UNL     1      76.925  91.827 111.433  1.00  0.00     0.045 A 
HETATM   27  C   UNL     1      76.671  92.285 112.734  1.00  0.00     0.057 A 
HETATM   28  C   UNL     1      75.369  92.265 113.223  1.00  0.00     0.102 A 
HETATM   29  C   UNL     1      74.320  91.874 112.400  1.00  0.00     0.132 A 
HETATM   30  C   UNL     1      74.563  91.498 111.087  1.00  0.00     0.102 A 
HETATM   31  C   UNL     1      75.860  91.473 110.592  1.00  0.00     0.057 A 
BRANCH  28  32
HETATM   32  O   UNL     1      75.072  92.615 114.509  1.00  0.00    -0.358 OA
HETATM   33  H   UNL     1      75.844  92.433 115.076  1.00  0.00     0.217 HD
ENDBRANCH  28  32
BRANCH  29  34
HETATM   34  O   UNL     1      73.035  91.861 112.871  1.00  0.00    -0.356 OA
HETATM   35  H   UNL     1      72.485  92.011 112.075  1.00  0.00     0.218 HD
ENDBRANCH  29  34
BRANCH  30  36
HETATM   36  O   UNL     1      73.528  91.146 110.273  1.00  0.00    -0.358 OA
HETATM   37  H   UNL     1      73.061  91.984 110.082  1.00  0.00     0.217 HD
ENDBRANCH  30  36
ENDBRANCH  24  26
ENDBRANCH  23  24
ENDBRANCH   2  23
BRANCH   6  38
HETATM   38  O   UNL     1      84.877  92.771 111.596  1.00  0.00    -0.283 OA
BRANCH  38  39
HETATM   39  C   UNL     1      85.834  92.257 112.400  1.00  0.00     0.295 C 
HETATM   40  O   UNL     1      86.431  92.946 113.218  1.00  0.00    -0.259 OA
BRANCH  39  41
HETATM   41  C   UNL     1      86.275  90.867 112.183  1.00  0.00     0.045 A 
HETATM   42  C   UNL     1      87.106  90.216 113.106  1.00  0.00     0.057 A 
HETATM   43  C   UNL     1      87.463  88.892 112.875  1.00  0.00     0.102 A 
HETATM   44  C   UNL     1      87.065  88.256 111.704  1.00  0.00     0.132 A 
HETATM   45  C   UNL     1      86.305  88.933 110.758  1.00  0.00     0.102 A 
HETATM   46  C   UNL     1      85.896  90.238 110.988  1.00  0.00     0.057 A 
BRANCH  43  47
HETATM   47  O   UNL     1      88.197  88.174 113.775  1.00  0.00    -0.358 OA
HETATM   48  H   UNL     1      89.104  88.529 113.793  1.00  0.00     0.217 HD
ENDBRANCH  43  47
BRANCH  44  49
HETATM   49  O   UNL     1      87.420  86.956 111.465  1.00  0.00    -0.356 OA
HETATM   50  H   UNL     1      88.357  86.903 111.746  1.00  0.00     0.218 HD
ENDBRANCH  44  49
BRANCH  45  51
HETATM   51  O   UNL     1      85.955  88.316 109.593  1.00  0.00    -0.358 OA
HETATM   52  H   UNL     1      86.466  88.780 108.899  1.00  0.00     0.217 HD
ENDBRANCH  45  51
ENDBRANCH  39  41
ENDBRANCH  38  39
ENDBRANCH   6  38
BRANCH   3  53
HETATM   53  O   UNL     1      80.641  94.267 109.694  1.00  0.00    -0.306 OA
BRANCH  53  54
HETATM   54  C   UNL     1      79.895  95.386 109.843  1.00  0.00     0.294 C 
HETATM   55  O   UNL     1      80.292  96.462 110.252  1.00  0.00    -0.259 OA
BRANCH  54  56
HETATM   56  C   UNL     1      78.483  95.114 109.504  1.00  0.00     0.045 A 
HETATM   57  C   UNL     1      78.205  94.477 108.283  1.00  0.00     0.057 A 
HETATM   58  C   UNL     1      76.887  94.169 107.964  1.00  0.00     0.102 A 
HETATM   59  C   UNL     1      75.864  94.465 108.861  1.00  0.00     0.132 A 
HETATM   60  C   UNL     1      76.148  95.089 110.069  1.00  0.00     0.102 A 
HETATM   61  C   UNL     1      77.451  95.435 110.397  1.00  0.00     0.057 A 
BRANCH  58  62
HETATM   62  O   UNL     1      76.545  93.571 106.784  1.00  0.00    -0.358 OA
HETATM   63  H   UNL     1      75.609  93.758 106.598  1.00  0.00     0.217 HD
ENDBRANCH  58  62
BRANCH  59  64
HETATM   64  O   UNL     1      74.567  94.142 108.567  1.00  0.00    -0.356 OA
HETATM   65  H   UNL     1      74.638  93.452 107.876  1.00  0.00     0.218 HD
ENDBRANCH  59  64
BRANCH  60  66
HETATM   66  O   UNL     1      75.145  95.357 110.953  1.00  0.00    -0.358 OA
HETATM   67  H   UNL     1      74.402  94.785 110.670  1.00  0.00     0.217 HD
ENDBRANCH  60  66
ENDBRANCH  54  56
ENDBRANCH  53  54
ENDBRANCH   3  53
BRANCH   5  68
HETATM   68  O   UNL     1      83.260  95.079 110.756  1.00  0.00    -0.388 OA
HETATM   69  H   UNL     1      82.457  95.625 110.850  1.00  0.00     0.210 HD
ENDBRANCH   5  68
TORSDOF 26
ENDMDL
MODEL 10
REMARK VINA RESULT:   -10.730      1.911      9.626
REMARK INTER + INTRA:         -26.911
REMARK INTER:                 -22.749
REMARK INTRA:                  -4.163
REMARK UNBOUND:                -3.950
REMARK  26 active torsions:
REMARK  status: ('A' for Active; 'I' for Inactive)
REMARK    1  A    between atoms: O_2  and  C_29 
REMARK    2  A    between atoms: O_2  and  C_23 
REMARK    3  A    between atoms: O_3  and  C_24 
REMARK    4  A    between atoms: O_3  and  C_30 
REMARK    5  A    between atoms: O_4  and  C_26 
REMARK    6  A    between atoms: O_5  and  C_31 
REMARK    7  A    between atoms: O_5  and  C_27 
REMARK    8  A    between atoms: O_6  and  C_28 
REMARK    9  A    between atoms: O_6  and  C_34 
REMARK   10  A    between atoms: O_11  and  C_43 
REMARK   11  A    between atoms: O_12  and  C_44 
REMARK   12  A    between atoms: O_13  and  C_45 
REMARK   13  A    between atoms: O_14  and  C_46 
REMARK   14  A    between atoms: O_15  and  C_49 
REMARK   15  A    between atoms: O_16  and  C_50 
REMARK   16  A    between atoms: O_17  and  C_51 
REMARK   17  A    between atoms: O_18  and  C_52 
REMARK   18  A    between atoms: O_19  and  C_53 
REMARK   19  A    between atoms: O_20  and  C_54 
REMARK   20  A    between atoms: O_21  and  C_55 
REMARK   21  A    between atoms: O_22  and  C_56 
REMARK   22  A    between atoms: C_25  and  C_28 
REMARK   23  A    between atoms: C_29  and  C_32 
REMARK   24  A    between atoms: C_30  and  C_33 
REMARK   25  A    between atoms: C_31  and  C_35 
REMARK   26  A    between atoms: C_34  and  C_36 
ROOT
HETATM    1  O   UNL     1      82.601  93.505 112.577  1.00  0.00    -0.348 OA
HETATM    2  C   UNL     1      84.077  91.728 113.280  1.00  0.00     0.195 C 
HETATM    3  C   UNL     1      83.566  90.839 112.136  1.00  0.00     0.198 C 
HETATM    4  C   UNL     1      82.942  92.681 113.697  1.00  0.00     0.181 C 
HETATM    5  C   UNL     1      82.943  91.663 110.989  1.00  0.00     0.206 C 
HETATM    6  C   UNL     1      81.987  92.755 111.526  1.00  0.00     0.301 C 
ENDROOT
BRANCH   4   7
HETATM    7  C   UNL     1      83.357  93.546 114.897  1.00  0.00     0.213 C 
BRANCH   7   8
HETATM    8  O   UNL     1      82.255  93.742 115.796  1.00  0.00    -0.315 OA
BRANCH   8   9
HETATM    9  C   UNL     1      81.790  92.603 116.371  1.00  0.00     0.293 C 
HETATM   10  O   UNL     1      82.333  91.958 117.253  1.00  0.00    -0.259 OA
BRANCH   9  11
HETATM   11  C   UNL     1      80.491  92.236 115.769  1.00  0.00     0.045 A 
HETATM   12  C   UNL     1      80.342  91.051 115.026  1.00  0.00     0.057 A 
HETATM   13  C   UNL     1      79.086  90.723 114.527  1.00  0.00     0.102 A 
HETATM   14  C   UNL     1      78.001  91.563 114.753  1.00  0.00     0.132 A 
HETATM   15  C   UNL     1      78.158  92.734 115.483  1.00  0.00     0.102 A 
HETATM   16  C   UNL     1      79.396  93.078 116.003  1.00  0.00     0.057 A 
BRANCH  13  17
HETATM   17  O   UNL     1      78.863  89.576 113.817  1.00  0.00    -0.358 OA
HETATM   18  H   UNL     1      79.563  89.482 113.147  1.00  0.00     0.217 HD
ENDBRANCH  13  17
BRANCH  14  19
HETATM   19  O   UNL     1      76.761  91.244 114.268  1.00  0.00    -0.356 OA
HETATM   20  H   UNL     1      76.230  92.054 114.405  1.00  0.00     0.218 HD
ENDBRANCH  14  19
BRANCH  15  21
HETATM   21  O   UNL     1      77.090  93.555 115.701  1.00  0.00    -0.358 OA
HETATM   22  H   UNL     1      76.964  94.032 114.855  1.00  0.00     0.217 HD
ENDBRANCH  15  21
ENDBRANCH   9  11
ENDBRANCH   8   9
ENDBRANCH   7   8
ENDBRANCH   4   7
BRANCH   2  23
HETATM   23  O   UNL     1      84.421  90.917 114.429  1.00  0.00    -0.307 OA
BRANCH  23  24
HETATM   24  C   UNL     1      85.646  90.554 114.877  1.00  0.00     0.294 C 
HETATM   25  O   UNL     1      86.535  91.391 114.990  1.00  0.00    -0.259 OA
BRANCH  24  26
HETATM   26  C   UNL     1      85.927  89.157 115.282  1.00  0.00     0.045 A 
HETATM   27  C   UNL     1      85.166  88.487 116.252  1.00  0.00     0.057 A 
HETATM   28  C   UNL     1      85.510  87.188 116.612  1.00  0.00     0.102 A 
HETATM   29  C   UNL     1      86.543  86.532 115.955  1.00  0.00     0.132 A 
HETATM   30  C   UNL     1      87.242  87.168 114.939  1.00  0.00     0.102 A 
HETATM   31  C   UNL     1      86.942  88.478 114.592  1.00  0.00     0.057 A 
BRANCH  28  32
HETATM   32  O   UNL     1      84.863  86.518 117.609  1.00  0.00    -0.358 OA
HETATM   33  H   UNL     1      84.926  85.559 117.443  1.00  0.00     0.217 HD
ENDBRANCH  28  32
BRANCH  29  34
HETATM   34  O   UNL     1      86.881  85.251 116.297  1.00  0.00    -0.356 OA
HETATM   35  H   UNL     1      87.691  85.351 116.838  1.00  0.00     0.218 HD
ENDBRANCH  29  34
BRANCH  30  36
HETATM   36  O   UNL     1      88.235  86.510 114.276  1.00  0.00    -0.358 OA
HETATM   37  H   UNL     1      88.838  86.191 114.976  1.00  0.00     0.217 HD
ENDBRANCH  30  36
ENDBRANCH  24  26
ENDBRANCH  23  24
ENDBRANCH   2  23
BRANCH   6  38
HETATM   38  O   UNL     1      81.705  93.644 110.422  1.00  0.00    -0.283 OA
BRANCH  38  39
HETATM   39  C   UNL     1      80.498  94.168 110.113  1.00  0.00     0.295 C 
HETATM   40  O   UNL     1      80.279  95.372 110.173  1.00  0.00    -0.259 OA
BRANCH  39  41
HETATM   41  C   UNL     1      79.374  93.252 109.840  1.00  0.00     0.045 A 
HETATM   42  C   UNL     1      78.974  92.293 110.782  1.00  0.00     0.057 A 
HETATM   43  C   UNL     1      77.885  91.479 110.492  1.00  0.00     0.102 A 
HETATM   44  C   UNL     1      77.258  91.565 109.254  1.00  0.00     0.132 A 
HETATM   45  C   UNL     1      77.709  92.466 108.297  1.00  0.00     0.102 A 
HETATM   46  C   UNL     1      78.764  93.322 108.580  1.00  0.00     0.057 A 
BRANCH  43  47
HETATM   47  O   UNL     1      77.389  90.586 111.399  1.00  0.00    -0.358 OA
HETATM   48  H   UNL     1      77.631  90.883 112.295  1.00  0.00     0.217 HD
ENDBRANCH  43  47
BRANCH  44  49
HETATM   49  O   UNL     1      76.191  90.761 108.959  1.00  0.00    -0.356 OA
HETATM   50  H   UNL     1      76.459  89.874 109.277  1.00  0.00     0.218 HD
ENDBRANCH  44  49
BRANCH  45  51
HETATM   51  O   UNL     1      77.117  92.514 107.070  1.00  0.00    -0.358 OA
HETATM   52  H   UNL     1      76.920  91.581 106.848  1.00  0.00     0.217 HD
ENDBRANCH  45  51
ENDBRANCH  39  41
ENDBRANCH  38  39
ENDBRANCH   6  38
BRANCH   3  53
HETATM   53  O   UNL     1      84.578  89.902 111.665  1.00  0.00    -0.306 OA
BRANCH  53  54
HETATM   54  C   UNL     1      84.469  88.592 111.990  1.00  0.00     0.294 C 
HETATM   55  O   UNL     1      83.630  88.104 112.724  1.00  0.00    -0.259 OA
BRANCH  54  56
HETATM   56  C   UNL     1      85.569  87.817 111.379  1.00  0.00     0.045 A 
HETATM   57  C   UNL     1      86.554  88.516 110.661  1.00  0.00     0.057 A 
HETATM   58  C   UNL     1      87.623  87.812 110.117  1.00  0.00     0.102 A 
HETATM   59  C   UNL     1      87.725  86.438 110.312  1.00  0.00     0.132 A 
HETATM   60  C   UNL     1      86.751  85.755 111.029  1.00  0.00     0.102 A 
HETATM   61  C   UNL     1      85.658  86.430 111.555  1.00  0.00     0.057 A 
BRANCH  58  62
HETATM   62  O   UNL     1      88.602  88.426 109.388  1.00  0.00    -0.358 OA
HETATM   63  H   UNL     1      89.365  88.595 109.968  1.00  0.00     0.217 HD
ENDBRANCH  58  62
BRANCH  59  64
HETATM   64  O   UNL     1      88.788  85.741 109.803  1.00  0.00    -0.356 OA
HETATM   65  H   UNL     1      88.400  84.897 109.494  1.00  0.00     0.218 HD
ENDBRANCH  59  64
BRANCH  60  66
HETATM   66  O   UNL     1      86.867  84.412 111.235  1.00  0.00    -0.358 OA
HETATM   67  H   UNL     1      85.954  84.107 111.412  1.00  0.00     0.217 HD
ENDBRANCH  60  66
ENDBRANCH  54  56
ENDBRANCH  53  54
ENDBRANCH   3  53
BRANCH   5  68
HETATM   68  O   UNL     1      82.236  90.769 110.111  1.00  0.00    -0.388 OA
HETATM   69  H   UNL     1      82.633  90.878 109.226  1.00  0.00     0.210 HD
ENDBRANCH   5  68
TORSDOF 26
ENDMDL
