MODEL 1
REMARK VINA RESULT:      -9.0      0.000      0.000
REMARK  13 active torsions:
REMARK  status: ('A' for Active; 'I' for Inactive)
REMARK    1  A    between atoms: C_2  and  O_12 
REMARK    2  A    between atoms: C_3  and  O_10 
REMARK    3  A    between atoms: C_4  and  O_8 
REMARK    4  A    between atoms: C_5  and  O_6 
REMARK    5  A    between atoms: C_22  and  C_23 
REMARK    6  A    between atoms: O_12  and  C_13 
REMARK    7  A    between atoms: C_13  and  C_14 
REMARK    8  A    between atoms: C_15  and  C_16 
REMARK    9  A    between atoms: C_23  and  O_24 
REMARK   10  A    between atoms: O_24  and  C_25 
REMARK   11  A    between atoms: C_26  and  O_34 
REMARK   12  A    between atoms: C_27  and  O_32 
REMARK   13  A    between atoms: C_28  and  O_30 
ROOT
ATOM      1  O   LIG     1     181.614 177.403 180.101  0.00  0.00    -0.341 OA
ATOM      2  C   LIG     1     182.745 178.208 179.774  0.00  0.00     0.282 C 
ATOM      3  C   LIG     1     183.053 178.117 178.279  0.00  0.00     0.201 C 
ATOM      4  C   LIG     1     181.823 178.453 177.436  0.00  0.00     0.179 C 
ATOM      5  C   LIG     1     180.593 177.686 177.920  0.00  0.00     0.177 C 
ATOM      6  C   LIG     1     180.425 177.831 179.435  0.00  0.00     0.178 C 
ENDROOT
BRANCH   6   7
ATOM      7  C   LIG     1     179.272 176.980 179.960  0.00  0.00     0.197 C 
BRANCH   7   8
ATOM      8  O   LIG     1     179.700 175.632 180.026  0.00  0.00    -0.346 OA
BRANCH   8   9
ATOM      9  C   LIG     1     178.613 174.725 179.885  0.00  0.00     0.281 C 
ATOM     10  O   LIG     1     178.860 173.482 180.552  0.00  0.00    -0.346 OA
ATOM     11  C   LIG     1     179.914 172.718 179.973  0.00  0.00     0.197 C 
ATOM     12  C   LIG     1     179.589 172.365 178.527  0.00  0.00     0.171 C 
ATOM     13  C   LIG     1     179.343 173.632 177.705  0.00  0.00     0.178 C 
ATOM     14  C   LIG     1     178.298 174.514 178.396  0.00  0.00     0.201 C 
BRANCH  12  15
ATOM     15  O   LIG     1     180.648 171.614 177.950  0.00  0.00    -0.387 OA
ATOM     16  H   LIG     1     181.282 171.407 178.659  0.00  0.00     0.210 HD
ENDBRANCH  12  15
BRANCH  13  17
ATOM     17  O   LIG     1     180.566 174.354 177.575  0.00  0.00    -0.386 OA
ATOM     18  H   LIG     1     180.360 175.299 177.674  0.00  0.00     0.210 HD
ENDBRANCH  13  17
BRANCH  14  19
ATOM     19  O   LIG     1     177.018 173.893 178.300  0.00  0.00    -0.384 OA
ATOM     20  H   LIG     1     176.585 174.204 177.487  0.00  0.00     0.210 HD
ENDBRANCH  14  19
ENDBRANCH   8   9
ENDBRANCH   7   8
ENDBRANCH   6   7
BRANCH   5  21
ATOM     21  O   LIG     1     179.433 178.194 177.267  0.00  0.00    -0.386 OA
ATOM     22  H   LIG     1     178.763 177.488 177.255  0.00  0.00     0.210 HD
ENDBRANCH   5  21
BRANCH   2  23
ATOM     23  O   LIG     1     183.889 177.746 180.489  0.00  0.00    -0.345 OA
BRANCH  23  24
ATOM     24  C   LIG     1     184.097 176.357 180.289  0.00  0.00     0.190 C 
BRANCH  24  25
ATOM     25  C   LIG     1     185.516 176.137 179.874  0.00  0.00     0.001 C 
ATOM     26  C   LIG     1     185.872 175.764 178.635  0.00  0.00     0.006 C 
BRANCH  26  27
ATOM     27  C   LIG     1     187.256 175.550 178.177  0.00  0.00    -0.025 A 
ATOM     28  C   LIG     1     187.600 174.339 177.599  0.00  0.00     0.008 A 
ATOM     29  C   LIG     1     188.910 174.137 177.166  0.00  0.00     0.001 A 
ATOM     30  C   LIG     1     189.859 175.148 177.317  0.00  0.00     0.000 A 
ATOM     31  C   LIG     1     189.498 176.362 177.901  0.00  0.00     0.001 A 
ATOM     32  C   LIG     1     188.187 176.564 178.334  0.00  0.00     0.008 A 
ENDBRANCH  26  27
ENDBRANCH  24  25
ENDBRANCH  23  24
ENDBRANCH   2  23
BRANCH   4  33
ATOM     33  O   LIG     1     182.064 178.086 176.076  0.00  0.00    -0.386 OA
ATOM     34  H   LIG     1     182.995 178.290 175.881  0.00  0.00     0.210 HD
ENDBRANCH   4  33
BRANCH   3  35
ATOM     35  O   LIG     1     184.099 179.041 177.981  0.00  0.00    -0.384 OA
ATOM     36  H   LIG     1     184.008 179.311 177.052  0.00  0.00     0.210 HD
ENDBRANCH   3  35
TORSDOF 13
ENDMDL
MODEL 2
REMARK VINA RESULT:      -8.5     26.951     29.767
REMARK  13 active torsions:
REMARK  status: ('A' for Active; 'I' for Inactive)
REMARK    1  A    between atoms: C_2  and  O_12 
REMARK    2  A    between atoms: C_3  and  O_10 
REMARK    3  A    between atoms: C_4  and  O_8 
REMARK    4  A    between atoms: C_5  and  O_6 
REMARK    5  A    between atoms: C_22  and  C_23 
REMARK    6  A    between atoms: O_12  and  C_13 
REMARK    7  A    between atoms: C_13  and  C_14 
REMARK    8  A    between atoms: C_15  and  C_16 
REMARK    9  A    between atoms: C_23  and  O_24 
REMARK   10  A    between atoms: O_24  and  C_25 
REMARK   11  A    between atoms: C_26  and  O_34 
REMARK   12  A    between atoms: C_27  and  O_32 
REMARK   13  A    between atoms: C_28  and  O_30 
ROOT
ATOM      1  O   LIG     1     161.426 187.648 160.333  0.00  0.00    -0.341 OA
ATOM      2  C   LIG     1     162.737 187.111 160.173  0.00  0.00     0.282 C 
ATOM      3  C   LIG     1     162.669 185.695 159.598  0.00  0.00     0.201 C 
ATOM      4  C   LIG     1     161.852 185.657 158.308  0.00  0.00     0.179 C 
ATOM      5  C   LIG     1     160.518 186.383 158.475  0.00  0.00     0.177 C 
ATOM      6  C   LIG     1     160.727 187.768 159.093  0.00  0.00     0.178 C 
ENDROOT
BRANCH   6   7
ATOM      7  C   LIG     1     159.401 188.467 159.378  0.00  0.00     0.197 C 
BRANCH   7   8
ATOM      8  O   LIG     1     158.355 187.522 159.239  0.00  0.00    -0.346 OA
BRANCH   8   9
ATOM      9  C   LIG     1     157.361 187.683 160.245  0.00  0.00     0.281 C 
ATOM     10  O   LIG     1     157.507 186.729 161.303  0.00  0.00    -0.346 OA
ATOM     11  C   LIG     1     157.257 185.384 160.902  0.00  0.00     0.197 C 
ATOM     12  C   LIG     1     155.831 185.233 160.389  0.00  0.00     0.171 C 
ATOM     13  C   LIG     1     155.574 186.187 159.221  0.00  0.00     0.178 C 
ATOM     14  C   LIG     1     155.962 187.617 159.613  0.00  0.00     0.201 C 
BRANCH  12  15
ATOM     15  O   LIG     1     155.590 183.894 159.979  0.00  0.00    -0.387 OA
ATOM     16  H   LIG     1     154.870 183.543 160.531  0.00  0.00     0.210 HD
ENDBRANCH  12  15
BRANCH  13  17
ATOM     17  O   LIG     1     156.348 185.774 158.096  0.00  0.00    -0.386 OA
ATOM     18  H   LIG     1     156.487 184.814 158.173  0.00  0.00     0.210 HD
ENDBRANCH  13  17
BRANCH  14  19
ATOM     19  O   LIG     1     155.025 188.117 160.564  0.00  0.00    -0.384 OA
ATOM     20  H   LIG     1     155.436 188.092 161.444  0.00  0.00     0.210 HD
ENDBRANCH  14  19
ENDBRANCH   8   9
ENDBRANCH   7   8
ENDBRANCH   6   7
BRANCH   5  21
ATOM     21  O   LIG     1     159.894 186.525 157.201  0.00  0.00    -0.386 OA
ATOM     22  H   LIG     1     160.512 186.996 156.616  0.00  0.00     0.210 HD
ENDBRANCH   5  21
BRANCH   2  23
ATOM     23  O   LIG     1     163.388 187.041 161.440  0.00  0.00    -0.345 OA
BRANCH  23  24
ATOM     24  C   LIG     1     164.461 187.966 161.521  0.00  0.00     0.190 C 
BRANCH  24  25
ATOM     25  C   LIG     1     165.529 187.389 162.392  0.00  0.00     0.001 C 
ATOM     26  C   LIG     1     165.679 186.072 162.601  0.00  0.00     0.006 C 
BRANCH  26  27
ATOM     27  C   LIG     1     166.724 185.458 163.438  0.00  0.00    -0.025 A 
ATOM     28  C   LIG     1     168.050 185.805 163.233  0.00  0.00     0.008 A 
ATOM     29  C   LIG     1     169.039 185.224 164.026  0.00  0.00     0.001 A 
ATOM     30  C   LIG     1     168.690 184.302 165.013  0.00  0.00     0.000 A 
ATOM     31  C   LIG     1     167.352 183.962 165.208  0.00  0.00     0.001 A 
ATOM     32  C   LIG     1     166.363 184.544 164.415  0.00  0.00     0.008 A 
ENDBRANCH  26  27
ENDBRANCH  24  25
ENDBRANCH  23  24
ENDBRANCH   2  23
BRANCH   4  33
ATOM     33  O   LIG     1     161.574 184.299 157.961  0.00  0.00    -0.386 OA
ATOM     34  H   LIG     1     161.680 183.765 158.766  0.00  0.00     0.210 HD
ENDBRANCH   4  33
BRANCH   3  35
ATOM     35  O   LIG     1     164.001 185.257 159.330  0.00  0.00    -0.384 OA
ATOM     36  H   LIG     1     163.974 184.301 159.156  0.00  0.00     0.210 HD
ENDBRANCH   3  35
TORSDOF 13
ENDMDL
MODEL 3
REMARK VINA RESULT:      -8.5      2.254      3.789
REMARK  13 active torsions:
REMARK  status: ('A' for Active; 'I' for Inactive)
REMARK    1  A    between atoms: C_2  and  O_12 
REMARK    2  A    between atoms: C_3  and  O_10 
REMARK    3  A    between atoms: C_4  and  O_8 
REMARK    4  A    between atoms: C_5  and  O_6 
REMARK    5  A    between atoms: C_22  and  C_23 
REMARK    6  A    between atoms: O_12  and  C_13 
REMARK    7  A    between atoms: C_13  and  C_14 
REMARK    8  A    between atoms: C_15  and  C_16 
REMARK    9  A    between atoms: C_23  and  O_24 
REMARK   10  A    between atoms: O_24  and  C_25 
REMARK   11  A    between atoms: C_26  and  O_34 
REMARK   12  A    between atoms: C_27  and  O_32 
REMARK   13  A    between atoms: C_28  and  O_30 
ROOT
ATOM      1  O   LIG     1     181.459 176.519 179.094  0.00  0.00    -0.341 OA
ATOM      2  C   LIG     1     182.646 177.308 179.074  0.00  0.00     0.282 C 
ATOM      3  C   LIG     1     182.907 177.848 177.667  0.00  0.00     0.201 C 
ATOM      4  C   LIG     1     181.690 178.595 177.123  0.00  0.00     0.179 C 
ATOM      5  C   LIG     1     180.411 177.779 177.308  0.00  0.00     0.177 C 
ATOM      6  C   LIG     1     180.295 177.270 178.747  0.00  0.00     0.178 C 
ENDROOT
BRANCH   6   7
ATOM      7  C   LIG     1     179.086 176.356 178.927  0.00  0.00     0.197 C 
BRANCH   7   8
ATOM      8  O   LIG     1     178.660 176.433 180.275  0.00  0.00    -0.346 OA
BRANCH   8   9
ATOM      9  C   LIG     1     177.267 176.708 180.373  0.00  0.00     0.281 C 
ATOM     10  O   LIG     1     176.864 177.763 179.492  0.00  0.00    -0.346 OA
ATOM     11  C   LIG     1     177.406 179.036 179.835  0.00  0.00     0.197 C 
ATOM     12  C   LIG     1     176.957 179.454 181.229  0.00  0.00     0.171 C 
ATOM     13  C   LIG     1     177.373 178.408 182.265  0.00  0.00     0.178 C 
ATOM     14  C   LIG     1     176.896 177.018 181.832  0.00  0.00     0.201 C 
BRANCH  12  15
ATOM     15  O   LIG     1     177.510 180.718 181.571  0.00  0.00    -0.387 OA
ATOM     16  H   LIG     1     177.140 180.977 182.432  0.00  0.00     0.210 HD
ENDBRANCH  12  15
BRANCH  13  17
ATOM     17  O   LIG     1     178.794 178.408 182.391  0.00  0.00    -0.386 OA
ATOM     18  H   LIG     1     179.083 177.481 182.445  0.00  0.00     0.210 HD
ENDBRANCH  13  17
BRANCH  14  19
ATOM     19  O   LIG     1     175.477 176.947 181.951  0.00  0.00    -0.384 OA
ATOM     20  H   LIG     1     175.260 176.464 182.766  0.00  0.00     0.210 HD
ENDBRANCH  14  19
ENDBRANCH   8   9
ENDBRANCH   7   8
ENDBRANCH   6   7
BRANCH   5  21
ATOM     21  O   LIG     1     179.283 178.595 177.004  0.00  0.00    -0.386 OA
ATOM     22  H   LIG     1     179.088 178.496 176.056  0.00  0.00     0.210 HD
ENDBRANCH   5  21
BRANCH   2  23
ATOM     23  O   LIG     1     183.764 176.508 179.453  0.00  0.00    -0.345 OA
BRANCH  23  24
ATOM     24  C   LIG     1     184.375 177.000 180.635  0.00  0.00     0.190 C 
BRANCH  24  25
ATOM     25  C   LIG     1     185.837 177.184 180.381  0.00  0.00     0.001 C 
ATOM     26  C   LIG     1     186.565 176.345 179.628  0.00  0.00     0.006 C 
BRANCH  26  27
ATOM     27  C   LIG     1     188.002 176.494 179.338  0.00  0.00    -0.025 A 
ATOM     28  C   LIG     1     188.928 175.880 180.166  0.00  0.00     0.008 A 
ATOM     29  C   LIG     1     190.288 176.021 179.892  0.00  0.00     0.001 A 
ATOM     30  C   LIG     1     190.705 176.775 178.794  0.00  0.00     0.000 A 
ATOM     31  C   LIG     1     189.761 177.387 177.970  0.00  0.00     0.001 A 
ATOM     32  C   LIG     1     188.400 177.246 178.244  0.00  0.00     0.008 A 
ENDBRANCH  26  27
ENDBRANCH  24  25
ENDBRANCH  23  24
ENDBRANCH   2  23
BRANCH   4  33
ATOM     33  O   LIG     1     181.864 178.833 175.725  0.00  0.00    -0.386 OA
ATOM     34  H   LIG     1     181.355 178.155 175.249  0.00  0.00     0.210 HD
ENDBRANCH   4  33
BRANCH   3  35
ATOM     35  O   LIG     1     184.021 178.738 177.730  0.00  0.00    -0.384 OA
ATOM     36  H   LIG     1     184.331 178.896 176.822  0.00  0.00     0.210 HD
ENDBRANCH   3  35
TORSDOF 13
ENDMDL
MODEL 4
REMARK VINA RESULT:      -8.5      1.661      2.291
REMARK  13 active torsions:
REMARK  status: ('A' for Active; 'I' for Inactive)
REMARK    1  A    between atoms: C_2  and  O_12 
REMARK    2  A    between atoms: C_3  and  O_10 
REMARK    3  A    between atoms: C_4  and  O_8 
REMARK    4  A    between atoms: C_5  and  O_6 
REMARK    5  A    between atoms: C_22  and  C_23 
REMARK    6  A    between atoms: O_12  and  C_13 
REMARK    7  A    between atoms: C_13  and  C_14 
REMARK    8  A    between atoms: C_15  and  C_16 
REMARK    9  A    between atoms: C_23  and  O_24 
REMARK   10  A    between atoms: O_24  and  C_25 
REMARK   11  A    between atoms: C_26  and  O_34 
REMARK   12  A    between atoms: C_27  and  O_32 
REMARK   13  A    between atoms: C_28  and  O_30 
ROOT
ATOM      1  O   LIG     1     183.337 178.100 179.712  0.00  0.00    -0.341 OA
ATOM      2  C   LIG     1     184.652 178.529 179.367  0.00  0.00     0.282 C 
ATOM      3  C   LIG     1     185.109 177.865 178.068  0.00  0.00     0.201 C 
ATOM      4  C   LIG     1     184.099 178.090 176.943  0.00  0.00     0.179 C 
ATOM      5  C   LIG     1     182.678 177.770 177.403  0.00  0.00     0.177 C 
ATOM      6  C   LIG     1     182.366 178.466 178.730  0.00  0.00     0.178 C 
ENDROOT
BRANCH   6   7
ATOM      7  C   LIG     1     180.995 178.068 179.269  0.00  0.00     0.197 C 
BRANCH   7   8
ATOM      8  O   LIG     1     180.618 176.838 178.678  0.00  0.00    -0.346 OA
BRANCH   8   9
ATOM      9  C   LIG     1     179.280 176.872 178.194  0.00  0.00     0.281 C 
ATOM     10  O   LIG     1     178.331 176.541 179.215  0.00  0.00    -0.346 OA
ATOM     11  C   LIG     1     178.414 175.189 179.660  0.00  0.00     0.197 C 
ATOM     12  C   LIG     1     178.150 174.228 178.508  0.00  0.00     0.171 C 
ATOM     13  C   LIG     1     179.140 174.468 177.367  0.00  0.00     0.178 C 
ATOM     14  C   LIG     1     179.141 175.949 176.973  0.00  0.00     0.201 C 
BRANCH  12  15
ATOM     15  O   LIG     1     178.245 172.882 178.954  0.00  0.00    -0.387 OA
ATOM     16  H   LIG     1     177.819 172.831 179.827  0.00  0.00     0.210 HD
ENDBRANCH  12  15
BRANCH  13  17
ATOM     17  O   LIG     1     180.447 174.085 177.790  0.00  0.00    -0.386 OA
ATOM     18  H   LIG     1     181.039 174.169 177.022  0.00  0.00     0.210 HD
ENDBRANCH  13  17
BRANCH  14  19
ATOM     19  O   LIG     1     177.915 176.265 176.319  0.00  0.00    -0.384 OA
ATOM     20  H   LIG     1     178.103 176.882 175.592  0.00  0.00     0.210 HD
ENDBRANCH  14  19
ENDBRANCH   8   9
ENDBRANCH   7   8
ENDBRANCH   6   7
BRANCH   5  21
ATOM     21  O   LIG     1     181.751 178.207 176.412  0.00  0.00    -0.386 OA
ATOM     22  H   LIG     1     180.984 178.595 176.869  0.00  0.00     0.210 HD
ENDBRANCH   5  21
BRANCH   2  23
ATOM     23  O   LIG     1     185.566 178.158 180.397  0.00  0.00    -0.345 OA
BRANCH  23  24
ATOM     24  C   LIG     1     185.369 176.812 180.802  0.00  0.00     0.190 C 
BRANCH  24  25
ATOM     25  C   LIG     1     186.445 175.966 180.202  0.00  0.00     0.001 C 
ATOM     26  C   LIG     1     187.704 176.392 180.021  0.00  0.00     0.006 C 
BRANCH  26  27
ATOM     27  C   LIG     1     188.799 175.590 179.448  0.00  0.00    -0.025 A 
ATOM     28  C   LIG     1     189.213 175.837 178.149  0.00  0.00     0.008 A 
ATOM     29  C   LIG     1     190.250 175.077 177.607  0.00  0.00     0.001 A 
ATOM     30  C   LIG     1     190.857 174.080 178.370  0.00  0.00     0.000 A 
ATOM     31  C   LIG     1     190.429 173.843 179.676  0.00  0.00     0.001 A 
ATOM     32  C   LIG     1     189.393 174.603 180.218  0.00  0.00     0.008 A 
ENDBRANCH  26  27
ENDBRANCH  24  25
ENDBRANCH  23  24
ENDBRANCH   2  23
BRANCH   4  33
ATOM     33  O   LIG     1     184.412 177.232 175.845  0.00  0.00    -0.386 OA
ATOM     34  H   LIG     1     185.380 177.210 175.759  0.00  0.00     0.210 HD
ENDBRANCH   4  33
BRANCH   3  35
ATOM     35  O   LIG     1     186.367 178.429 177.696  0.00  0.00    -0.384 OA
ATOM     36  H   LIG     1     186.458 179.285 178.147  0.00  0.00     0.210 HD
ENDBRANCH   3  35
TORSDOF 13
ENDMDL
MODEL 5
REMARK VINA RESULT:      -8.4     14.072     19.026
REMARK  13 active torsions:
REMARK  status: ('A' for Active; 'I' for Inactive)
REMARK    1  A    between atoms: C_2  and  O_12 
REMARK    2  A    between atoms: C_3  and  O_10 
REMARK    3  A    between atoms: C_4  and  O_8 
REMARK    4  A    between atoms: C_5  and  O_6 
REMARK    5  A    between atoms: C_22  and  C_23 
REMARK    6  A    between atoms: O_12  and  C_13 
REMARK    7  A    between atoms: C_13  and  C_14 
REMARK    8  A    between atoms: C_15  and  C_16 
REMARK    9  A    between atoms: C_23  and  O_24 
REMARK   10  A    between atoms: O_24  and  C_25 
REMARK   11  A    between atoms: C_26  and  O_34 
REMARK   12  A    between atoms: C_27  and  O_32 
REMARK   13  A    between atoms: C_28  and  O_30 
ROOT
ATOM      1  O   LIG     1     166.741 180.980 171.570  0.00  0.00    -0.341 OA
ATOM      2  C   LIG     1     165.465 180.364 171.727  0.00  0.00     0.282 C 
ATOM      3  C   LIG     1     165.444 178.995 171.045  0.00  0.00     0.201 C 
ATOM      4  C   LIG     1     166.591 178.113 171.534  0.00  0.00     0.179 C 
ATOM      5  C   LIG     1     167.921 178.864 171.500  0.00  0.00     0.177 C 
ATOM      6  C   LIG     1     167.791 180.229 172.181  0.00  0.00     0.178 C 
ENDROOT
BRANCH   6   7
ATOM      7  C   LIG     1     169.074 181.047 172.058  0.00  0.00     0.197 C 
BRANCH   7   8
ATOM      8  O   LIG     1     170.055 180.475 172.904  0.00  0.00    -0.346 OA
BRANCH   8   9
ATOM      9  C   LIG     1     171.370 180.878 172.535  0.00  0.00     0.281 C 
ATOM     10  O   LIG     1     171.737 180.391 171.240  0.00  0.00    -0.346 OA
ATOM     11  C   LIG     1     171.870 178.973 171.175  0.00  0.00     0.197 C 
ATOM     12  C   LIG     1     172.954 178.492 172.131  0.00  0.00     0.171 C 
ATOM     13  C   LIG     1     172.640 178.927 173.564  0.00  0.00     0.178 C 
ATOM     14  C   LIG     1     172.373 180.435 173.611  0.00  0.00     0.201 C 
BRANCH  12  15
ATOM     15  O   LIG     1     173.074 177.077 172.072  0.00  0.00    -0.387 OA
ATOM     16  H   LIG     1     173.242 176.759 172.976  0.00  0.00     0.210 HD
ENDBRANCH  12  15
BRANCH  13  17
ATOM     17  O   LIG     1     171.489 178.223 174.029  0.00  0.00    -0.386 OA
ATOM     18  H   LIG     1     171.368 177.448 173.455  0.00  0.00     0.210 HD
ENDBRANCH  13  17
BRANCH  14  19
ATOM     19  O   LIG     1     173.594 181.137 173.391  0.00  0.00    -0.384 OA
ATOM     20  H   LIG     1     174.115 180.650 172.731  0.00  0.00     0.210 HD
ENDBRANCH  14  19
ENDBRANCH   8   9
ENDBRANCH   7   8
ENDBRANCH   6   7
BRANCH   5  21
ATOM     21  O   LIG     1     168.915 178.095 172.173  0.00  0.00    -0.386 OA
ATOM     22  H   LIG     1     169.638 177.924 171.544  0.00  0.00     0.210 HD
ENDBRANCH   5  21
BRANCH   2  23
ATOM     23  O   LIG     1     164.460 181.174 171.119  0.00  0.00    -0.345 OA
BRANCH  23  24
ATOM     24  C   LIG     1     163.675 181.841 172.094  0.00  0.00     0.190 C 
BRANCH  24  25
ATOM     25  C   LIG     1     163.258 180.853 173.135  0.00  0.00     0.001 C 
ATOM     26  C   LIG     1     162.029 180.316 173.192  0.00  0.00     0.006 C 
BRANCH  26  27
ATOM     27  C   LIG     1     161.578 179.330 174.189  0.00  0.00    -0.025 A 
ATOM     28  C   LIG     1     160.300 179.430 174.714  0.00  0.00     0.008 A 
ATOM     29  C   LIG     1     159.874 178.496 175.658  0.00  0.00     0.001 A 
ATOM     30  C   LIG     1     160.731 177.475 176.065  0.00  0.00     0.000 A 
ATOM     31  C   LIG     1     162.015 177.386 175.528  0.00  0.00     0.001 A 
ATOM     32  C   LIG     1     162.442 178.320 174.584  0.00  0.00     0.008 A 
ENDBRANCH  26  27
ENDBRANCH  24  25
ENDBRANCH  23  24
ENDBRANCH   2  23
BRANCH   4  33
ATOM     33  O   LIG     1     166.708 176.971 170.683  0.00  0.00    -0.386 OA
ATOM     34  H   LIG     1     166.057 176.315 170.985  0.00  0.00     0.210 HD
ENDBRANCH   4  33
BRANCH   3  35
ATOM     35  O   LIG     1     164.199 178.365 171.346  0.00  0.00    -0.384 OA
ATOM     36  H   LIG     1     163.494 178.862 170.898  0.00  0.00     0.210 HD
ENDBRANCH   3  35
TORSDOF 13
ENDMDL
MODEL 6
REMARK VINA RESULT:      -8.1     36.422     39.515
REMARK  13 active torsions:
REMARK  status: ('A' for Active; 'I' for Inactive)
REMARK    1  A    between atoms: C_2  and  O_12 
REMARK    2  A    between atoms: C_3  and  O_10 
REMARK    3  A    between atoms: C_4  and  O_8 
REMARK    4  A    between atoms: C_5  and  O_6 
REMARK    5  A    between atoms: C_22  and  C_23 
REMARK    6  A    between atoms: O_12  and  C_13 
REMARK    7  A    between atoms: C_13  and  C_14 
REMARK    8  A    between atoms: C_15  and  C_16 
REMARK    9  A    between atoms: C_23  and  O_24 
REMARK   10  A    between atoms: O_24  and  C_25 
REMARK   11  A    between atoms: C_26  and  O_34 
REMARK   12  A    between atoms: C_27  and  O_32 
REMARK   13  A    between atoms: C_28  and  O_30 
ROOT
ATOM      1  O   LIG     1     153.947 188.823 154.079  0.00  0.00    -0.341 OA
ATOM      2  C   LIG     1     152.883 189.333 153.279  0.00  0.00     0.282 C 
ATOM      3  C   LIG     1     151.552 188.705 153.696  0.00  0.00     0.201 C 
ATOM      4  C   LIG     1     151.301 188.875 155.193  0.00  0.00     0.179 C 
ATOM      5  C   LIG     1     152.526 188.467 156.010  0.00  0.00     0.177 C 
ATOM      6  C   LIG     1     153.791 189.136 155.464  0.00  0.00     0.178 C 
ENDROOT
BRANCH   6   7
ATOM      7  C   LIG     1     155.043 188.653 156.190  0.00  0.00     0.197 C 
BRANCH   7   8
ATOM      8  O   LIG     1     154.824 187.327 156.635  0.00  0.00    -0.346 OA
BRANCH   8   9
ATOM      9  C   LIG     1     156.047 186.628 156.837  0.00  0.00     0.281 C 
ATOM     10  O   LIG     1     155.837 185.230 157.059  0.00  0.00    -0.346 OA
ATOM     11  C   LIG     1     155.164 184.937 158.282  0.00  0.00     0.197 C 
ATOM     12  C   LIG     1     155.972 185.438 159.472  0.00  0.00     0.171 C 
ATOM     13  C   LIG     1     156.225 186.943 159.356  0.00  0.00     0.178 C 
ATOM     14  C   LIG     1     156.834 187.272 157.989  0.00  0.00     0.201 C 
BRANCH  12  15
ATOM     15  O   LIG     1     155.293 185.155 160.687  0.00  0.00    -0.387 OA
ATOM     16  H   LIG     1     155.117 186.003 161.130  0.00  0.00     0.210 HD
ENDBRANCH  12  15
BRANCH  13  17
ATOM     17  O   LIG     1     154.991 187.641 159.510  0.00  0.00    -0.386 OA
ATOM     18  H   LIG     1     154.970 188.004 160.413  0.00  0.00     0.210 HD
ENDBRANCH  13  17
BRANCH  14  19
ATOM     19  O   LIG     1     158.171 186.782 157.938  0.00  0.00    -0.384 OA
ATOM     20  H   LIG     1     158.313 186.363 157.073  0.00  0.00     0.210 HD
ENDBRANCH  14  19
ENDBRANCH   8   9
ENDBRANCH   7   8
ENDBRANCH   6   7
BRANCH   5  21
ATOM     21  O   LIG     1     152.338 188.855 157.369  0.00  0.00    -0.386 OA
ATOM     22  H   LIG     1     153.198 189.144 157.720  0.00  0.00     0.210 HD
ENDBRANCH   5  21
BRANCH   2  23
ATOM     23  O   LIG     1     153.113 189.010 151.909  0.00  0.00    -0.345 OA
BRANCH  23  24
ATOM     24  C   LIG     1     153.538 190.147 151.175  0.00  0.00     0.190 C 
BRANCH  24  25
ATOM     25  C   LIG     1     154.502 189.707 150.121  0.00  0.00     0.001 C 
ATOM     26  C   LIG     1     155.592 190.412 149.778  0.00  0.00     0.006 C 
BRANCH  26  27
ATOM     27  C   LIG     1     156.576 190.011 148.758  0.00  0.00    -0.025 A 
ATOM     28  C   LIG     1     156.232 189.048 147.823  0.00  0.00     0.008 A 
ATOM     29  C   LIG     1     157.164 188.669 146.858  0.00  0.00     0.001 A 
ATOM     30  C   LIG     1     158.429 189.257 146.840  0.00  0.00     0.000 A 
ATOM     31  C   LIG     1     158.762 190.224 147.787  0.00  0.00     0.001 A 
ATOM     32  C   LIG     1     157.829 190.604 148.753  0.00  0.00     0.008 A 
ENDBRANCH  26  27
ENDBRANCH  24  25
ENDBRANCH  23  24
ENDBRANCH   2  23
BRANCH   4  33
ATOM     33  O   LIG     1     150.209 188.044 155.590  0.00  0.00    -0.386 OA
ATOM     34  H   LIG     1     150.484 187.564 156.389  0.00  0.00     0.210 HD
ENDBRANCH   4  33
BRANCH   3  35
ATOM     35  O   LIG     1     150.508 189.345 152.963  0.00  0.00    -0.384 OA
ATOM     36  H   LIG     1     150.678 189.212 152.016  0.00  0.00     0.210 HD
ENDBRANCH   3  35
TORSDOF 13
ENDMDL
MODEL 7
REMARK VINA RESULT:      -8.1     14.097     19.080
REMARK  13 active torsions:
REMARK  status: ('A' for Active; 'I' for Inactive)
REMARK    1  A    between atoms: C_2  and  O_12 
REMARK    2  A    between atoms: C_3  and  O_10 
REMARK    3  A    between atoms: C_4  and  O_8 
REMARK    4  A    between atoms: C_5  and  O_6 
REMARK    5  A    between atoms: C_22  and  C_23 
REMARK    6  A    between atoms: O_12  and  C_13 
REMARK    7  A    between atoms: C_13  and  C_14 
REMARK    8  A    between atoms: C_15  and  C_16 
REMARK    9  A    between atoms: C_23  and  O_24 
REMARK   10  A    between atoms: O_24  and  C_25 
REMARK   11  A    between atoms: C_26  and  O_34 
REMARK   12  A    between atoms: C_27  and  O_32 
REMARK   13  A    between atoms: C_28  and  O_30 
ROOT
ATOM      1  O   LIG     1     166.807 178.688 171.520  0.00  0.00    -0.341 OA
ATOM      2  C   LIG     1     165.669 179.447 171.118  0.00  0.00     0.282 C 
ATOM      3  C   LIG     1     165.731 180.857 171.706  0.00  0.00     0.201 C 
ATOM      4  C   LIG     1     167.052 181.545 171.364  0.00  0.00     0.179 C 
ATOM      5  C   LIG     1     168.243 180.636 171.661  0.00  0.00     0.177 C 
ATOM      6  C   LIG     1     168.034 179.248 171.049  0.00  0.00     0.178 C 
ENDROOT
BRANCH   6   7
ATOM      7  C   LIG     1     169.156 178.287 171.430  0.00  0.00     0.197 C 
BRANCH   7   8
ATOM      8  O   LIG     1     169.907 178.866 172.482  0.00  0.00    -0.346 OA
BRANCH   8   9
ATOM      9  C   LIG     1     170.971 178.017 172.900  0.00  0.00     0.281 C 
ATOM     10  O   LIG     1     171.470 178.379 174.192  0.00  0.00    -0.346 OA
ATOM     11  C   LIG     1     172.120 179.647 174.223  0.00  0.00     0.197 C 
ATOM     12  C   LIG     1     173.321 179.657 173.286  0.00  0.00     0.171 C 
ATOM     13  C   LIG     1     172.894 179.319 171.857  0.00  0.00     0.178 C 
ATOM     14  C   LIG     1     172.086 178.017 171.843  0.00  0.00     0.201 C 
BRANCH  12  15
ATOM     15  O   LIG     1     173.959 180.927 173.311  0.00  0.00    -0.387 OA
ATOM     16  H   LIG     1     174.896 180.790 173.089  0.00  0.00     0.210 HD
ENDBRANCH  12  15
BRANCH  13  17
ATOM     17  O   LIG     1     172.095 180.382 171.339  0.00  0.00    -0.386 OA
ATOM     18  H   LIG     1     171.175 180.069 171.308  0.00  0.00     0.210 HD
ENDBRANCH  13  17
BRANCH  14  19
ATOM     19  O   LIG     1     172.953 176.920 172.117  0.00  0.00    -0.384 OA
ATOM     20  H   LIG     1     173.600 177.199 172.786  0.00  0.00     0.210 HD
ENDBRANCH  14  19
ENDBRANCH   8   9
ENDBRANCH   7   8
ENDBRANCH   6   7
BRANCH   5  21
ATOM     21  O   LIG     1     169.427 181.216 171.119  0.00  0.00    -0.386 OA
ATOM     22  H   LIG     1     169.252 181.442 170.189  0.00  0.00     0.210 HD
ENDBRANCH   5  21
BRANCH   2  23
ATOM     23  O   LIG     1     164.479 178.822 171.597  0.00  0.00    -0.345 OA
BRANCH  23  24
ATOM     24  C   LIG     1     164.474 178.737 173.013  0.00  0.00     0.190 C 
BRANCH  24  25
ATOM     25  C   LIG     1     163.060 178.630 173.484  0.00  0.00     0.001 C 
ATOM     26  C   LIG     1     162.721 178.199 174.708  0.00  0.00     0.006 C 
BRANCH  26  27
ATOM     27  C   LIG     1     161.344 178.092 175.220  0.00  0.00    -0.025 A 
ATOM     28  C   LIG     1     160.941 176.923 175.847  0.00  0.00     0.008 A 
ATOM     29  C   LIG     1     159.637 176.822 176.331  0.00  0.00     0.001 A 
ATOM     30  C   LIG     1     158.753 177.890 176.183  0.00  0.00     0.000 A 
ATOM     31  C   LIG     1     159.172 179.060 175.550  0.00  0.00     0.001 A 
ATOM     32  C   LIG     1     160.476 179.161 175.066  0.00  0.00     0.008 A 
ENDBRANCH  26  27
ENDBRANCH  24  25
ENDBRANCH  23  24
ENDBRANCH   2  23
BRANCH   4  33
ATOM     33  O   LIG     1     167.191 182.728 172.154  0.00  0.00    -0.386 OA
ATOM     34  H   LIG     1     166.481 183.338 171.892  0.00  0.00     0.210 HD
ENDBRANCH   4  33
BRANCH   3  35
ATOM     35  O   LIG     1     164.648 181.615 171.167  0.00  0.00    -0.384 OA
ATOM     36  H   LIG     1     164.799 182.551 171.379  0.00  0.00     0.210 HD
ENDBRANCH   3  35
TORSDOF 13
ENDMDL
MODEL 8
REMARK VINA RESULT:      -8.1     37.558     39.992
REMARK  13 active torsions:
REMARK  status: ('A' for Active; 'I' for Inactive)
REMARK    1  A    between atoms: C_2  and  O_12 
REMARK    2  A    between atoms: C_3  and  O_10 
REMARK    3  A    between atoms: C_4  and  O_8 
REMARK    4  A    between atoms: C_5  and  O_6 
REMARK    5  A    between atoms: C_22  and  C_23 
REMARK    6  A    between atoms: O_12  and  C_13 
REMARK    7  A    between atoms: C_13  and  C_14 
REMARK    8  A    between atoms: C_15  and  C_16 
REMARK    9  A    between atoms: C_23  and  O_24 
REMARK   10  A    between atoms: O_24  and  C_25 
REMARK   11  A    between atoms: C_26  and  O_34 
REMARK   12  A    between atoms: C_27  and  O_32 
REMARK   13  A    between atoms: C_28  and  O_30 
ROOT
ATOM      1  O   LIG     1     156.959 174.575 149.314  0.00  0.00    -0.341 OA
ATOM      2  C   LIG     1     158.090 175.230 149.882  0.00  0.00     0.282 C 
ATOM      3  C   LIG     1     157.741 176.670 150.261  0.00  0.00     0.201 C 
ATOM      4  C   LIG     1     156.510 176.725 151.164  0.00  0.00     0.179 C 
ATOM      5  C   LIG     1     155.370 175.879 150.598  0.00  0.00     0.177 C 
ATOM      6  C   LIG     1     155.864 174.479 150.226  0.00  0.00     0.178 C 
ENDROOT
BRANCH   6   7
ATOM      7  C   LIG     1     154.772 173.654 149.552  0.00  0.00     0.197 C 
BRANCH   7   8
ATOM      8  O   LIG     1     153.812 173.294 150.528  0.00  0.00    -0.346 OA
BRANCH   8   9
ATOM      9  C   LIG     1     152.624 172.779 149.936  0.00  0.00     0.281 C 
ATOM     10  O   LIG     1     151.619 173.788 149.786  0.00  0.00    -0.346 OA
ATOM     11  C   LIG     1     151.104 174.274 151.023  0.00  0.00     0.197 C 
ATOM     12  C   LIG     1     150.458 173.146 151.817  0.00  0.00     0.171 C 
ATOM     13  C   LIG     1     151.463 172.021 152.070  0.00  0.00     0.178 C 
ATOM     14  C   LIG     1     152.109 171.583 150.751  0.00  0.00     0.201 C 
BRANCH  12  15
ATOM     15  O   LIG     1     149.957 173.633 153.054  0.00  0.00    -0.387 OA
ATOM     16  H   LIG     1     150.515 173.266 153.762  0.00  0.00     0.210 HD
ENDBRANCH  12  15
BRANCH  13  17
ATOM     17  O   LIG     1     152.472 172.483 152.966  0.00  0.00    -0.386 OA
ATOM     18  H   LIG     1     152.647 171.770 153.604  0.00  0.00     0.210 HD
ENDBRANCH  13  17
BRANCH  14  19
ATOM     19  O   LIG     1     151.145 170.893 149.960  0.00  0.00    -0.384 OA
ATOM     20  H   LIG     1     150.278 171.310 150.097  0.00  0.00     0.210 HD
ENDBRANCH  14  19
ENDBRANCH   8   9
ENDBRANCH   7   8
ENDBRANCH   6   7
BRANCH   5  21
ATOM     21  O   LIG     1     154.334 175.771 151.571  0.00  0.00    -0.386 OA
ATOM     22  H   LIG     1     154.301 174.846 151.872  0.00  0.00     0.210 HD
ENDBRANCH   5  21
BRANCH   2  23
ATOM     23  O   LIG     1     159.153 175.269 148.931  0.00  0.00    -0.345 OA
BRANCH  23  24
ATOM     24  C   LIG     1     159.573 173.963 148.571  0.00  0.00     0.190 C 
BRANCH  24  25
ATOM     25  C   LIG     1     160.088 173.992 147.168  0.00  0.00     0.001 C 
ATOM     26  C   LIG     1     159.785 173.060 146.252  0.00  0.00     0.006 C 
BRANCH  26  27
ATOM     27  C   LIG     1     160.256 173.056 144.856  0.00  0.00    -0.025 A 
ATOM     28  C   LIG     1     161.596 173.291 144.591  0.00  0.00     0.008 A 
ATOM     29  C   LIG     1     162.041 173.287 143.270  0.00  0.00     0.001 A 
ATOM     30  C   LIG     1     161.142 173.048 142.231  0.00  0.00     0.000 A 
ATOM     31  C   LIG     1     159.797 172.813 142.513  0.00  0.00     0.001 A 
ATOM     32  C   LIG     1     159.351 172.817 143.835  0.00  0.00     0.008 A 
ENDBRANCH  26  27
ENDBRANCH  24  25
ENDBRANCH  23  24
ENDBRANCH   2  23
BRANCH   4  33
ATOM     33  O   LIG     1     156.052 178.075 151.262  0.00  0.00    -0.386 OA
ATOM     34  H   LIG     1     155.101 178.045 151.462  0.00  0.00     0.210 HD
ENDBRANCH   4  33
BRANCH   3  35
ATOM     35  O   LIG     1     158.858 177.235 150.946  0.00  0.00    -0.384 OA
ATOM     36  H   LIG     1     158.570 178.067 151.357  0.00  0.00     0.210 HD
ENDBRANCH   3  35
TORSDOF 13
ENDMDL
MODEL 9
REMARK VINA RESULT:      -8.0     14.886     18.359
REMARK  13 active torsions:
REMARK  status: ('A' for Active; 'I' for Inactive)
REMARK    1  A    between atoms: C_2  and  O_12 
REMARK    2  A    between atoms: C_3  and  O_10 
REMARK    3  A    between atoms: C_4  and  O_8 
REMARK    4  A    between atoms: C_5  and  O_6 
REMARK    5  A    between atoms: C_22  and  C_23 
REMARK    6  A    between atoms: O_12  and  C_13 
REMARK    7  A    between atoms: C_13  and  C_14 
REMARK    8  A    between atoms: C_15  and  C_16 
REMARK    9  A    between atoms: C_23  and  O_24 
REMARK   10  A    between atoms: O_24  and  C_25 
REMARK   11  A    between atoms: C_26  and  O_34 
REMARK   12  A    between atoms: C_27  and  O_32 
REMARK   13  A    between atoms: C_28  and  O_30 
ROOT
ATOM      1  O   LIG     1     171.639 183.267 168.394  0.00  0.00    -0.341 OA
ATOM      2  C   LIG     1     172.360 184.346 167.804  0.00  0.00     0.282 C 
ATOM      3  C   LIG     1     171.938 185.677 168.428  0.00  0.00     0.201 C 
ATOM      4  C   LIG     1     172.064 185.643 169.951  0.00  0.00     0.179 C 
ATOM      5  C   LIG     1     171.416 184.387 170.532  0.00  0.00     0.177 C 
ATOM      6  C   LIG     1     171.896 183.135 169.793  0.00  0.00     0.178 C 
ENDROOT
BRANCH   6   7
ATOM      7  C   LIG     1     171.175 181.881 170.278  0.00  0.00     0.197 C 
BRANCH   7   8
ATOM      8  O   LIG     1     171.960 181.272 171.287  0.00  0.00    -0.346 OA
BRANCH   8   9
ATOM      9  C   LIG     1     171.723 179.870 171.366  0.00  0.00     0.281 C 
ATOM     10  O   LIG     1     170.668 179.554 172.281  0.00  0.00    -0.346 OA
ATOM     11  C   LIG     1     170.981 179.843 173.641  0.00  0.00     0.197 C 
ATOM     12  C   LIG     1     172.192 179.038 174.096  0.00  0.00     0.171 C 
ATOM     13  C   LIG     1     173.400 179.330 173.204  0.00  0.00     0.178 C 
ATOM     14  C   LIG     1     173.025 179.140 171.730  0.00  0.00     0.201 C 
BRANCH  12  15
ATOM     15  O   LIG     1     172.507 179.338 175.448  0.00  0.00    -0.387 OA
ATOM     16  H   LIG     1     172.895 178.539 175.844  0.00  0.00     0.210 HD
ENDBRANCH  12  15
BRANCH  13  17
ATOM     17  O   LIG     1     173.830 180.673 173.418  0.00  0.00    -0.386 OA
ATOM     18  H   LIG     1     174.479 180.886 172.726  0.00  0.00     0.210 HD
ENDBRANCH  13  17
BRANCH  14  19
ATOM     19  O   LIG     1     172.840 177.751 171.465  0.00  0.00    -0.384 OA
ATOM     20  H   LIG     1     173.385 177.509 170.698  0.00  0.00     0.210 HD
ENDBRANCH  14  19
ENDBRANCH   8   9
ENDBRANCH   7   8
ENDBRANCH   6   7
BRANCH   5  21
ATOM     21  O   LIG     1     171.753 184.278 171.913  0.00  0.00    -0.386 OA
ATOM     22  H   LIG     1     171.194 183.583 172.303  0.00  0.00     0.210 HD
ENDBRANCH   5  21
BRANCH   2  23
ATOM     23  O   LIG     1     172.081 184.406 166.407  0.00  0.00    -0.345 OA
BRANCH  23  24
ATOM     24  C   LIG     1     170.893 183.700 166.087  0.00  0.00     0.190 C 
BRANCH  24  25
ATOM     25  C   LIG     1     169.973 184.616 165.345  0.00  0.00     0.001 C 
ATOM     26  C   LIG     1     168.845 184.202 164.747  0.00  0.00     0.006 C 
BRANCH  26  27
ATOM     27  C   LIG     1     167.903 185.069 164.019  0.00  0.00    -0.025 A 
ATOM     28  C   LIG     1     166.569 184.702 163.935  0.00  0.00     0.008 A 
ATOM     29  C   LIG     1     165.677 185.523 163.245  0.00  0.00     0.001 A 
ATOM     30  C   LIG     1     166.130 186.700 162.648  0.00  0.00     0.000 A 
ATOM     31  C   LIG     1     167.475 187.056 162.741  0.00  0.00     0.001 A 
ATOM     32  C   LIG     1     168.367 186.234 163.431  0.00  0.00     0.008 A 
ENDBRANCH  26  27
ENDBRANCH  24  25
ENDBRANCH  23  24
ENDBRANCH   2  23
BRANCH   4  33
ATOM     33  O   LIG     1     171.403 186.780 170.508  0.00  0.00    -0.386 OA
ATOM     34  H   LIG     1     170.861 187.176 169.805  0.00  0.00     0.210 HD
ENDBRANCH   4  33
BRANCH   3  35
ATOM     35  O   LIG     1     172.781 186.703 167.905  0.00  0.00    -0.384 OA
ATOM     36  H   LIG     1     173.685 186.352 167.850  0.00  0.00     0.210 HD
ENDBRANCH   3  35
TORSDOF 13
ENDMDL
