REMARK  Name = 2520
REMARK  21 active torsions:
REMARK  status: ('A' for Active; 'I' for Inactive)
REMARK    1  A    between atoms: O_1  and  C_19
REMARK    2  A    between atoms: O_1  and  C_28
REMARK    3  A    between atoms: O_2  and  C_23
REMARK    4  A    between atoms: O_2  and  C_31
REMARK    5  A    between atoms: O_3  and  C_27
REMARK    6  A    between atoms: O_3  and  C_32
REMARK    7  A    between atoms: O_4  and  C_30
REMARK    8  A    between atoms: O_4  and  C_33
REMARK    9  A    between atoms: N_5  and  C_12
REMARK   10  A    between atoms: N_5  and  C_18
REMARK   11  A    between atoms: N_5  and  C_20
REMARK   12  A    between atoms: C_7  and  C_8
REMARK   13  A    between atoms: C_7  and  C_9
REMARK   14  A    between atoms: C_7  and  C_11
REMARK   15  A    between atoms: C_7  and  C_15
REMARK   16  A    between atoms: C_8  and  C_13
REMARK   17  A    between atoms: C_8  and  C_14
REMARK   18  A    between atoms: C_9  and  C_10
REMARK   19  A    between atoms: C_10  and  C_12
REMARK   20  A    between atoms: C_18  and  C_22
REMARK   21  A    between atoms: C_22  and  C_24
REMARK                            x       y       z     vdW  Elec       q    Type
REMARK                         _______ _______ _______ _____ _____    ______ ____
ROOT
ATOM      1  C   UNL     1      -2.350  -2.198   0.039  0.00  0.00    +0.028 C 
ENDROOT
BRANCH   1   2
ATOM      2  C   UNL     1      -3.433  -1.142   0.465  0.00  0.00    +0.085 C 
BRANCH   2   7
ATOM      3  C   UNL     1      -2.970   2.462  -0.759  0.00  0.00    +0.162 A 
ATOM      4  C   UNL     1      -1.838   2.859  -0.046  0.00  0.00    +0.162 A 
ATOM      5  C   UNL     1      -1.220   1.968   0.832  0.00  0.00    +0.050 A 
ATOM      6  C   UNL     1      -1.732   0.681   0.996  0.00  0.00    +0.009 A 
ATOM      7  C   UNL     1      -2.864   0.285   0.283  0.00  0.00    -0.024 A 
ATOM      8  C   UNL     1      -3.483   1.176  -0.595  0.00  0.00    +0.054 A 
BRANCH   3   9
ATOM      9  O   UNL     1      -3.583   3.323  -1.619  0.00  0.00    -0.491 OA
ATOM     10  C   UNL     1      -4.734   2.840  -2.308  0.00  0.00    +0.277 C 
ENDBRANCH   3   9
BRANCH   4  11
ATOM     11  O   UNL     1      -1.328   4.113  -0.197  0.00  0.00    -0.491 OA
ATOM     12  C   UNL     1      -0.170   4.438   0.568  0.00  0.00    +0.277 C 
ENDBRANCH   4  11
ENDBRANCH   2   7
BRANCH   2  13
ATOM     13  C   UNL     1      -3.823  -1.352   1.990  0.00  0.00    +0.007 C 
ATOM     14  C   UNL     1      -4.906  -0.371   2.480  0.00  0.00    +0.009 C 
ATOM     15  C   UNL     1      -4.271  -2.782   2.337  0.00  0.00    +0.009 C 
ENDBRANCH   2  13
BRANCH   2  16
ATOM     16  C   UNL     1      -4.642  -1.400  -0.370  0.00  0.00    +0.074 C 
ATOM     17  N   UNL     1      -5.581  -1.617  -1.016  0.00  0.00    -0.196 NA
ENDBRANCH   2  16
ENDBRANCH   1   2
BRANCH   1  18
ATOM     18  C   UNL     1      -1.637  -1.903  -1.298  0.00  0.00    +0.017 C 
BRANCH  18  19
ATOM     19  C   UNL     1      -0.659  -3.010  -1.704  0.00  0.00    +0.084 C 
BRANCH  19  20
ATOM     20  N   UNL     1       0.380  -3.214  -0.703  0.00  0.00    -0.305 NA
ATOM     21  C   UNL     1       0.982  -4.541  -0.847  0.00  0.00    +0.104 C 
BRANCH  20  22
ATOM     22  C   UNL     1       1.409  -2.177  -0.808  0.00  0.00    +0.088 C 
BRANCH  22  23
ATOM     23  C   UNL     1       2.136  -1.990   0.523  0.00  0.00    +0.050 C 
BRANCH  23  24
ATOM     24  C   UNL     1       3.184  -0.908   0.435  0.00  0.00    -0.042 A 
ATOM     25  C   UNL     1       2.847   0.414   0.726  0.00  0.00    +0.007 A 
ATOM     26  C   UNL     1       3.816   1.414   0.644  0.00  0.00    +0.049 A 
ATOM     27  C   UNL     1       5.120   1.093   0.270  0.00  0.00    +0.161 A 
ATOM     28  C   UNL     1       5.457  -0.229  -0.022  0.00  0.00    +0.162 A 
ATOM     29  C   UNL     1       4.488  -1.230   0.061  0.00  0.00    +0.053 A 
BRANCH  28  30
ATOM     30  O   UNL     1       6.728  -0.555  -0.388  0.00  0.00    -0.491 OA
ATOM     31  C   UNL     1       6.989  -1.929  -0.670  0.00  0.00    +0.277 C 
ENDBRANCH  28  30
BRANCH  27  32
ATOM     32  O   UNL     1       6.057   2.079   0.193  0.00  0.00    -0.491 OA
ATOM     33  C   UNL     1       5.631   3.403   0.507  0.00  0.00    +0.277 C 
ENDBRANCH  27  32
ENDBRANCH  23  24
ENDBRANCH  22  23
ENDBRANCH  20  22
ENDBRANCH  19  20
ENDBRANCH  18  19
ENDBRANCH   1  18
TORSDOF 14
