REMARK  Name = 2162
REMARK  14 active torsions:
REMARK  status: ('A' for Active; 'I' for Inactive)
REMARK    1  A    between atoms: O_2  and  C_15
REMARK    2  A    between atoms: O_2  and  C_24
REMARK    3  A    between atoms: O_3  and  C_16
REMARK    4  A    between atoms: O_3  and  C_25
REMARK    5  A    between atoms: O_4  and  C_18
REMARK    6  A    between atoms: O_4  and  C_27
REMARK    7  A    between atoms: N_8  and  C_26
REMARK    8  A    between atoms: C_9  and  C_14
REMARK    9  A    between atoms: C_10  and  C_16
REMARK   10  A    between atoms: C_11  and  C_18
REMARK   11  A    between atoms: C_12  and  C_15
REMARK   12  A    between atoms: C_13  and  C_17
REMARK   13  A    between atoms: C_24  and  C_26
REMARK   14  A    between atoms: C_25  and  C_28
REMARK                            x       y       z     vdW  Elec       q    Type
REMARK                         _______ _______ _______ _____ _____    ______ ____
ROOT
ATOM      1  C   UNL     1      -1.186   0.105   0.549  0.00  0.00    +0.097 C 
ATOM      2  C   UNL     1      -1.790   1.414   0.031  0.00  0.00    +0.065 C 
ATOM      3  C   UNL     1      -1.011   2.484  -0.246  0.00  0.00    +0.016 C 
ATOM      4  C   UNL     1      -1.494   3.794  -0.806  0.00  0.00    +0.061 C 
ATOM      5  N   UNL     1       0.352   2.418  -0.005  0.00  0.00    -0.319 N 
ATOM      6  H   UNL     1       0.906   3.236  -0.233  0.00  0.00    +0.152 HD
ATOM      7  C   UNL     1       0.999   1.349   0.594  0.00  0.00    +0.045 C 
ATOM      8  C   UNL     1       0.303   0.228   0.891  0.00  0.00    +0.068 C 
ENDROOT
BRANCH   1  15
ATOM      9 CL   UNL     1      -2.901  -2.325   1.373  0.00  0.00    -0.083 Cl
ATOM     10  C   UNL     1      -2.152  -2.121  -0.168  0.00  0.00    +0.045 A 
ATOM     11  C   UNL     1      -2.320  -3.115  -1.131  0.00  0.00    +0.020 A 
ATOM     12  C   UNL     1      -1.727  -2.978  -2.386  0.00  0.00    +0.001 A 
ATOM     13  C   UNL     1      -0.966  -1.846  -2.678  0.00  0.00    +0.000 A 
ATOM     14  C   UNL     1      -0.798  -0.852  -1.715  0.00  0.00    +0.006 A 
ATOM     15  C   UNL     1      -1.391  -0.989  -0.460  0.00  0.00    -0.017 A 
ENDBRANCH   1  15
BRANCH   2  16
ATOM     16  C   UNL     1      -3.256   1.457  -0.101  0.00  0.00    +0.337 C 
ATOM     17  O   UNL     1      -3.827   1.696  -1.149  0.00  0.00    -0.245 OA
BRANCH  16  18
ATOM     18  O   UNL     1      -3.802   1.192   1.111  0.00  0.00    -0.465 OA
ATOM     19  C   UNL     1      -5.232   1.196   1.145  0.00  0.00    +0.280 C 
ENDBRANCH  16  18
ENDBRANCH   2  16
BRANCH   8  20
ATOM     20  C   UNL     1       0.910  -0.903   1.611  0.00  0.00    +0.338 C 
ATOM     21  O   UNL     1       0.498  -1.313   2.681  0.00  0.00    -0.245 OA
BRANCH  20  22
ATOM     22  O   UNL     1       1.954  -1.364   0.882  0.00  0.00    -0.462 OA
BRANCH  22  23
ATOM     23  C   UNL     1       2.652  -2.474   1.456  0.00  0.00    +0.229 C 
ATOM     24  C   UNL     1       3.784  -2.874   0.535  0.00  0.00    +0.048 C 
ENDBRANCH  22  23
ENDBRANCH  20  22
ENDBRANCH   8  20
BRANCH   7  25
ATOM     25  C   UNL     1       2.467   1.558   0.851  0.00  0.00    +0.211 C 
BRANCH  25  26
ATOM     26  O   UNL     1       3.209   1.136  -0.276  0.00  0.00    -0.373 OA
BRANCH  26  27
ATOM     27  C   UNL     1       4.609   1.313  -0.085  0.00  0.00    +0.175 C 
BRANCH  27  28
ATOM     28  C   UNL     1       5.338   0.818  -1.324  0.00  0.00    +0.106 C 
BRANCH  28  29
ATOM     29  N   UNL     1       6.775   0.995  -1.180  0.00  0.00    -0.328 NA
ATOM     30  H   UNL     1       7.247   0.612  -1.998  0.00  0.00    +0.118 HD
ATOM     31  H   UNL     1       7.109   0.460  -0.380  0.00  0.00    +0.118 HD
ENDBRANCH  28  29
ENDBRANCH  27  28
ENDBRANCH  26  27
ENDBRANCH  25  26
ENDBRANCH   7  25
TORSDOF 11
