REMARK  13 active torsions:
REMARK  status: ('A' for Active; 'I' for Inactive)
REMARK    1  A    between atoms: C_2  and  O_12 
REMARK    2  A    between atoms: C_3  and  O_10 
REMARK    3  A    between atoms: C_4  and  O_8 
REMARK    4  A    between atoms: C_5  and  O_6 
REMARK    5  A    between atoms: C_22  and  C_23 
REMARK    6  A    between atoms: O_12  and  C_13 
REMARK    7  A    between atoms: C_13  and  C_14 
REMARK    8  A    between atoms: C_15  and  C_16 
REMARK    9  A    between atoms: C_23  and  O_24 
REMARK   10  A    between atoms: O_24  and  C_25 
REMARK   11  A    between atoms: C_26  and  O_34 
REMARK   12  A    between atoms: C_27  and  O_32 
REMARK   13  A    between atoms: C_28  and  O_30 
ROOT
ATOM      1  O   LIG     1       0.955  -1.196   0.577  0.00  0.00    -0.341 OA
ATOM      2  C   LIG     1      -0.011  -2.215   0.330  0.00  0.00     0.282 C 
ATOM      3  C   LIG     1       0.496  -3.186  -0.737  0.00  0.00     0.201 C 
ATOM      4  C   LIG     1       1.869  -3.748  -0.371  0.00  0.00     0.179 C 
ATOM      5  C   LIG     1       2.831  -2.635   0.042  0.00  0.00     0.177 C 
ATOM      6  C   LIG     1       2.185  -1.717   1.083  0.00  0.00     0.178 C 
ENDROOT
BRANCH   6   7
ATOM      7  C   LIG     1       3.082  -0.531   1.425  0.00  0.00     0.197 C 
BRANCH   7   8
ATOM      8  O   LIG     1       3.324   0.207   0.241  0.00  0.00    -0.346 OA
BRANCH   8   9
ATOM      9  C   LIG     1       4.158   1.335   0.483  0.00  0.00     0.281 C 
ATOM     10  O   LIG     1       3.627   2.186   1.505  0.00  0.00    -0.346 OA
ATOM     11  C   LIG     1       2.411   2.834   1.139  0.00  0.00     0.197 C 
ATOM     12  C   LIG     1       2.621   3.719  -0.083  0.00  0.00     0.171 C 
ATOM     13  C   LIG     1       3.155   2.898  -1.258  0.00  0.00     0.178 C 
ATOM     14  C   LIG     1       4.392   2.103  -0.827  0.00  0.00     0.201 C 
BRANCH  12  15
ATOM     15  O   LIG     1       1.404   4.353  -0.451  0.00  0.00    -0.387 OA
ATOM     16  H   LIG     1       1.093   4.861   0.318  0.00  0.00     0.210 HD
ENDBRANCH  12  15
BRANCH  13  17
ATOM     17  O   LIG     1       2.141   1.999  -1.704  0.00  0.00    -0.386 OA
ATOM     18  H   LIG     1       2.504   1.497  -2.454  0.00  0.00     0.210 HD
ENDBRANCH  13  17
BRANCH  14  19
ATOM     19  O   LIG     1       5.482   2.999  -0.624  0.00  0.00    -0.384 OA
ATOM     20  H   LIG     1       5.320   3.501   0.192  0.00  0.00     0.210 HD
ENDBRANCH  14  19
ENDBRANCH   8   9
ENDBRANCH   7   8
ENDBRANCH   6   7
BRANCH   5  21
ATOM     21  O   LIG     1       4.013  -3.212   0.591  0.00  0.00    -0.386 OA
ATOM     22  H   LIG     1       3.760  -3.716   1.384  0.00  0.00     0.210 HD
ENDBRANCH   5  21
BRANCH   2  23
ATOM     23  O   LIG     1      -1.220  -1.628  -0.147  0.00  0.00    -0.345 OA
BRANCH  23  24
ATOM     24  C   LIG     1      -1.755  -0.710   0.793  0.00  0.00     0.190 C 
BRANCH  24  25
ATOM     25  C   LIG     1      -3.016  -0.131   0.237  0.00  0.00     0.001 C 
ATOM     26  C   LIG     1      -4.206  -0.232   0.849  0.00  0.00     0.006 C 
BRANCH  26  27
ATOM     27  C   LIG     1      -5.470   0.334   0.347  0.00  0.00    -0.025 A 
ATOM     28  C   LIG     1      -6.522   0.533   1.227  0.00  0.00     0.008 A 
ATOM     29  C   LIG     1      -7.718   1.069   0.751  0.00  0.00     0.001 A 
ATOM     30  C   LIG     1      -7.848   1.398  -0.598  0.00  0.00     0.000 A 
ATOM     31  C   LIG     1      -6.781   1.192  -1.472  0.00  0.00     0.001 A 
ATOM     32  C   LIG     1      -5.584   0.656  -0.996  0.00  0.00     0.008 A 
ENDBRANCH  26  27
ENDBRANCH  24  25
ENDBRANCH  23  24
ENDBRANCH   2  23
BRANCH   4  33
ATOM     33  O   LIG     1       2.427  -4.416  -1.504  0.00  0.00    -0.386 OA
ATOM     34  H   LIG     1       3.302  -4.750  -1.243  0.00  0.00     0.210 HD
ENDBRANCH   4  33
BRANCH   3  35
ATOM     35  O   LIG     1      -0.441  -4.257  -0.848  0.00  0.00    -0.384 OA
ATOM     36  H   LIG     1      -0.490  -4.705   0.013  0.00  0.00     0.210 HD
ENDBRANCH   3  35
TORSDOF 13
