REMARK  12 active torsions:
REMARK  status: ('A' for Active; 'I' for Inactive)
REMARK    1  A    between atoms: O_1  and  C_10 
REMARK    2  A    between atoms: O_2  and  C_17 
REMARK    3  A    between atoms: O_3  and  C_20 
REMARK    4  A    between atoms: O_4  and  C_27 
REMARK    5  A    between atoms: O_6  and  C_29 
REMARK    6  A    between atoms: O_7  and  C_28 
REMARK    7  A    between atoms: O_8  and  C_33 
REMARK    8  A    between atoms: C_11  and  C_20 
REMARK    9  A    between atoms: C_20  and  C_28 
REMARK   10  A    between atoms: C_28  and  C_31 
REMARK   11  A    between atoms: C_31  and  C_32 
REMARK   12  A    between atoms: C_32  and  C_33 
ROOT
HETATM    1  O   UNK     0       0.063   1.047   0.981  0.00  0.00    -0.384 OA
HETATM    2  H   UNK     0       0.386   1.467   0.171  0.00  0.00     0.211 HD
ENDROOT
BRANCH   1   3
HETATM    3  C   UNK     0       0.281  -0.382   0.952  0.00  0.00     0.090 C 
HETATM    4  C   UNK     0      -0.505  -1.004  -0.231  0.00  0.00    -0.000 C 
HETATM    5  C   UNK     0      -1.964  -0.701   0.200  0.00  0.00     0.034 C 
HETATM    6  C   UNK     0      -0.077  -0.300  -1.526  0.00  0.00     0.045 C 
HETATM    7  C   UNK     0      -0.279  -2.535  -0.373  0.00  0.00     0.019 C 
HETATM    8  C   UNK     0      -1.956  -0.951   1.726  0.00  0.00     0.012 C 
HETATM    9  C   UNK     0      -0.476  -0.935   2.168  0.00  0.00     0.044 C 
HETATM   10  C   UNK     0       1.442  -0.427  -1.762  0.00  0.00     0.128 C 
HETATM   11  C   UNK     0       2.332   0.016  -0.542  0.00  0.00     0.055 C 
HETATM   12  C   UNK     0       3.889  -0.245  -0.752  0.00  0.00    -0.021 C 
HETATM   13  C   UNK     0       1.774  -0.568   0.773  0.00  0.00    -0.034 C 
HETATM   14  C   UNK     0       4.632  -0.203   0.615  0.00  0.00     0.071 C 
HETATM   15  C   UNK     0       4.523   0.811  -1.731  0.00  0.00     0.045 C 
HETATM   16  C   UNK     0       4.130  -1.650  -1.372  0.00  0.00     0.017 C 
HETATM   17  C   UNK     0       4.740   1.190   1.261  0.00  0.00     0.047 C 
HETATM   18  C   UNK     0       3.997  -1.152   1.610  0.00  0.00     0.154 C 
HETATM   19  C   UNK     0       4.793   2.333   0.253  0.00  0.00     0.147 C 
HETATM   20  C   UNK     0       5.390   1.891  -1.076  0.00  0.00     0.147 C 
HETATM   21  O   UNK     0       4.669  -1.846   2.370  0.00  0.00    -0.293 OA
HETATM   22  C   UNK     0       2.525  -1.153   1.717  0.00  0.00     0.057 C 
BRANCH   5  23
HETATM   23  C   UNK     0      -3.061  -1.473  -0.520  0.00  0.00     0.084 C 
HETATM   24  C   UNK     0      -3.006  -1.174  -2.027  0.00  0.00     0.049 C 
BRANCH  23  25
HETATM   25  O   UNK     0      -2.813  -2.875  -0.352  0.00  0.00    -0.387 OA
HETATM   26  H   UNK     0      -3.129  -3.148   0.525  0.00  0.00     0.210 HD
ENDBRANCH  23  25
BRANCH  23  27
HETATM   27  C   UNK     0      -4.471  -1.159   0.050  0.00  0.00     0.152 C 
BRANCH  27  28
HETATM   28  O   UNK     0      -5.446  -1.978  -0.604  0.00  0.00    -0.393 OA
HETATM   29  H   UNK     0      -5.165  -2.903  -0.501  0.00  0.00     0.210 HD
ENDBRANCH  27  28
BRANCH  27  30
HETATM   30  C   UNK     0      -4.899   0.314  -0.096  0.00  0.00     0.037 C 
BRANCH  30  31
HETATM   31  C   UNK     0      -6.321   0.558   0.441  0.00  0.00     0.040 C 
BRANCH  31  32
HETATM   32  C   UNK     0      -6.838   2.000   0.253  0.00  0.00     0.051 C 
HETATM   33  C   UNK     0      -8.281   2.098   0.759  0.00  0.00     0.045 C 
HETATM   34  C   UNK     0      -5.964   3.034   0.968  0.00  0.00     0.045 C 
BRANCH  32  35
HETATM   35  O   UNK     0      -6.841   2.299  -1.144  0.00  0.00    -0.391 OA
HETATM   36  H   UNK     0      -5.926   2.460  -1.429  0.00  0.00     0.210 HD
ENDBRANCH  32  35
ENDBRANCH  31  32
ENDBRANCH  30  31
ENDBRANCH  27  30
ENDBRANCH  23  27
ENDBRANCH   5  23
BRANCH  10  37
HETATM   37  O   UNK     0       1.754   0.347  -2.917  0.00  0.00    -0.395 OA
HETATM   38  H   UNK     0       2.508  -0.076  -3.362  0.00  0.00     0.210 HD
ENDBRANCH  10  37
BRANCH  19  39
HETATM   39  O   UNK     0       5.555   3.400   0.810  0.00  0.00    -0.393 OA
HETATM   40  H   UNK     0       6.446   3.067   1.009  0.00  0.00     0.210 HD
ENDBRANCH  19  39
BRANCH  20  41
HETATM   41  O   UNK     0       6.708   1.375  -0.882  0.00  0.00    -0.393 OA
HETATM   42  H   UNK     0       7.270   2.109  -0.582  0.00  0.00     0.210 HD
ENDBRANCH  20  41
ENDBRANCH   1   3
TORSDOF 12
