MODEL 1
REMARK VINA RESULT:    -9.042      0.000      0.000
REMARK INTER + INTRA:         -11.241
REMARK INTER:                 -11.157
REMARK INTRA:                  -0.084
REMARK UNBOUND:                -0.084
REMARK  Name = 5281672
REMARK  7 active torsions:
REMARK  status: ('A' for Active; 'I' for Inactive)
REMARK    1  A    between atoms: O_2  and  C_13
REMARK    2  A    between atoms: O_3  and  C_15
REMARK    3  A    between atoms: O_5  and  C_19
REMARK    4  A    between atoms: O_6  and  C_21
REMARK    5  A    between atoms: O_7  and  C_22
REMARK    6  A    between atoms: O_8  and  C_23
REMARK    7  A    between atoms: C_10  and  C_12
REMARK                            x       y       z     vdW  Elec       q    Type
REMARK                         _______ _______ _______ _____ _____    ______ ____
ROOT
ATOM      1  O   UNL     1     117.795 148.024 144.631  0.00  0.00    +0.000 OA
ATOM      2  O   UNL     1     116.358 151.729 143.725  0.00  0.00    +0.000 OA
ATOM      3  C   UNL     1     118.205 150.262 143.786  0.00  0.00    +0.000 A 
ATOM      4  C   UNL     1     116.459 148.347 144.815  0.00  0.00    +0.000 A 
ATOM      5  C   UNL     1     118.634 148.980 144.118  0.00  0.00    +0.000 A 
ATOM      6  C   UNL     1     115.921 149.550 144.544  0.00  0.00    +0.000 A 
ATOM      7  C   UNL     1     116.792 150.617 143.992  0.00  0.00    +0.000 A 
ATOM      8  C   UNL     1     119.106 151.196 143.268  0.00  0.00    +0.000 A 
ATOM      9  C   UNL     1     119.969 148.621 143.934  0.00  0.00    +0.000 A 
ATOM     10  C   UNL     1     120.872 149.550 143.417  0.00  0.00    +0.000 A 
ATOM     11  C   UNL     1     120.441 150.835 143.085  0.00  0.00    +0.000 A 
ENDROOT
BRANCH   4  12
ATOM     12  C   UNL     1     115.670 147.233 145.370  0.00  0.00    +0.000 A 
ATOM     13  C   UNL     1     114.502 146.818 144.731  0.00  0.00    +0.000 A 
ATOM     14  C   UNL     1     116.092 146.592 146.535  0.00  0.00    +0.000 A 
ATOM     15  C   UNL     1     115.346 145.537 147.060  0.00  0.00    +0.000 A 
ATOM     16  C   UNL     1     113.756 145.763 145.256  0.00  0.00    +0.000 A 
ATOM     17  C   UNL     1     114.178 145.122 146.421  0.00  0.00    +0.000 A 
BRANCH  15  18
ATOM     18  O   UNL     1     115.769 144.918 148.199  0.00  0.00    +0.000 OA
ATOM     19  H   UNL     1     116.336 144.169 147.947  0.00  0.00    +0.000 HD
ENDBRANCH  15  18
BRANCH  16  20
ATOM     20  O   UNL     1     112.617 145.368 144.620  0.00  0.00    +0.000 OA
ATOM     21  H   UNL     1     111.936 145.150 145.277  0.00  0.00    +0.000 HD
ENDBRANCH  16  20
BRANCH  17  22
ATOM     22  O   UNL     1     113.449 144.090 146.933  0.00  0.00    +0.000 OA
ATOM     23  H   UNL     1     113.089 144.342 147.798  0.00  0.00    +0.000 HD
ENDBRANCH  17  22
ENDBRANCH   4  12
BRANCH   6  24
ATOM     24  O   UNL     1     114.595 149.849 144.770  0.00  0.00    +0.000 OA
ATOM     25  H   UNL     1     114.265 149.338 145.526  0.00  0.00    +0.000 HD
ENDBRANCH   6  24
BRANCH   8  26
ATOM     26  O   UNL     1     118.738 152.463 142.929  0.00  0.00    +0.000 OA
ATOM     27  H   UNL     1     118.853 153.063 143.681  0.00  0.00    +0.000 HD
ENDBRANCH   8  26
BRANCH  10  28
ATOM     28  O   UNL     1     122.176 149.202 143.236  0.00  0.00    +0.000 OA
ATOM     29  H   UNL     1     122.412 148.515 143.883  0.00  0.00    +0.000 HD
ENDBRANCH  10  28
TORSDOF 7
ENDMDL
MODEL 2
REMARK VINA RESULT:    -9.015      0.065      1.736
REMARK INTER + INTRA:         -11.207
REMARK INTER:                 -11.086
REMARK INTRA:                  -0.121
REMARK UNBOUND:                -0.084
REMARK  Name = 5281672
REMARK  7 active torsions:
REMARK  status: ('A' for Active; 'I' for Inactive)
REMARK    1  A    between atoms: O_2  and  C_13
REMARK    2  A    between atoms: O_3  and  C_15
REMARK    3  A    between atoms: O_5  and  C_19
REMARK    4  A    between atoms: O_6  and  C_21
REMARK    5  A    between atoms: O_7  and  C_22
REMARK    6  A    between atoms: O_8  and  C_23
REMARK    7  A    between atoms: C_10  and  C_12
REMARK                            x       y       z     vdW  Elec       q    Type
REMARK                         _______ _______ _______ _____ _____    ______ ____
ROOT
ATOM      1  O   UNL     1     117.804 148.030 144.622  0.00  0.00    +0.000 OA
ATOM      2  O   UNL     1     116.387 151.772 143.847  0.00  0.00    +0.000 OA
ATOM      3  C   UNL     1     118.217 150.284 143.821  0.00  0.00    +0.000 A 
ATOM      4  C   UNL     1     116.477 148.364 144.850  0.00  0.00    +0.000 A 
ATOM      5  C   UNL     1     118.640 148.989 144.110  0.00  0.00    +0.000 A 
ATOM      6  C   UNL     1     115.946 149.579 144.624  0.00  0.00    +0.000 A 
ATOM      7  C   UNL     1     116.814 150.649 144.075  0.00  0.00    +0.000 A 
ATOM      8  C   UNL     1     119.114 151.221 143.302  0.00  0.00    +0.000 A 
ATOM      9  C   UNL     1     119.965 148.621 143.881  0.00  0.00    +0.000 A 
ATOM     10  C   UNL     1     120.865 149.552 143.362  0.00  0.00    +0.000 A 
ATOM     11  C   UNL     1     120.440 150.850 143.073  0.00  0.00    +0.000 A 
ENDROOT
BRANCH   4  12
ATOM     12  C   UNL     1     115.691 147.245 145.400  0.00  0.00    +0.000 A 
ATOM     13  C   UNL     1     116.102 146.614 146.574  0.00  0.00    +0.000 A 
ATOM     14  C   UNL     1     114.536 146.816 144.746  0.00  0.00    +0.000 A 
ATOM     15  C   UNL     1     113.792 145.758 145.267  0.00  0.00    +0.000 A 
ATOM     16  C   UNL     1     115.357 145.556 147.095  0.00  0.00    +0.000 A 
ATOM     17  C   UNL     1     114.202 145.128 146.442  0.00  0.00    +0.000 A 
BRANCH  15  18
ATOM     18  O   UNL     1     112.664 145.349 144.620  0.00  0.00    +0.000 OA
ATOM     19  H   UNL     1     112.896 144.603 144.042  0.00  0.00    +0.000 HD
ENDBRANCH  15  18
BRANCH  16  20
ATOM     20  O   UNL     1     115.770 144.950 148.243  0.00  0.00    +0.000 OA
ATOM     21  H   UNL     1     115.176 145.191 148.972  0.00  0.00    +0.000 HD
ENDBRANCH  16  20
BRANCH  17  22
ATOM     22  O   UNL     1     113.473 144.094 146.952  0.00  0.00    +0.000 OA
ATOM     23  H   UNL     1     113.314 143.434 146.259  0.00  0.00    +0.000 HD
ENDBRANCH  17  22
ENDBRANCH   4  12
BRANCH   6  24
ATOM     24  O   UNL     1     114.630 149.886 144.893  0.00  0.00    +0.000 OA
ATOM     25  H   UNL     1     114.584 150.543 145.606  0.00  0.00    +0.000 HD
ENDBRANCH   6  24
BRANCH   8  26
ATOM     26  O   UNL     1     118.752 152.500 143.004  0.00  0.00    +0.000 OA
ATOM     27  H   UNL     1     117.959 152.753 143.499  0.00  0.00    +0.000 HD
ENDBRANCH   8  26
BRANCH  10  28
ATOM     28  O   UNL     1     122.159 149.194 143.136  0.00  0.00    +0.000 OA
ATOM     29  H   UNL     1     122.324 148.331 143.553  0.00  0.00    +0.000 HD
ENDBRANCH  10  28
TORSDOF 7
ENDMDL
MODEL 3
REMARK VINA RESULT:    -8.999      4.130      6.319
REMARK INTER + INTRA:         -11.187
REMARK INTER:                 -10.971
REMARK INTRA:                  -0.216
REMARK UNBOUND:                -0.084
REMARK  Name = 5281672
REMARK  7 active torsions:
REMARK  status: ('A' for Active; 'I' for Inactive)
REMARK    1  A    between atoms: O_2  and  C_13
REMARK    2  A    between atoms: O_3  and  C_15
REMARK    3  A    between atoms: O_5  and  C_19
REMARK    4  A    between atoms: O_6  and  C_21
REMARK    5  A    between atoms: O_7  and  C_22
REMARK    6  A    between atoms: O_8  and  C_23
REMARK    7  A    between atoms: C_10  and  C_12
REMARK                            x       y       z     vdW  Elec       q    Type
REMARK                         _______ _______ _______ _____ _____    ______ ____
ROOT
ATOM      1  O   UNL     1     120.669 151.352 143.640  0.00  0.00    +0.000 OA
ATOM      2  O   UNL     1     121.176 147.580 145.096  0.00  0.00    +0.000 OA
ATOM      3  C   UNL     1     122.058 149.750 144.822  0.00  0.00    +0.000 A 
ATOM      4  C   UNL     1     119.686 150.384 143.500  0.00  0.00    +0.000 A 
ATOM      5  C   UNL     1     121.824 151.020 144.299  0.00  0.00    +0.000 A 
ATOM      6  C   UNL     1     119.791 149.120 143.949  0.00  0.00    +0.000 A 
ATOM      7  C   UNL     1     121.025 148.714 144.664  0.00  0.00    +0.000 A 
ATOM      8  C   UNL     1     123.256 149.468 145.483  0.00  0.00    +0.000 A 
ATOM      9  C   UNL     1     122.789 152.018 144.434  0.00  0.00    +0.000 A 
ATOM     10  C   UNL     1     123.987 151.741 145.093  0.00  0.00    +0.000 A 
ATOM     11  C   UNL     1     124.219 150.468 145.617  0.00  0.00    +0.000 A 
ENDROOT
BRANCH   4  12
ATOM     12  C   UNL     1     118.500 150.871 142.774  0.00  0.00    +0.000 A 
ATOM     13  C   UNL     1     117.267 150.945 143.423  0.00  0.00    +0.000 A 
ATOM     14  C   UNL     1     118.609 151.260 141.439  0.00  0.00    +0.000 A 
ATOM     15  C   UNL     1     117.486 151.723 140.754  0.00  0.00    +0.000 A 
ATOM     16  C   UNL     1     116.144 151.408 142.737  0.00  0.00    +0.000 A 
ATOM     17  C   UNL     1     116.253 151.797 141.402  0.00  0.00    +0.000 A 
BRANCH  15  18
ATOM     18  O   UNL     1     117.605 152.101 139.450  0.00  0.00    +0.000 OA
ATOM     19  H   UNL     1     118.533 151.988 139.182  0.00  0.00    +0.000 HD
ENDBRANCH  15  18
BRANCH  16  20
ATOM     20  O   UNL     1     114.946 151.474 143.383  0.00  0.00    +0.000 OA
ATOM     21  H   UNL     1     114.501 152.308 143.162  0.00  0.00    +0.000 HD
ENDBRANCH  16  20
BRANCH  17  22
ATOM     22  O   UNL     1     115.155 152.250 140.732  0.00  0.00    +0.000 OA
ATOM     23  H   UNL     1     114.727 151.512 140.270  0.00  0.00    +0.000 HD
ENDBRANCH  17  22
ENDBRANCH   4  12
BRANCH   6  24
ATOM     24  O   UNL     1     118.808 148.172 143.764  0.00  0.00    +0.000 OA
ATOM     25  H   UNL     1     118.007 148.591 143.411  0.00  0.00    +0.000 HD
ENDBRANCH   6  24
BRANCH   8  26
ATOM     26  O   UNL     1     123.534 148.243 146.011  0.00  0.00    +0.000 OA
ATOM     27  H   UNL     1     124.052 148.334 146.825  0.00  0.00    +0.000 HD
ENDBRANCH   8  26
BRANCH  10  28
ATOM     28  O   UNL     1     124.930 152.714 145.227  0.00  0.00    +0.000 OA
ATOM     29  H   UNL     1     125.559 152.449 145.920  0.00  0.00    +0.000 HD
ENDBRANCH  10  28
TORSDOF 7
ENDMDL
MODEL 4
REMARK VINA RESULT:    -8.988      4.136      6.263
REMARK INTER + INTRA:         -11.174
REMARK INTER:                 -10.951
REMARK INTRA:                  -0.224
REMARK UNBOUND:                -0.084
REMARK  Name = 5281672
REMARK  7 active torsions:
REMARK  status: ('A' for Active; 'I' for Inactive)
REMARK    1  A    between atoms: O_2  and  C_13
REMARK    2  A    between atoms: O_3  and  C_15
REMARK    3  A    between atoms: O_5  and  C_19
REMARK    4  A    between atoms: O_6  and  C_21
REMARK    5  A    between atoms: O_7  and  C_22
REMARK    6  A    between atoms: O_8  and  C_23
REMARK    7  A    between atoms: C_10  and  C_12
REMARK                            x       y       z     vdW  Elec       q    Type
REMARK                         _______ _______ _______ _____ _____    ______ ____
ROOT
ATOM      1  O   UNL     1     120.670 151.363 143.666  0.00  0.00    +0.000 OA
ATOM      2  O   UNL     1     121.199 147.578 145.081  0.00  0.00    +0.000 OA
ATOM      3  C   UNL     1     122.065 149.758 144.836  0.00  0.00    +0.000 A 
ATOM      4  C   UNL     1     119.695 150.389 143.510  0.00  0.00    +0.000 A 
ATOM      5  C   UNL     1     121.825 151.032 144.327  0.00  0.00    +0.000 A 
ATOM      6  C   UNL     1     119.807 149.121 143.945  0.00  0.00    +0.000 A 
ATOM      7  C   UNL     1     121.042 148.716 144.661  0.00  0.00    +0.000 A 
ATOM      8  C   UNL     1     123.262 149.478 145.500  0.00  0.00    +0.000 A 
ATOM      9  C   UNL     1     122.781 152.035 144.478  0.00  0.00    +0.000 A 
ATOM     10  C   UNL     1     123.978 151.760 145.140  0.00  0.00    +0.000 A 
ATOM     11  C   UNL     1     124.217 150.483 145.650  0.00  0.00    +0.000 A 
ENDROOT
BRANCH   4  12
ATOM     12  C   UNL     1     118.509 150.876 142.784  0.00  0.00    +0.000 A 
ATOM     13  C   UNL     1     118.618 151.265 141.449  0.00  0.00    +0.000 A 
ATOM     14  C   UNL     1     117.275 150.948 143.431  0.00  0.00    +0.000 A 
ATOM     15  C   UNL     1     116.153 151.408 142.744  0.00  0.00    +0.000 A 
ATOM     16  C   UNL     1     117.495 151.725 140.761  0.00  0.00    +0.000 A 
ATOM     17  C   UNL     1     116.262 151.796 141.409  0.00  0.00    +0.000 A 
BRANCH  15  18
ATOM     18  O   UNL     1     114.953 151.473 143.387  0.00  0.00    +0.000 OA
ATOM     19  H   UNL     1     115.119 151.667 144.325  0.00  0.00    +0.000 HD
ENDBRANCH  15  18
BRANCH  16  20
ATOM     20  O   UNL     1     117.618 152.102 139.458  0.00  0.00    +0.000 OA
ATOM     21  H   UNL     1     116.742 152.319 139.097  0.00  0.00    +0.000 HD
ENDBRANCH  16  20
BRANCH  17  22
ATOM     22  O   UNL     1     115.164 152.245 140.736  0.00  0.00    +0.000 OA
ATOM     23  H   UNL     1     114.640 151.489 140.426  0.00  0.00    +0.000 HD
ENDBRANCH  17  22
ENDBRANCH   4  12
BRANCH   6  24
ATOM     24  O   UNL     1     118.832 148.168 143.744  0.00  0.00    +0.000 OA
ATOM     25  H   UNL     1     118.329 148.033 144.562  0.00  0.00    +0.000 HD
ENDBRANCH   6  24
BRANCH   8  26
ATOM     26  O   UNL     1     123.547 148.249 146.016  0.00  0.00    +0.000 OA
ATOM     27  H   UNL     1     124.184 147.784 145.453  0.00  0.00    +0.000 HD
ENDBRANCH   8  26
BRANCH  10  28
ATOM     28  O   UNL     1     124.913 152.739 145.290  0.00  0.00    +0.000 OA
ATOM     29  H   UNL     1     124.638 153.518 144.777  0.00  0.00    +0.000 HD
ENDBRANCH  10  28
TORSDOF 7
ENDMDL
MODEL 5
REMARK VINA RESULT:    -8.893      4.157      6.287
REMARK INTER + INTRA:         -11.056
REMARK INTER:                 -11.241
REMARK INTRA:                   0.185
REMARK UNBOUND:                -0.084
REMARK  Name = 5281672
REMARK  7 active torsions:
REMARK  status: ('A' for Active; 'I' for Inactive)
REMARK    1  A    between atoms: O_2  and  C_13
REMARK    2  A    between atoms: O_3  and  C_15
REMARK    3  A    between atoms: O_5  and  C_19
REMARK    4  A    between atoms: O_6  and  C_21
REMARK    5  A    between atoms: O_7  and  C_22
REMARK    6  A    between atoms: O_8  and  C_23
REMARK    7  A    between atoms: C_10  and  C_12
REMARK                            x       y       z     vdW  Elec       q    Type
REMARK                         _______ _______ _______ _____ _____    ______ ____
ROOT
ATOM      1  O   UNL     1     118.810 150.668 145.366  0.00  0.00    +0.000 OA
ATOM      2  O   UNL     1     122.105 148.600 144.152  0.00  0.00    +0.000 OA
ATOM      3  C   UNL     1     120.888 149.550 145.935  0.00  0.00    +0.000 A 
ATOM      4  C   UNL     1     119.011 150.346 144.033  0.00  0.00    +0.000 A 
ATOM      5  C   UNL     1     119.742 150.261 146.285  0.00  0.00    +0.000 A 
ATOM      6  C   UNL     1     120.078 149.673 143.563  0.00  0.00    +0.000 A 
ATOM      7  C   UNL     1     121.115 149.217 144.520  0.00  0.00    +0.000 A 
ATOM      8  C   UNL     1     121.805 149.163 146.915  0.00  0.00    +0.000 A 
ATOM      9  C   UNL     1     119.506 150.591 147.620  0.00  0.00    +0.000 A 
ATOM     10  C   UNL     1     120.419 150.206 148.602  0.00  0.00    +0.000 A 
ATOM     11  C   UNL     1     121.566 149.494 148.250  0.00  0.00    +0.000 A 
ENDROOT
BRANCH   4  12
ATOM     12  C   UNL     1     117.937 150.841 143.154  0.00  0.00    +0.000 A 
ATOM     13  C   UNL     1     118.237 151.281 141.865  0.00  0.00    +0.000 A 
ATOM     14  C   UNL     1     116.619 150.870 143.610  0.00  0.00    +0.000 A 
ATOM     15  C   UNL     1     115.603 151.338 142.778  0.00  0.00    +0.000 A 
ATOM     16  C   UNL     1     117.221 151.748 141.032  0.00  0.00    +0.000 A 
ATOM     17  C   UNL     1     115.903 151.777 141.488  0.00  0.00    +0.000 A 
BRANCH  15  18
ATOM     18  O   UNL     1     114.319 151.361 143.235  0.00  0.00    +0.000 OA
ATOM     19  H   UNL     1     113.869 152.130 142.846  0.00  0.00    +0.000 HD
ENDBRANCH  15  18
BRANCH  16  20
ATOM     20  O   UNL     1     117.529 152.174 139.775  0.00  0.00    +0.000 OA
ATOM     21  H   UNL     1     117.992 153.027 139.824  0.00  0.00    +0.000 HD
ENDBRANCH  16  20
BRANCH  17  22
ATOM     22  O   UNL     1     114.909 152.233 140.674  0.00  0.00    +0.000 OA
ATOM     23  H   UNL     1     115.267 152.411 139.789  0.00  0.00    +0.000 HD
ENDBRANCH  17  22
ENDBRANCH   4  12
BRANCH   6  24
ATOM     24  O   UNL     1     120.264 149.398 142.226  0.00  0.00    +0.000 OA
ATOM     25  H   UNL     1     119.572 148.794 141.914  0.00  0.00    +0.000 HD
ENDBRANCH   6  24
BRANCH   8  26
ATOM     26  O   UNL     1     122.940 148.468 146.627  0.00  0.00    +0.000 OA
ATOM     27  H   UNL     1     122.813 147.523 146.797  0.00  0.00    +0.000 HD
ENDBRANCH   8  26
BRANCH  10  28
ATOM     28  O   UNL     1     120.190 150.526 149.906  0.00  0.00    +0.000 OA
ATOM     29  H   UNL     1     120.942 150.221 150.441  0.00  0.00    +0.000 HD
ENDBRANCH  10  28
TORSDOF 7
ENDMDL
MODEL 6
REMARK VINA RESULT:    -8.826      3.523      6.184
REMARK INTER + INTRA:         -10.974
REMARK INTER:                 -10.610
REMARK INTRA:                  -0.365
REMARK UNBOUND:                -0.084
REMARK  Name = 5281672
REMARK  7 active torsions:
REMARK  status: ('A' for Active; 'I' for Inactive)
REMARK    1  A    between atoms: O_2  and  C_13
REMARK    2  A    between atoms: O_3  and  C_15
REMARK    3  A    between atoms: O_5  and  C_19
REMARK    4  A    between atoms: O_6  and  C_21
REMARK    5  A    between atoms: O_7  and  C_22
REMARK    6  A    between atoms: O_8  and  C_23
REMARK    7  A    between atoms: C_10  and  C_12
REMARK                            x       y       z     vdW  Elec       q    Type
REMARK                         _______ _______ _______ _____ _____    ______ ____
ROOT
ATOM      1  O   UNL     1     118.905 150.627 143.245  0.00  0.00    +0.000 OA
ATOM      2  O   UNL     1     115.334 150.297 145.180  0.00  0.00    +0.000 OA
ATOM      3  C   UNL     1     116.503 150.975 143.247  0.00  0.00    +0.000 A 
ATOM      4  C   UNL     1     118.816 150.066 144.510  0.00  0.00    +0.000 A 
ATOM      5  C   UNL     1     117.754 151.062 142.641  0.00  0.00    +0.000 A 
ATOM      6  C   UNL     1     117.673 149.933 145.207  0.00  0.00    +0.000 A 
ATOM      7  C   UNL     1     116.403 150.394 144.595  0.00  0.00    +0.000 A 
ATOM      8  C   UNL     1     115.363 151.436 142.583  0.00  0.00    +0.000 A 
ATOM      9  C   UNL     1     117.874 151.612 141.364  0.00  0.00    +0.000 A 
ATOM     10  C   UNL     1     116.739 152.073 140.698  0.00  0.00    +0.000 A 
ATOM     11  C   UNL     1     115.486 151.986 141.306  0.00  0.00    +0.000 A 
ENDROOT
BRANCH   4  12
ATOM     12  C   UNL     1     120.123 149.642 145.042  0.00  0.00    +0.000 A 
ATOM     13  C   UNL     1     120.944 150.563 145.693  0.00  0.00    +0.000 A 
ATOM     14  C   UNL     1     120.541 148.319 144.896  0.00  0.00    +0.000 A 
ATOM     15  C   UNL     1     121.778 147.918 145.401  0.00  0.00    +0.000 A 
ATOM     16  C   UNL     1     122.180 150.162 146.199  0.00  0.00    +0.000 A 
ATOM     17  C   UNL     1     122.597 148.839 146.053  0.00  0.00    +0.000 A 
BRANCH  15  18
ATOM     18  O   UNL     1     122.174 146.622 145.253  0.00  0.00    +0.000 OA
ATOM     19  H   UNL     1     122.616 146.534 144.391  0.00  0.00    +0.000 HD
ENDBRANCH  15  18
BRANCH  16  20
ATOM     20  O   UNL     1     122.971 151.073 146.833  0.00  0.00    +0.000 OA
ATOM     21  H   UNL     1     123.004 150.872 147.782  0.00  0.00    +0.000 HD
ENDBRANCH  16  20
BRANCH  17  22
ATOM     22  O   UNL     1     123.806 148.447 146.548  0.00  0.00    +0.000 OA
ATOM     23  H   UNL     1     124.512 148.972 146.140  0.00  0.00    +0.000 HD
ENDBRANCH  17  22
ENDBRANCH   4  12
BRANCH   6  24
ATOM     24  O   UNL     1     117.625 149.400 146.477  0.00  0.00    +0.000 OA
ATOM     25  H   UNL     1     118.376 149.722 146.999  0.00  0.00    +0.000 HD
ENDBRANCH   6  24
BRANCH   8  26
ATOM     26  O   UNL     1     114.118 151.375 143.131  0.00  0.00    +0.000 OA
ATOM     27  H   UNL     1     114.107 151.805 143.999  0.00  0.00    +0.000 HD
ENDBRANCH   8  26
BRANCH  10  28
ATOM     28  O   UNL     1     116.854 152.609 139.451  0.00  0.00    +0.000 OA
ATOM     29  H   UNL     1     117.648 152.246 139.024  0.00  0.00    +0.000 HD
ENDBRANCH  10  28
TORSDOF 7
ENDMDL
MODEL 7
REMARK VINA RESULT:    -8.791      1.217      2.909
REMARK INTER + INTRA:         -10.931
REMARK INTER:                 -10.721
REMARK INTRA:                  -0.209
REMARK UNBOUND:                -0.084
REMARK  Name = 5281672
REMARK  7 active torsions:
REMARK  status: ('A' for Active; 'I' for Inactive)
REMARK    1  A    between atoms: O_2  and  C_13
REMARK    2  A    between atoms: O_3  and  C_15
REMARK    3  A    between atoms: O_5  and  C_19
REMARK    4  A    between atoms: O_6  and  C_21
REMARK    5  A    between atoms: O_7  and  C_22
REMARK    6  A    between atoms: O_8  and  C_23
REMARK    7  A    between atoms: C_10  and  C_12
REMARK                            x       y       z     vdW  Elec       q    Type
REMARK                         _______ _______ _______ _____ _____    ______ ____
ROOT
ATOM      1  O   UNL     1     116.363 149.622 144.782  0.00  0.00    +0.000 OA
ATOM      2  O   UNL     1     120.214 149.098 143.558  0.00  0.00    +0.000 OA
ATOM      3  C   UNL     1     118.402 150.575 143.873  0.00  0.00    +0.000 A 
ATOM      4  C   UNL     1     116.981 148.383 144.849  0.00  0.00    +0.000 A 
ATOM      5  C   UNL     1     117.082 150.687 144.304  0.00  0.00    +0.000 A 
ATOM      6  C   UNL     1     118.245 148.139 144.456  0.00  0.00    +0.000 A 
ATOM      7  C   UNL     1     119.060 149.260 143.928  0.00  0.00    +0.000 A 
ATOM      8  C   UNL     1     119.086 151.695 143.394  0.00  0.00    +0.000 A 
ATOM      9  C   UNL     1     116.437 151.922 144.259  0.00  0.00    +0.000 A 
ATOM     10  C   UNL     1     117.116 153.043 143.782  0.00  0.00    +0.000 A 
ATOM     11  C   UNL     1     118.438 152.929 143.351  0.00  0.00    +0.000 A 
ENDROOT
BRANCH   4  12
ATOM     12  C   UNL     1     116.098 147.329 145.379  0.00  0.00    +0.000 A 
ATOM     13  C   UNL     1     114.947 146.967 144.681  0.00  0.00    +0.000 A 
ATOM     14  C   UNL     1     116.414 146.692 146.579  0.00  0.00    +0.000 A 
ATOM     15  C   UNL     1     115.578 145.694 147.080  0.00  0.00    +0.000 A 
ATOM     16  C   UNL     1     114.111 145.968 145.181  0.00  0.00    +0.000 A 
ATOM     17  C   UNL     1     114.427 145.331 146.381  0.00  0.00    +0.000 A 
BRANCH  15  18
ATOM     18  O   UNL     1     115.898 145.079 148.254  0.00  0.00    +0.000 OA
ATOM     19  H   UNL     1     116.866 145.089 148.350  0.00  0.00    +0.000 HD
ENDBRANCH  15  18
BRANCH  16  20
ATOM     20  O   UNL     1     112.989 145.625 144.488  0.00  0.00    +0.000 OA
ATOM     21  H   UNL     1     112.625 144.799 144.846  0.00  0.00    +0.000 HD
ENDBRANCH  16  20
BRANCH  17  22
ATOM     22  O   UNL     1     113.611 144.355 146.870  0.00  0.00    +0.000 OA
ATOM     23  H   UNL     1     113.316 144.593 147.764  0.00  0.00    +0.000 HD
ENDBRANCH  17  22
ENDBRANCH   4  12
BRANCH   6  24
ATOM     24  O   UNL     1     118.819 146.887 144.506  0.00  0.00    +0.000 OA
ATOM     25  H   UNL     1     118.318 146.272 143.947  0.00  0.00    +0.000 HD
ENDBRANCH   6  24
BRANCH   8  26
ATOM     26  O   UNL     1     120.376 151.639 142.960  0.00  0.00    +0.000 OA
ATOM     27  H   UNL     1     120.878 150.984 143.468  0.00  0.00    +0.000 HD
ENDBRANCH   8  26
BRANCH  10  28
ATOM     28  O   UNL     1     116.488 154.251 143.738  0.00  0.00    +0.000 OA
ATOM     29  H   UNL     1     117.110 154.940 144.027  0.00  0.00    +0.000 HD
ENDBRANCH  10  28
TORSDOF 7
ENDMDL
MODEL 8
REMARK VINA RESULT:    -8.552     20.025     23.336
REMARK INTER + INTRA:         -10.635
REMARK INTER:                 -10.296
REMARK INTRA:                  -0.339
REMARK UNBOUND:                -0.084
REMARK  Name = 5281672
REMARK  7 active torsions:
REMARK  status: ('A' for Active; 'I' for Inactive)
REMARK    1  A    between atoms: O_2  and  C_13
REMARK    2  A    between atoms: O_3  and  C_15
REMARK    3  A    between atoms: O_5  and  C_19
REMARK    4  A    between atoms: O_6  and  C_21
REMARK    5  A    between atoms: O_7  and  C_22
REMARK    6  A    between atoms: O_8  and  C_23
REMARK    7  A    between atoms: C_10  and  C_12
REMARK                            x       y       z     vdW  Elec       q    Type
REMARK                         _______ _______ _______ _____ _____    ______ ____
ROOT
ATOM      1  O   UNL     1     107.495 144.320 164.402  0.00  0.00    +0.000 OA
ATOM      2  O   UNL     1     103.783 145.994 164.574  0.00  0.00    +0.000 OA
ATOM      3  C   UNL     1     105.878 145.887 163.495  0.00  0.00    +0.000 A 
ATOM      4  C   UNL     1     106.570 143.933 165.360  0.00  0.00    +0.000 A 
ATOM      5  C   UNL     1     107.131 145.278 163.491  0.00  0.00    +0.000 A 
ATOM      6  C   UNL     1     105.333 144.448 165.477  0.00  0.00    +0.000 A 
ATOM      7  C   UNL     1     104.896 145.491 164.517  0.00  0.00    +0.000 A 
ATOM      8  C   UNL     1     105.562 146.859 162.543  0.00  0.00    +0.000 A 
ATOM      9  C   UNL     1     108.078 145.639 162.533  0.00  0.00    +0.000 A 
ATOM     10  C   UNL     1     107.768 146.609 161.581  0.00  0.00    +0.000 A 
ATOM     11  C   UNL     1     106.512 147.218 161.585  0.00  0.00    +0.000 A 
ENDROOT
BRANCH   4  12
ATOM     12  C   UNL     1     107.089 142.899 166.273  0.00  0.00    +0.000 A 
ATOM     13  C   UNL     1     107.577 143.259 167.528  0.00  0.00    +0.000 A 
ATOM     14  C   UNL     1     107.091 141.560 165.882  0.00  0.00    +0.000 A 
ATOM     15  C   UNL     1     107.581 140.582 166.747  0.00  0.00    +0.000 A 
ATOM     16  C   UNL     1     108.067 142.280 168.394  0.00  0.00    +0.000 A 
ATOM     17  C   UNL     1     108.069 140.941 168.003  0.00  0.00    +0.000 A 
BRANCH  15  18
ATOM     18  O   UNL     1     107.576 139.276 166.354  0.00  0.00    +0.000 OA
ATOM     19  H   UNL     1     107.867 139.235 165.427  0.00  0.00    +0.000 HD
ENDBRANCH  15  18
BRANCH  16  20
ATOM     20  O   UNL     1     108.541 142.646 169.618  0.00  0.00    +0.000 OA
ATOM     21  H   UNL     1     108.322 141.962 170.271  0.00  0.00    +0.000 HD
ENDBRANCH  16  20
BRANCH  17  22
ATOM     22  O   UNL     1     108.546 139.985 168.849  0.00  0.00    +0.000 OA
ATOM     23  H   UNL     1     109.492 140.133 169.009  0.00  0.00    +0.000 HD
ENDBRANCH  17  22
ENDBRANCH   4  12
BRANCH   6  24
ATOM     24  O   UNL     1     104.449 144.064 166.463  0.00  0.00    +0.000 OA
ATOM     25  H   UNL     1     103.929 144.828 166.756  0.00  0.00    +0.000 HD
ENDBRANCH   6  24
BRANCH   8  26
ATOM     26  O   UNL     1     104.353 147.485 162.503  0.00  0.00    +0.000 OA
ATOM     27  H   UNL     1     104.133 147.856 163.371  0.00  0.00    +0.000 HD
ENDBRANCH   8  26
BRANCH  10  28
ATOM     28  O   UNL     1     108.691 146.962 160.644  0.00  0.00    +0.000 OA
ATOM     29  H   UNL     1     108.598 147.911 160.452  0.00  0.00    +0.000 HD
ENDBRANCH  10  28
TORSDOF 7
ENDMDL
MODEL 9
REMARK VINA RESULT:    -8.423     20.550     23.343
REMARK INTER + INTRA:         -10.477
REMARK INTER:                 -10.143
REMARK INTRA:                  -0.334
REMARK UNBOUND:                -0.084
REMARK  Name = 5281672
REMARK  7 active torsions:
REMARK  status: ('A' for Active; 'I' for Inactive)
REMARK    1  A    between atoms: O_2  and  C_13
REMARK    2  A    between atoms: O_3  and  C_15
REMARK    3  A    between atoms: O_5  and  C_19
REMARK    4  A    between atoms: O_6  and  C_21
REMARK    5  A    between atoms: O_7  and  C_22
REMARK    6  A    between atoms: O_8  and  C_23
REMARK    7  A    between atoms: C_10  and  C_12
REMARK                            x       y       z     vdW  Elec       q    Type
REMARK                         _______ _______ _______ _____ _____    ______ ____
ROOT
ATOM      1  O   UNL     1     105.568 144.347 164.847  0.00  0.00    +0.000 OA
ATOM      2  O   UNL     1     108.075 145.791 161.977  0.00  0.00    +0.000 OA
ATOM      3  C   UNL     1     105.918 145.798 162.932  0.00  0.00    +0.000 A 
ATOM      4  C   UNL     1     106.892 143.943 164.773  0.00  0.00    +0.000 A 
ATOM      5  C   UNL     1     105.112 145.264 163.935  0.00  0.00    +0.000 A 
ATOM      6  C   UNL     1     107.770 144.374 163.850  0.00  0.00    +0.000 A 
ATOM      7  C   UNL     1     107.321 145.363 162.839  0.00  0.00    +0.000 A 
ATOM      8  C   UNL     1     105.399 146.728 162.030  0.00  0.00    +0.000 A 
ATOM      9  C   UNL     1     103.779 145.659 164.042  0.00  0.00    +0.000 A 
ATOM     10  C   UNL     1     103.256 146.588 163.142  0.00  0.00    +0.000 A 
ATOM     11  C   UNL     1     104.065 147.122 162.138  0.00  0.00    +0.000 A 
ENDROOT
BRANCH   4  12
ATOM     12  C   UNL     1     107.250 142.958 165.809  0.00  0.00    +0.000 A 
ATOM     13  C   UNL     1     107.295 141.600 165.494  0.00  0.00    +0.000 A 
ATOM     14  C   UNL     1     107.544 143.383 167.105  0.00  0.00    +0.000 A 
ATOM     15  C   UNL     1     107.884 142.450 168.084  0.00  0.00    +0.000 A 
ATOM     16  C   UNL     1     107.635 140.667 166.474  0.00  0.00    +0.000 A 
ATOM     17  C   UNL     1     107.930 141.092 167.769  0.00  0.00    +0.000 A 
BRANCH  15  18
ATOM     18  O   UNL     1     108.171 142.878 169.346  0.00  0.00    +0.000 OA
ATOM     19  H   UNL     1     107.513 142.499 169.955  0.00  0.00    +0.000 HD
ENDBRANCH  15  18
BRANCH  16  20
ATOM     20  O   UNL     1     107.675 139.344 166.152  0.00  0.00    +0.000 OA
ATOM     21  H   UNL     1     108.522 139.137 165.725  0.00  0.00    +0.000 HD
ENDBRANCH  16  20
BRANCH  17  22
ATOM     22  O   UNL     1     108.263 140.180 168.727  0.00  0.00    +0.000 OA
ATOM     23  H   UNL     1     108.892 139.537 168.361  0.00  0.00    +0.000 HD
ENDBRANCH  17  22
ENDBRANCH   4  12
BRANCH   6  24
ATOM     24  O   UNL     1     109.072 143.927 163.784  0.00  0.00    +0.000 OA
ATOM     25  H   UNL     1     109.146 143.060 164.214  0.00  0.00    +0.000 HD
ENDBRANCH   6  24
BRANCH   8  26
ATOM     26  O   UNL     1     106.144 147.279 161.031  0.00  0.00    +0.000 OA
ATOM     27  H   UNL     1     107.083 147.280 161.268  0.00  0.00    +0.000 HD
ENDBRANCH   8  26
BRANCH  10  28
ATOM     28  O   UNL     1     101.954 146.976 163.245  0.00  0.00    +0.000 OA
ATOM     29  H   UNL     1     101.917 147.836 163.698  0.00  0.00    +0.000 HD
ENDBRANCH  10  28
TORSDOF 7
ENDMDL
MODEL 10
REMARK VINA RESULT:    -8.366      1.703      3.484
REMARK INTER + INTRA:         -10.406
REMARK INTER:                 -10.764
REMARK INTRA:                   0.358
REMARK UNBOUND:                -0.084
REMARK  Name = 5281672
REMARK  7 active torsions:
REMARK  status: ('A' for Active; 'I' for Inactive)
REMARK    1  A    between atoms: O_2  and  C_13
REMARK    2  A    between atoms: O_3  and  C_15
REMARK    3  A    between atoms: O_5  and  C_19
REMARK    4  A    between atoms: O_6  and  C_21
REMARK    5  A    between atoms: O_7  and  C_22
REMARK    6  A    between atoms: O_8  and  C_23
REMARK    7  A    between atoms: C_10  and  C_12
REMARK                            x       y       z     vdW  Elec       q    Type
REMARK                         _______ _______ _______ _____ _____    ______ ____
ROOT
ATOM      1  O   UNL     1     115.280 149.094 144.323  0.00  0.00    +0.000 OA
ATOM      2  O   UNL     1     119.037 150.205 145.446  0.00  0.00    +0.000 OA
ATOM      3  C   UNL     1     117.145 150.633 144.104  0.00  0.00    +0.000 A 
ATOM      4  C   UNL     1     115.988 148.385 145.281  0.00  0.00    +0.000 A 
ATOM      5  C   UNL     1     115.866 150.199 143.761  0.00  0.00    +0.000 A 
ATOM      6  C   UNL     1     117.232 148.692 145.693  0.00  0.00    +0.000 A 
ATOM      7  C   UNL     1     117.908 149.877 145.110  0.00  0.00    +0.000 A 
ATOM      8  C   UNL     1     117.692 151.766 143.497  0.00  0.00    +0.000 A 
ATOM      9  C   UNL     1     115.125 150.898 142.808  0.00  0.00    +0.000 A 
ATOM     10  C   UNL     1     115.667 152.030 142.200  0.00  0.00    +0.000 A 
ATOM     11  C   UNL     1     116.948 152.463 142.544  0.00  0.00    +0.000 A 
ENDROOT
BRANCH   4  12
ATOM     12  C   UNL     1     115.245 147.224 145.801  0.00  0.00    +0.000 A 
ATOM     13  C   UNL     1     115.629 146.631 147.004  0.00  0.00    +0.000 A 
ATOM     14  C   UNL     1     114.157 146.717 145.091  0.00  0.00    +0.000 A 
ATOM     15  C   UNL     1     113.453 145.618 145.584  0.00  0.00    +0.000 A 
ATOM     16  C   UNL     1     114.925 145.533 147.497  0.00  0.00    +0.000 A 
ATOM     17  C   UNL     1     113.837 145.026 146.788  0.00  0.00    +0.000 A 
BRANCH  15  18
ATOM     18  O   UNL     1     112.391 145.132 144.882  0.00  0.00    +0.000 OA
ATOM     19  H   UNL     1     111.631 145.720 145.032  0.00  0.00    +0.000 HD
ENDBRANCH  15  18
BRANCH  16  20
ATOM     20  O   UNL     1     115.312 144.964 148.674  0.00  0.00    +0.000 OA
ATOM     21  H   UNL     1     115.958 144.261 148.499  0.00  0.00    +0.000 HD
ENDBRANCH  16  20
BRANCH  17  22
ATOM     22  O   UNL     1     113.148 143.953 147.270  0.00  0.00    +0.000 OA
ATOM     23  H   UNL     1     113.444 143.754 148.173  0.00  0.00    +0.000 HD
ENDBRANCH  17  22
ENDBRANCH   4  12
BRANCH   6  24
ATOM     24  O   UNL     1     117.921 147.947 146.625  0.00  0.00    +0.000 OA
ATOM     25  H   UNL     1     118.343 148.534 147.271  0.00  0.00    +0.000 HD
ENDBRANCH   6  24
BRANCH   8  26
ATOM     26  O   UNL     1     118.938 152.231 143.795  0.00  0.00    +0.000 OA
ATOM     27  H   UNL     1     119.374 151.648 144.435  0.00  0.00    +0.000 HD
ENDBRANCH   8  26
BRANCH  10  28
ATOM     28  O   UNL     1     114.945 152.714 141.270  0.00  0.00    +0.000 OA
ATOM     29  H   UNL     1     114.358 152.092 140.807  0.00  0.00    +0.000 HD
ENDBRANCH  10  28
TORSDOF 7
ENDMDL
