REMARK VINA RESULT:      -8.0      2.037      3.579
REMARK  11 active torsions:
REMARK  status: ('A' for Active; 'I' for Inactive)
REMARK    1  A    between atoms: O_2  and  C_16 
REMARK    2  A    between atoms: O_2  and  C_18 
REMARK    3  A    between atoms: O_3  and  C_12 
REMARK    4  A    between atoms: O_4  and  C_13 
REMARK    5  A    between atoms: O_5  and  C_14 
REMARK    6  A    between atoms: O_6  and  C_17 
REMARK    7  A    between atoms: O_8  and  C_23 
REMARK    8  A    between atoms: O_10  and  C_30 
REMARK    9  A    between atoms: O_11  and  C_32 
REMARK   10  A    between atoms: C_15  and  C_17 
REMARK   11  A    between atoms: C_25  and  C_27 
ROOT
HETATM    1  O   UNK     0     185.966 184.368 172.575  0.00  0.00    -0.348 OA
HETATM    2  C   UNK     0     186.143 185.426 175.240  0.00  0.00     0.183 C 
HETATM    3  C   UNK     0     187.087 185.862 174.119  0.00  0.00     0.180 C 
HETATM    4  C   UNK     0     185.529 184.057 174.944  0.00  0.00     0.205 C 
HETATM    5  C   UNK     0     186.414 185.713 172.753  0.00  0.00     0.179 C 
HETATM    6  C   UNK     0     184.968 183.994 173.523  0.00  0.00     0.298 C 
ENDROOT
BRANCH   5   7
HETATM    7  C   UNK     0     187.376 186.032 171.612  0.00  0.00     0.198 C 
BRANCH   7   8
HETATM    8  O   UNK     0     187.535 187.436 171.537  0.00  0.00    -0.398 OA
HETATM    9  H   UNK     0     187.159 187.821 172.347  0.00  0.00     0.209 HD
ENDBRANCH   7   8
ENDBRANCH   5   7
BRANCH   6  10
HETATM   10  O   UNK     0     184.545 182.654 173.276  0.00  0.00    -0.318 OA
BRANCH  10  11
HETATM   11  C   UNK     0     183.335 182.497 172.669  0.00  0.00     0.077 A 
HETATM   12  C   UNK     0     182.589 181.339 172.893  0.00  0.00     0.075 A 
HETATM   13  C   UNK     0     181.351 181.181 172.271  0.00  0.00     0.095 A 
HETATM   14  O   UNK     0     180.664 180.021 172.529  0.00  0.00    -0.309 OA
HETATM   15  C   UNK     0     180.862 182.178 171.428  0.00  0.00     0.081 A 
HETATM   16  C   UNK     0     179.428 179.839 171.929  0.00  0.00     0.090 A 
HETATM   17  C   UNK     0     178.855 180.721 171.095  0.00  0.00     0.094 A 
HETATM   18  C   UNK     0     179.554 181.984 170.783  0.00  0.00     0.190 A 
HETATM   19  O   UNK     0     179.067 182.815 170.030  0.00  0.00    -0.287 OA
HETATM   20  C   UNK     0     181.606 183.339 171.201  0.00  0.00     0.085 A 
HETATM   21  C   UNK     0     182.844 183.494 171.826  0.00  0.00     0.074 A 
BRANCH  16  22
HETATM   22  C   UNK     0     178.779 178.556 172.269  0.00  0.00     0.001 A 
HETATM   23  C   UNK     0     179.513 177.369 172.236  0.00  0.00     0.053 A 
HETATM   24  C   UNK     0     178.900 176.158 172.560  0.00  0.00     0.099 A 
HETATM   25  C   UNK     0     177.552 176.131 172.915  0.00  0.00     0.098 A 
HETATM   26  C   UNK     0     176.817 177.316 172.950  0.00  0.00     0.040 A 
HETATM   27  C   UNK     0     177.428 178.527 172.627  0.00  0.00     0.017 A 
BRANCH  24  28
HETATM   28  O   UNK     0     179.628 175.006 172.521  0.00  0.00    -0.358 OA
HETATM   29  H   UNK     0     180.110 174.921 173.361  0.00  0.00     0.217 HD
ENDBRANCH  24  28
BRANCH  25  30
HETATM   30  O   UNK     0     176.943 174.955 173.234  0.00  0.00    -0.358 OA
HETATM   31  H   UNK     0     176.511 175.047 174.101  0.00  0.00     0.217 HD
ENDBRANCH  25  30
ENDBRANCH  16  22
BRANCH  20  32
HETATM   32  O   UNK     0     181.171 184.340 170.387  0.00  0.00    -0.360 OA
HETATM   33  H   UNK     0     181.285 184.097 169.456  0.00  0.00     0.217 HD
ENDBRANCH  20  32
ENDBRANCH  10  11
ENDBRANCH   6  10
BRANCH   3  34
HETATM   34  O   UNK     0     187.454 187.226 174.317  0.00  0.00    -0.390 OA
HETATM   35  H   UNK     0     188.400 187.252 174.543  0.00  0.00     0.210 HD
ENDBRANCH   3  34
BRANCH   4  36
HETATM   36  O   UNK     0     184.461 183.810 175.858  0.00  0.00    -0.388 OA
HETATM   37  H   UNK     0     183.626 184.037 175.414  0.00  0.00     0.210 HD
ENDBRANCH   4  36
BRANCH   2  38
HETATM   38  O   UNK     0     186.897 185.357 176.451  0.00  0.00    -0.390 OA
HETATM   39  H   UNK     0     187.265 184.459 176.514  0.00  0.00     0.210 HD
ENDBRANCH   2  38
TORSDOF 11
