REMARK VINA RESULT:      -8.1      2.651      4.436
REMARK  11 active torsions:
REMARK  status: ('A' for Active; 'I' for Inactive)
REMARK    1  A    between atoms: O_2  and  C_16 
REMARK    2  A    between atoms: O_2  and  C_18 
REMARK    3  A    between atoms: O_3  and  C_12 
REMARK    4  A    between atoms: O_4  and  C_13 
REMARK    5  A    between atoms: O_5  and  C_14 
REMARK    6  A    between atoms: O_6  and  C_17 
REMARK    7  A    between atoms: O_8  and  C_23 
REMARK    8  A    between atoms: O_10  and  C_30 
REMARK    9  A    between atoms: O_11  and  C_32 
REMARK   10  A    between atoms: C_15  and  C_17 
REMARK   11  A    between atoms: C_25  and  C_27 
ROOT
HETATM    1  O   UNK     0     185.054 184.486 172.603  0.00  0.00    -0.348 OA
HETATM    2  C   UNK     0     186.313 184.382 175.183  0.00  0.00     0.183 C 
HETATM    3  C   UNK     0     186.373 185.621 174.290  0.00  0.00     0.180 C 
HETATM    4  C   UNK     0     186.025 183.123 174.363  0.00  0.00     0.205 C 
HETATM    5  C   UNK     0     185.152 185.688 173.370  0.00  0.00     0.179 C 
HETATM    6  C   UNK     0     184.843 183.334 173.417  0.00  0.00     0.298 C 
ENDROOT
BRANCH   5   7
HETATM    7  C   UNK     0     185.247 186.852 172.389  0.00  0.00     0.198 C 
BRANCH   7   8
HETATM    8  O   UNK     0     186.601 187.255 172.298  0.00  0.00    -0.398 OA
HETATM    9  H   UNK     0     186.904 187.477 173.196  0.00  0.00     0.209 HD
ENDBRANCH   7   8
ENDBRANCH   5   7
BRANCH   6  10
HETATM   10  O   UNK     0     184.729 182.175 172.591  0.00  0.00    -0.318 OA
BRANCH  10  11
HETATM   11  C   UNK     0     183.502 181.582 172.538  0.00  0.00     0.077 A 
HETATM   12  C   UNK     0     183.402 180.212 172.291  0.00  0.00     0.075 A 
HETATM   13  C   UNK     0     182.147 179.608 172.237  0.00  0.00     0.095 A 
HETATM   14  O   UNK     0     182.112 178.258 171.990  0.00  0.00    -0.309 OA
HETATM   15  C   UNK     0     180.996 180.371 172.428  0.00  0.00     0.081 A 
HETATM   16  C   UNK     0     180.877 177.629 171.937  0.00  0.00     0.090 A 
HETATM   17  C   UNK     0     179.702 178.256 172.099  0.00  0.00     0.094 A 
HETATM   18  C   UNK     0     179.685 179.708 172.364  0.00  0.00     0.190 A 
HETATM   19  O   UNK     0     178.636 180.318 172.519  0.00  0.00    -0.287 OA
HETATM   20  C   UNK     0     181.092 181.743 172.676  0.00  0.00     0.085 A 
HETATM   21  C   UNK     0     182.351 182.345 172.730  0.00  0.00     0.074 A 
BRANCH  16  22
HETATM   22  C   UNK     0     180.954 176.180 171.660  0.00  0.00     0.001 A 
HETATM   23  C   UNK     0     179.812 175.384 171.770  0.00  0.00     0.053 A 
HETATM   24  C   UNK     0     179.885 174.015 171.508  0.00  0.00     0.099 A 
HETATM   25  C   UNK     0     181.099 173.440 171.136  0.00  0.00     0.098 A 
HETATM   26  C   UNK     0     182.241 174.233 171.024  0.00  0.00     0.040 A 
HETATM   27  C   UNK     0     182.170 175.600 171.286  0.00  0.00     0.017 A 
BRANCH  24  28
HETATM   28  O   UNK     0     178.763 173.250 171.622  0.00  0.00    -0.358 OA
HETATM   29  H   UNK     0     178.742 172.870 172.517  0.00  0.00     0.217 HD
ENDBRANCH  24  28
BRANCH  25  30
HETATM   30  O   UNK     0     181.183 172.105 170.876  0.00  0.00    -0.358 OA
HETATM   31  H   UNK     0     180.580 171.628 171.473  0.00  0.00     0.217 HD
ENDBRANCH  25  30
ENDBRANCH  16  22
BRANCH  20  32
HETATM   32  O   UNK     0     179.999 182.531 172.870  0.00  0.00    -0.360 OA
HETATM   33  H   UNK     0     179.833 183.082 172.090  0.00  0.00     0.217 HD
ENDBRANCH  20  32
ENDBRANCH  10  11
ENDBRANCH   6  10
BRANCH   3  34
HETATM   34  O   UNK     0     186.411 186.789 175.107  0.00  0.00    -0.390 OA
HETATM   35  H   UNK     0     187.332 187.099 175.145  0.00  0.00     0.210 HD
ENDBRANCH   3  34
BRANCH   4  36
HETATM   36  O   UNK     0     185.706 182.047 175.245  0.00  0.00    -0.388 OA
HETATM   37  H   UNK     0     184.891 182.279 175.722  0.00  0.00     0.210 HD
ENDBRANCH   4  36
BRANCH   2  38
HETATM   38  O   UNK     0     187.576 184.245 175.836  0.00  0.00    -0.390 OA
HETATM   39  H   UNK     0     187.779 183.295 175.880  0.00  0.00     0.210 HD
ENDBRANCH   2  38
TORSDOF 11
