REMARK VINA RESULT:      -7.8      5.368      9.646
REMARK  11 active torsions:
REMARK  status: ('A' for Active; 'I' for Inactive)
REMARK    1  A    between atoms: O_2  and  C_16 
REMARK    2  A    between atoms: O_2  and  C_18 
REMARK    3  A    between atoms: O_3  and  C_12 
REMARK    4  A    between atoms: O_4  and  C_13 
REMARK    5  A    between atoms: O_5  and  C_14 
REMARK    6  A    between atoms: O_6  and  C_17 
REMARK    7  A    between atoms: O_8  and  C_23 
REMARK    8  A    between atoms: O_10  and  C_30 
REMARK    9  A    between atoms: O_11  and  C_32 
REMARK   10  A    between atoms: C_15  and  C_17 
REMARK   11  A    between atoms: C_25  and  C_27 
ROOT
HETATM    1  O   UNK     0     184.674 185.502 172.688  0.00  0.00    -0.348 OA
HETATM    2  C   UNK     0     186.052 185.706 175.200  0.00  0.00     0.183 C 
HETATM    3  C   UNK     0     184.757 184.909 175.036  0.00  0.00     0.180 C 
HETATM    4  C   UNK     0     186.195 186.761 174.102  0.00  0.00     0.205 C 
HETATM    5  C   UNK     0     184.608 184.404 173.600  0.00  0.00     0.179 C 
HETATM    6  C   UNK     0     185.937 186.164 172.719  0.00  0.00     0.298 C 
ENDROOT
BRANCH   5   7
HETATM    7  C   UNK     0     183.269 183.706 173.384  0.00  0.00     0.198 C 
BRANCH   7   8
HETATM    8  O   UNK     0     182.375 184.121 174.401  0.00  0.00    -0.398 OA
HETATM    9  H   UNK     0     182.609 183.640 175.214  0.00  0.00     0.209 HD
ENDBRANCH   7   8
ENDBRANCH   5   7
BRANCH   6  10
HETATM   10  O   UNK     0     185.946 187.229 171.770  0.00  0.00    -0.318 OA
BRANCH  10  11
HETATM   11  C   UNK     0     186.400 186.931 170.520  0.00  0.00     0.077 A 
HETATM   12  C   UNK     0     186.998 185.694 170.274  0.00  0.00     0.075 A 
HETATM   13  C   UNK     0     187.462 185.391 168.995  0.00  0.00     0.095 A 
HETATM   14  O   UNK     0     188.042 184.160 168.814  0.00  0.00    -0.309 OA
HETATM   15  C   UNK     0     187.328 186.322 167.965  0.00  0.00     0.081 A 
HETATM   16  C   UNK     0     188.507 183.829 167.550  0.00  0.00     0.090 A 
HETATM   17  C   UNK     0     188.440 184.641 166.484  0.00  0.00     0.094 A 
HETATM   18  C   UNK     0     187.828 185.976 166.626  0.00  0.00     0.190 A 
HETATM   19  O   UNK     0     187.745 186.746 165.679  0.00  0.00    -0.287 OA
HETATM   20  C   UNK     0     186.729 187.561 168.208  0.00  0.00     0.085 A 
HETATM   21  C   UNK     0     186.265 187.861 169.490  0.00  0.00     0.074 A 
BRANCH  16  22
HETATM   22  C   UNK     0     189.116 182.485 167.469  0.00  0.00     0.001 A 
HETATM   23  C   UNK     0     189.176 181.817 166.244  0.00  0.00     0.053 A 
HETATM   24  C   UNK     0     189.753 180.548 166.167  0.00  0.00     0.099 A 
HETATM   25  C   UNK     0     190.270 179.946 167.313  0.00  0.00     0.098 A 
HETATM   26  C   UNK     0     190.212 180.613 168.538  0.00  0.00     0.040 A 
HETATM   27  C   UNK     0     189.636 181.880 168.616  0.00  0.00     0.017 A 
BRANCH  24  28
HETATM   28  O   UNK     0     189.802 179.906 164.966  0.00  0.00    -0.358 OA
HETATM   29  H   UNK     0     189.083 179.252 164.940  0.00  0.00     0.217 HD
ENDBRANCH  24  28
BRANCH  25  30
HETATM   30  O   UNK     0     190.836 178.709 167.251  0.00  0.00    -0.358 OA
HETATM   31  H   UNK     0     191.487 178.621 167.969  0.00  0.00     0.217 HD
ENDBRANCH  25  30
ENDBRANCH  16  22
BRANCH  20  32
HETATM   32  O   UNK     0     186.575 188.503 167.237  0.00  0.00    -0.360 OA
HETATM   33  H   UNK     0     186.726 188.117 166.360  0.00  0.00     0.217 HD
ENDBRANCH  20  32
ENDBRANCH  10  11
ENDBRANCH   6  10
BRANCH   3  34
HETATM   34  O   UNK     0     184.774 183.797 175.928  0.00  0.00    -0.390 OA
HETATM   35  H   UNK     0     183.997 183.245 175.733  0.00  0.00     0.210 HD
ENDBRANCH   3  34
BRANCH   4  36
HETATM   36  O   UNK     0     187.521 187.289 174.122  0.00  0.00    -0.388 OA
HETATM   37  H   UNK     0     187.500 188.139 174.594  0.00  0.00     0.210 HD
ENDBRANCH   4  36
BRANCH   2  38
HETATM   38  O   UNK     0     186.020 186.348 176.475  0.00  0.00    -0.390 OA
HETATM   39  H   UNK     0     185.087 186.413 176.744  0.00  0.00     0.210 HD
ENDBRANCH   2  38
TORSDOF 11
