341352591
  Mrv2312 10092320213D          

101107  0  0  1  0            999 V2000
    0.0109   -3.5757    1.6953 O   0  0  0  0  0  0  0  0  0  0  0  0
   -4.6552   -2.9448    1.8730 O   0  0  0  0  0  0  0  0  0  0  0  0
    1.7547   -3.7434    6.1446 O   0  0  0  0  0  0  0  0  0  0  0  0
   -5.3537   -0.2467    5.9662 O   0  0  0  0  0  0  0  0  0  0  0  0
   -3.1027   -3.7012    0.4377 O   0  0  0  0  0  0  0  0  0  0  0  0
    1.2196   -1.3669    9.6489 O   0  0  0  0  0  0  0  0  0  0  0  0
   -3.0564    1.5757    9.1630 O   0  0  0  0  0  0  0  0  0  0  0  0
    1.6601   -2.1782    2.7192 O   0  0  0  0  0  0  0  0  0  0  0  0
   -6.8371   -1.1040    4.3077 O   0  0  0  0  0  0  0  0  0  0  0  0
    3.6465   -3.1909    7.5375 O   0  0  0  0  0  0  0  0  0  0  0  0
   -4.6974    2.8062    7.9731 O   0  0  0  0  0  0  0  0  0  0  0  0
   -0.3805   -0.0988   10.6730 O   0  0  0  0  0  0  0  0  0  0  0  0
   -0.2992   -0.6899    1.0814 O   0  0  0  0  0  0  0  0  0  0  0  0
   -3.2727   -0.6151    1.5114 O   0  0  0  0  0  0  0  0  0  0  0  0
   -4.1050   -4.3004    4.5366 O   0  0  0  0  0  0  0  0  0  0  0  0
    2.6093   -5.9251    4.3739 O   0  0  0  0  0  0  0  0  0  0  0  0
    1.8204   -5.7284    1.6542 O   0  0  0  0  0  0  0  0  0  0  0  0
   -7.2162   -0.3535    8.5820 O   0  0  0  0  0  0  0  0  0  0  0  0
   -4.8319   -2.8603    6.9019 O   0  0  0  0  0  0  0  0  0  0  0  0
    1.0331   -4.5482   10.4270 O   0  0  0  0  0  0  0  0  0  0  0  0
   -2.8289   -0.7646    7.4370 O   0  0  0  0  0  0  0  0  0  0  0  0
    1.3798   -6.0377    7.9059 O   0  0  0  0  0  0  0  0  0  0  0  0
   -5.5674    0.6332   10.7927 O   0  0  0  0  0  0  0  0  0  0  0  0
   -0.4590   -1.9960    7.5321 O   0  0  0  0  0  0  0  0  0  0  0  0
   -2.5021   -6.4382   -0.1363 O   0  0  0  0  0  0  0  0  0  0  0  0
   -7.8957   -1.7847    1.7167 O   0  0  0  0  0  0  0  0  0  0  0  0
    2.8892   -0.5725    4.8421 O   0  0  0  0  0  0  0  0  0  0  0  0
   -6.3160    3.4869    5.6272 O   0  0  0  0  0  0  0  0  0  0  0  0
    3.5575    0.1353    9.0544 O   0  0  0  0  0  0  0  0  0  0  0  0
   -1.4641   -0.4737   13.2572 O   0  0  0  0  0  0  0  0  0  0  0  0
    0.6642    1.9577    1.3034 O   0  0  0  0  0  0  0  0  0  0  0  0
   -0.6417   -3.1006    0.4840 C   0  0  2  0  0  0  0  0  0  0  0  0
   -1.2717   -1.6893    0.6918 C   0  0  1  0  0  0  0  0  0  0  0  0
   -5.3321   -2.6850    3.1299 C   0  0  1  0  0  0  0  0  0  0  0  0
    2.1405   -3.5179    4.7598 C   0  0  1  0  0  0  0  0  0  0  0  0
   -2.4173   -1.7297    1.7534 C   0  0  2  0  0  0  0  0  0  0  0  0
   -3.2235   -3.0699    1.7267 C   0  0  1  0  0  0  0  0  0  0  0  0
   -5.7905    0.7661    6.9218 C   0  0  1  0  0  0  0  0  0  0  0  0
    2.0466   -2.5471    9.4066 C   0  0  1  0  0  0  0  0  0  0  0  0
   -2.6548    0.2651    9.6501 C   0  0  1  0  0  0  0  0  0  0  0  0
    1.4281   -3.3151    1.8647 C   0  0  1  0  0  0  0  0  0  0  0  0
   -4.5880   -2.9572    4.4732 C   0  0  1  0  0  0  0  0  0  0  0  0
    1.8574   -4.8019    3.9176 C   0  0  1  0  0  0  0  0  0  0  0  0
    2.1606   -4.5689    2.4140 C   0  0  1  0  0  0  0  0  0  0  0  0
   -6.2520   -1.3284    5.6088 C   0  0  1  0  0  0  0  0  0  0  0  0
   -5.5416   -2.7126    5.6758 C   0  0  2  0  0  0  0  0  0  0  0  0
   -5.9117    0.1937    8.3779 C   0  0  1  0  0  0  0  0  0  0  0  0
    1.3556   -3.9421    9.1739 C   0  0  1  0  0  0  0  0  0  0  0  0
   -1.7699   -4.0974    0.0347 C   0  0  1  0  0  0  0  0  0  0  0  0
    2.7813   -4.2345    7.0587 C   0  0  1  0  0  0  0  0  0  0  0  0
   -1.9086   -0.3810    8.4525 C   0  0  1  0  0  0  0  0  0  0  0  0
   -4.4079    2.1181    9.2114 C   0  0  1  0  0  0  0  0  0  0  0  0
   -0.1619   -1.3979   10.0603 C   0  0  1  0  0  0  0  0  0  0  0  0
    2.1847   -4.9298    8.3090 C   0  0  2  0  0  0  0  0  0  0  0  0
   -5.6495    1.2353    9.5018 C   0  0  2  0  0  0  0  0  0  0  0  0
   -1.1155   -1.6518    8.8177 C   0  0  2  0  0  0  0  0  0  0  0  0
   -5.9582   -1.2526    3.1664 C   0  0  1  0  0  0  0  0  0  0  0  0
    1.3183   -2.3456    4.1172 C   0  0  1  0  0  0  0  0  0  0  0  0
   -4.7683    1.9550    6.8028 C   0  0  1  0  0  0  0  0  0  0  0  0
    2.9785   -2.1104    8.2204 C   0  0  1  0  0  0  0  0  0  0  0  0
   -1.7498    0.3116   10.9339 C   0  0  1  0  0  0  0  0  0  0  0  0
   -1.5037   -5.5804    0.4080 C   0  0  0  0  0  0  0  0  0  0  0  0
   -6.7922   -0.9012    1.9046 C   0  0  0  0  0  0  0  0  0  0  0  0
    1.5186   -0.9533    4.7682 C   0  0  0  0  0  0  0  0  0  0  0  0
   -5.0510    2.8366    5.5570 C   0  0  0  0  0  0  0  0  0  0  0  0
    4.0931   -1.1138    8.6287 C   0  0  0  0  0  0  0  0  0  0  0  0
   -2.3483   -0.4698   12.1395 C   0  0  0  0  0  0  0  0  0  0  0  0
    0.4504   -0.0868    0.0049 C   0  0  0  0  0  0  0  0  0  0  0  0
    1.4092    0.9921    0.5613 C   0  0  1  0  0  0  0  0  0  0  0  0
    2.1988    1.7001   -0.5655 C   0  0  0  0  0  0  0  0  0  0  0  0
    0.0675   -3.0486   -0.3491 H   0  0  0  0  0  0  0  0  0  0  0  0
   -1.7398   -1.3978   -0.2588 H   0  0  0  0  0  0  0  0  0  0  0  0
   -6.1690   -3.3885    3.1022 H   0  0  0  0  0  0  0  0  0  0  0  0
    3.2032   -3.2657    4.6817 H   0  0  0  0  0  0  0  0  0  0  0  0
   -1.9940   -1.6030    2.7533 H   0  0  0  0  0  0  0  0  0  0  0  0
   -2.8211   -3.7647    2.4673 H   0  0  0  0  0  0  0  0  0  0  0  0
   -6.7780    1.1414    6.6340 H   0  0  0  0  0  0  0  0  0  0  0  0
    2.6768   -2.6642   10.2924 H   0  0  0  0  0  0  0  0  0  0  0  0
   -3.5068   -0.3723    9.8603 H   0  0  0  0  0  0  0  0  0  0  0  0
    1.9054   -3.0816    0.9091 H   0  0  0  0  0  0  0  0  0  0  0  0
   -3.7286   -2.2884    4.5553 H   0  0  0  0  0  0  0  0  0  0  0  0
    0.8047   -5.0710    4.0308 H   0  0  0  0  0  0  0  0  0  0  0  0
    3.2386   -4.4128    2.3046 H   0  0  0  0  0  0  0  0  0  0  0  0
   -7.0967   -1.3812    6.2974 H   0  0  0  0  0  0  0  0  0  0  0  0
   -5.2251   -0.6414    8.4852 H   0  0  0  0  0  0  0  0  0  0  0  0
   -6.3096   -3.4914    5.6625 H   0  0  0  0  0  0  0  0  0  0  0  0
    0.4101   -3.8344    8.6679 H   0  0  0  0  0  0  0  0  0  0  0  0
    3.4219   -4.9686    6.5630 H   0  0  0  0  0  0  0  0  0  0  0  0
   -1.8067   -4.0696   -1.0597 H   0  0  0  0  0  0  0  0  0  0  0  0
   -1.2192    0.3529    8.0246 H   0  0  0  0  0  0  0  0  0  0  0  0
   -4.3730    2.8879    9.9830 H   0  0  0  0  0  0  0  0  0  0  0  0
   -0.2956   -2.1671   10.8250 H   0  0  0  0  0  0  0  0  0  0  0  0
    3.0048   -5.3231    8.9160 H   0  0  0  0  0  0  0  0  0  0  0  0
   -6.5169    1.9007    9.5382 H   0  0  0  0  0  0  0  0  0  0  0  0
   -1.8678   -2.4075    9.1699 H   0  0  0  0  0  0  0  0  0  0  0  0
   -5.1568   -0.5140    3.2419 H   0  0  0  0  0  0  0  0  0  0  0  0
    0.2505   -2.5770    4.1971 H   0  0  0  0  0  0  0  0  0  0  0  0
   -3.7624    1.5674    6.6431 H   0  0  0  0  0  0  0  0  0  0  0  0
    2.3688   -1.5996    7.4814 H   0  0  0  0  0  0  0  0  0  0  0  0
   -1.6882    1.3542   11.2596 H   0  0  0  0  0  0  0  0  0  0  0  0
    1.3332    2.5768    1.6662 H   0  0  0  0  0  0  0  0  0  0  0  0
  1 32  1  0  0  0  0
  1 41  1  0  0  0  0
  2 34  1  0  0  0  0
  2 37  1  0  0  0  0
  3 35  1  0  0  0  0
  3 50  1  0  0  0  0
  4 38  1  0  0  0  0
  4 45  1  0  0  0  0
  5 37  1  0  0  0  0
  5 49  1  0  0  0  0
  6 39  1  0  0  0  0
  6 53  1  0  0  0  0
  7 40  1  0  0  0  0
  7 52  1  0  0  0  0
  8 41  1  0  0  0  0
  8 58  1  0  0  0  0
  9 45  1  0  0  0  0
  9 57  1  0  0  0  0
 10 50  1  0  0  0  0
 10 60  1  0  0  0  0
 11 52  1  0  0  0  0
 11 59  1  0  0  0  0
 12 53  1  0  0  0  0
 12 61  1  0  0  0  0
 13 33  1  0  0  0  0
 13 68  1  0  0  0  0
 14 36  1  0  0  0  0
 15 42  1  0  0  0  0
 16 43  1  0  0  0  0
 17 44  1  0  0  0  0
 18 47  1  0  0  0  0
 19 46  1  0  0  0  0
 20 48  1  0  0  0  0
 21 51  1  0  0  0  0
 22 54  1  0  0  0  0
 23 55  1  0  0  0  0
 24 56  1  0  0  0  0
 25 62  1  0  0  0  0
 26 63  1  0  0  0  0
 27 64  1  0  0  0  0
 28 65  1  0  0  0  0
 29 66  1  0  0  0  0
 30 67  1  0  0  0  0
 31 69  1  0  0  0  0
 31101  1  0  0  0  0
 32 33  1  0  0  0  0
 32 49  1  0  0  0  0
 32 71  1  0  0  0  0
 33 36  1  0  0  0  0
 33 72  1  0  0  0  0
 34 42  1  0  0  0  0
 34 57  1  0  0  0  0
 34 73  1  0  0  0  0
 35 43  1  0  0  0  0
 35 58  1  0  0  0  0
 35 74  1  0  0  0  0
 36 37  1  0  0  0  0
 36 75  1  0  0  0  0
 37 76  1  0  0  0  0
 38 47  1  0  0  0  0
 38 59  1  0  0  0  0
 38 77  1  0  0  0  0
 39 48  1  0  0  0  0
 39 60  1  0  0  0  0
 39 78  1  0  0  0  0
 40 51  1  0  0  0  0
 40 61  1  0  0  0  0
 40 79  1  0  0  0  0
 41 44  1  0  0  0  0
 41 80  1  0  0  0  0
 42 46  1  0  0  0  0
 42 81  1  0  0  0  0
 43 44  1  0  0  0  0
 43 82  1  0  0  0  0
 44 83  1  0  0  0  0
 45 46  1  0  0  0  0
 45 84  1  0  0  0  0
 46 86  1  0  0  0  0
 47 55  1  0  0  0  0
 47 85  1  0  0  0  0
 48 54  1  0  0  0  0
 48 87  1  0  0  0  0
 49 62  1  0  0  0  0
 49 89  1  0  0  0  0
 50 54  1  0  0  0  0
 50 88  1  0  0  0  0
 51 56  1  0  0  0  0
 51 90  1  0  0  0  0
 52 55  1  0  0  0  0
 52 91  1  0  0  0  0
 53 56  1  0  0  0  0
 53 92  1  0  0  0  0
 54 93  1  0  0  0  0
 55 94  1  0  0  0  0
 56 95  1  0  0  0  0
 57 63  1  0  0  0  0
 57 96  1  0  0  0  0
 58 64  1  0  0  0  0
 58 97  1  0  0  0  0
 59 65  1  0  0  0  0
 59 98  1  0  0  0  0
 60 66  1  0  0  0  0
 60 99  1  0  0  0  0
 61 67  1  0  0  0  0
 61100  1  0  0  0  0
 68 69  1  0  0  0  0
 69 70  1  0  0  0  0
M  END
>  <PUBCHEM_COMPOUND_ID_TYPE>
0

>  <PUBCHEM_TOTAL_CHARGE>
0

>  <PUBCHEM_SUBSTANCE_ID>
341352591

>  <PUBCHEM_SUBSTANCE_VERSION>
1

>  <PUBCHEM_EXT_DATASOURCE_NAME>
15745

>  <PUBCHEM_EXT_DATASOURCE_REGID>
70106944-504201891

>  <PUBCHEM_SUBSTANCE_COMMENT>
This substance has the INFOCHEM hashcode: 70106944-504201891

>  <PUBCHEM_SUBSTANCE_SYNONYM>
2-hydroxypropyl-cyclodextrin

>  <PUBCHEM_XREF_EXT_ID>
70106944-504201891

>  <PUBCHEM_EXT_DATASOURCE_URL>
https://link.springer.com

>  <PUBCHEM_CID_ASSOCIATIONS>
129688311  1

>  <PUBCHEM_COORDINATE_TYPE>
1
3

>  <PUBCHEM_BONDANNOTATIONS>
32  71  6
33  72  6
34  73  5
35  74  5
36  75  5
37  76  5
38  77  5
39  78  5
40  79  5
41  80  5
42  81  6
43  82  6
44  83  5
45  84  5
46  86  5
47  85  6
48  87  6
49  89  6
50  88  5
51  90  6
52  91  5
53  92  5
54  93  5
55  94  5
56  95  5
57  96  6
58  97  6
59  98  6
60  99  6
61  100  6

$$$$
