MODEL 1
REMARK VINA RESULT:   -12.267      0.000      0.000
REMARK INTER + INTRA:         -35.854
REMARK INTER:                 -33.423
REMARK INTRA:                  -2.431
REMARK UNBOUND:                -2.431
REMARK WARNING: 32 MAX_TORS EXCEEDED!!!
REMARK  43 active torsions:
REMARK  status: ('A' for Active; 'I' for Inactive)
REMARK    1  A    between atoms: O_2  and  C_27 
REMARK    2  A    between atoms: O_2  and  C_33 
REMARK    3  A    between atoms: O_3  and  C_28 
REMARK    4  A    between atoms: O_3  and  C_34 
REMARK    5  A    between atoms: O_4  and  C_29 
REMARK    6  A    between atoms: O_4  and  C_35 
REMARK    7  A    between atoms: O_5  and  C_31 
REMARK    8  A    between atoms: O_5  and  C_36 
REMARK    9  A    between atoms: O_6  and  C_32 
REMARK   10  A    between atoms: O_6  and  C_39 
REMARK   11  A    between atoms: O_12  and  C_51 
REMARK   12  A    between atoms: O_13  and  C_52 
REMARK   13  A    between atoms: O_13  and  C_99 
REMARK   14  A    between atoms: O_14  and  C_53 
REMARK   15  A    between atoms: O_15  and  C_54 
REMARK   16  A    between atoms: O_16  and  C_55 
REMARK   17  A    between atoms: O_17  and  C_56 
REMARK   18  A    between atoms: O_18  and  C_59 
REMARK   19  A    between atoms: O_19  and  C_60 
REMARK   20  A    between atoms: O_20  and  C_61 
REMARK   21  A    between atoms: O_21  and  C_62 
REMARK   22  A    between atoms: O_22  and  C_63 
REMARK   23  A    between atoms: O_23  and  C_64 
REMARK   24  A    between atoms: O_24  and  C_65 
REMARK   25  A    between atoms: O_24  and  C_85 
REMARK   26  A    between atoms: O_25  and  C_66 
REMARK   27  A    between atoms: O_26  and  C_67 
REMARK   28  A    between atoms: C_28  and  C_30 
REMARK   29  A    between atoms: C_29  and  C_31 
REMARK   30  A    between atoms: C_30  and  C_32 
REMARK   31  A    between atoms: C_33  and  C_37 
REMARK   32  A    between atoms: C_34  and  C_38 
REMARK   33  A    between atoms: C_35  and  C_40 
REMARK   34  A    between atoms: C_36  and  C_41 
REMARK   35  A    between atoms: C_39  and  C_42 
REMARK   36  A    between atoms: O_82  and  C_89 
REMARK   37  A    between atoms: O_83  and  C_90 
REMARK   38  A    between atoms: O_84  and  C_91 
REMARK   39  A    between atoms: C_85  and  C_86 
REMARK   40  A    between atoms: O_96  and  C_103 
REMARK   41  A    between atoms: O_97  and  C_104 
REMARK   42  A    between atoms: O_98  and  C_105 
REMARK   43  A    between atoms: C_99  and  C_100 
ROOT
HETATM    1  O   UNL     1      83.372  92.765 114.658  1.00  0.00    -0.348 OA
HETATM    2  C   UNL     1      82.370  92.206 113.920  1.00  0.00     0.201 A 
HETATM    3  C   UNL     1      82.956  93.462 113.573  1.00  0.00     0.282 A 
ENDROOT
BRANCH   2   4
HETATM    4  C   UNL     1      81.621  92.551 113.906  1.00  0.00     0.199 A 
HETATM    5  C   UNL     1      80.514  91.414 114.202  1.00  0.00     0.198 A 
HETATM    6  C   UNL     1      81.366  92.051 115.220  1.00  0.00     0.215 A 
BRANCH   4   7
HETATM    7  O   UNL     1      81.311  92.121 112.253  1.00  0.00    -0.306 OA
BRANCH   7   8
HETATM    8  C   UNL     1      80.824  92.483 111.076  1.00  0.00     0.294 C 
HETATM    9  O   UNL     1      80.701  91.701 110.141  1.00  0.00    -0.259 OA
BRANCH   8  10
HETATM   10  C   UNL     1      80.299  93.829 110.925  1.00  0.00     0.045 A 
HETATM   11  C   UNL     1      81.170  94.802 110.420  1.00  0.00     0.057 A 
HETATM   12  C   UNL     1      80.635  95.929 109.823  1.00  0.00     0.102 A 
HETATM   13  C   UNL     1      79.256  96.090 109.771  1.00  0.00     0.132 A 
HETATM   14  C   UNL     1      78.410  95.176 110.392  1.00  0.00     0.102 A 
HETATM   15  C   UNL     1      78.919  94.019 110.955  1.00  0.00     0.057 A 
BRANCH  12  16
HETATM   16  O   UNL     1      81.426  96.872 109.231  1.00  0.00    -0.358 OA
HETATM   17  H   UNL     1      82.025  97.221 109.918  1.00  0.00     0.217 HD
ENDBRANCH  12  16
BRANCH  13  18
HETATM   18  O   UNL     1      78.701  97.116 109.055  1.00  0.00    -0.356 OA
HETATM   19  H   UNL     1      78.735  96.796 108.129  1.00  0.00     0.218 HD
ENDBRANCH  13  18
BRANCH  14  20
HETATM   20  O   UNL     1      77.063  95.397 110.393  1.00  0.00    -0.358 OA
HETATM   21  H   UNL     1      76.943  96.110 109.734  1.00  0.00     0.217 HD
ENDBRANCH  14  20
ENDBRANCH   8  10
ENDBRANCH   7   8
ENDBRANCH   4   7
BRANCH   5  22
HETATM   22  O   UNL     1      79.150  91.908 114.186  1.00  0.00    -0.306 OA
BRANCH  22  23
HETATM   23  C   UNL     1      78.218  91.071 113.688  1.00  0.00     0.294 C 
HETATM   24  O   UNL     1      78.282  89.943 113.214  1.00  0.00    -0.259 OA
BRANCH  23  25
HETATM   25  C   UNL     1      76.965  91.705 113.745  1.00  0.00     0.045 C 
HETATM   26  C   UNL     1      76.273  91.438 112.592  1.00  0.00     0.058 C 
HETATM   27  C   UNL     1      75.739  92.540 112.004  1.00  0.00     0.116 C 
HETATM   28  C   UNL     1      75.476  93.691 112.770  1.00  0.00     0.133 C 
HETATM   29  C   UNL     1      76.035  93.825 114.039  1.00  0.00     0.102 C 
HETATM   30  C   UNL     1      76.918  92.884 114.472  1.00  0.00     0.057 C 
BRANCH  27  31
HETATM   31  O   UNL     1      75.644  92.575 110.605  1.00  0.00    -0.272 OA
BRANCH  31  32
HETATM   32  C   UNL     1      74.971  91.551 109.904  1.00  0.00     0.298 C 
HETATM   33  O   UNL     1      73.897  91.038 110.053  1.00  0.00    -0.259 OA
BRANCH  32  34
HETATM   34  C   UNL     1      75.800  91.507 108.699  1.00  0.00     0.045 C 
HETATM   35  C   UNL     1      77.166  91.757 108.830  1.00  0.00     0.057 C 
HETATM   36  C   UNL     1      77.748  92.509 107.827  1.00  0.00     0.102 C 
HETATM   37  C   UNL     1      76.958  93.099 106.841  1.00  0.00     0.132 C 
HETATM   38  C   UNL     1      75.614  92.785 106.730  1.00  0.00     0.102 C 
HETATM   39  C   UNL     1      75.057  91.846 107.558  1.00  0.00     0.057 C 
BRANCH  36  40
HETATM   40  O   UNL     1      79.080  92.799 107.836  1.00  0.00    -0.358 OA
HETATM   41  H   UNL     1      79.496  92.122 108.402  1.00  0.00     0.217 HD
ENDBRANCH  36  40
BRANCH  37  42
HETATM   42  O   UNL     1      77.476  94.057 106.020  1.00  0.00    -0.356 OA
HETATM   43  H   UNL     1      77.332  94.895 106.506  1.00  0.00     0.218 HD
ENDBRANCH  37  42
BRANCH  38  44
HETATM   44  O   UNL     1      74.774  93.539 105.966  1.00  0.00    -0.358 OA
HETATM   45  H   UNL     1      74.219  94.030 106.604  1.00  0.00     0.217 HD
ENDBRANCH  38  44
ENDBRANCH  32  34
ENDBRANCH  31  32
ENDBRANCH  27  31
BRANCH  28  46
HETATM   46  O   UNL     1      74.695  94.709 112.311  1.00  0.00    -0.356 OA
HETATM   47  H   UNL     1      74.633  94.602 111.345  1.00  0.00     0.218 HD
ENDBRANCH  28  46
BRANCH  29  48
HETATM   48  O   UNL     1      75.808  94.887 114.852  1.00  0.00    -0.358 OA
HETATM   49  H   UNL     1      74.887  94.786 115.147  1.00  0.00     0.217 HD
ENDBRANCH  29  48
ENDBRANCH  23  25
ENDBRANCH  22  23
ENDBRANCH   5  22
BRANCH   6  50
HETATM   50  O   UNL     1      80.699  91.691 116.690  1.00  0.00    -0.304 OA
BRANCH  50  51
HETATM   51  C   UNL     1      81.198  91.928 117.936  1.00  0.00     0.294 C 
HETATM   52  O   UNL     1      80.726  92.557 118.862  1.00  0.00    -0.259 OA
BRANCH  51  53
HETATM   53  C   UNL     1      82.495  91.255 117.956  1.00  0.00     0.045 A 
HETATM   54  C   UNL     1      82.584  90.079 117.210  1.00  0.00     0.057 A 
HETATM   55  C   UNL     1      83.765  89.371 117.208  1.00  0.00     0.102 A 
HETATM   56  C   UNL     1      84.860  89.851 117.906  1.00  0.00     0.132 A 
HETATM   57  C   UNL     1      84.780  91.049 118.614  1.00  0.00     0.102 A 
HETATM   58  C   UNL     1      83.589  91.763 118.664  1.00  0.00     0.057 A 
BRANCH  55  59
HETATM   59  O   UNL     1      83.838  88.225 116.481  1.00  0.00    -0.358 OA
HETATM   60  H   UNL     1      84.774  87.949 116.544  1.00  0.00     0.217 HD
ENDBRANCH  55  59
BRANCH  56  61
HETATM   61  O   UNL     1      86.040  89.163 117.840  1.00  0.00    -0.356 OA
HETATM   62  H   UNL     1      86.316  89.257 116.906  1.00  0.00     0.218 HD
ENDBRANCH  56  61
BRANCH  57  63
HETATM   63  O   UNL     1      85.925  91.509 119.201  1.00  0.00    -0.358 OA
HETATM   64  H   UNL     1      85.840  92.478 119.283  1.00  0.00     0.217 HD
ENDBRANCH  57  63
ENDBRANCH  51  53
ENDBRANCH  50  51
ENDBRANCH   6  50
ENDBRANCH   2   4
BRANCH   2  65
HETATM   65  C   UNL     1      82.223  90.793 113.082  1.00  0.00     0.216 C 
BRANCH  65  66
HETATM   66  O   UNL     1      83.462  90.113 113.266  1.00  0.00    -0.315 OA
BRANCH  66  67
HETATM   67  C   UNL     1      83.333  88.783 113.247  1.00  0.00     0.293 C 
HETATM   68  O   UNL     1      82.441  88.138 113.765  1.00  0.00    -0.259 OA
BRANCH  67  69
HETATM   69  C   UNL     1      84.514  88.242 112.558  1.00  0.00     0.045 C 
HETATM   70  C   UNL     1      84.875  88.624 111.252  1.00  0.00     0.057 C 
HETATM   71  C   UNL     1      86.051  88.143 110.702  1.00  0.00     0.102 C 
HETATM   72  C   UNL     1      86.939  87.433 111.491  1.00  0.00     0.133 C 
HETATM   73  C   UNL     1      86.612  87.182 112.826  1.00  0.00     0.116 C 
HETATM   74  C   UNL     1      85.341  87.433 113.320  1.00  0.00     0.058 C 
BRANCH  71  75
HETATM   75  O   UNL     1      86.386  88.459 109.416  1.00  0.00    -0.358 OA
HETATM   76  H   UNL     1      85.613  88.171 108.887  1.00  0.00     0.217 HD
ENDBRANCH  71  75
BRANCH  72  77
HETATM   77  O   UNL     1      88.148  87.110 110.946  1.00  0.00    -0.356 OA
HETATM   78  H   UNL     1      88.028  87.041 109.978  1.00  0.00     0.218 HD
ENDBRANCH  72  77
BRANCH  73  79
HETATM   79  O   UNL     1      87.598  86.932 113.778  1.00  0.00    -0.272 OA
BRANCH  79  80
HETATM   80  C   UNL     1      87.619  85.553 113.920  1.00  0.00     0.298 C 
HETATM   81  O   UNL     1      87.925  84.798 113.008  1.00  0.00    -0.259 OA
BRANCH  80  82
HETATM   82  C   UNL     1      87.225  85.055 115.270  1.00  0.00     0.045 A 
HETATM   83  C   UNL     1      86.367  85.840 116.055  1.00  0.00     0.057 A 
HETATM   84  C   UNL     1      86.024  85.415 117.334  1.00  0.00     0.102 A 
HETATM   85  C   UNL     1      86.542  84.232 117.842  1.00  0.00     0.132 A 
HETATM   86  C   UNL     1      87.397  83.459 117.062  1.00  0.00     0.102 A 
HETATM   87  C   UNL     1      87.732  83.846 115.764  1.00  0.00     0.057 A 
BRANCH  84  88
HETATM   88  O   UNL     1      85.190  86.207 118.057  1.00  0.00    -0.358 OA
HETATM   89  H   UNL     1      84.536  85.653 118.534  1.00  0.00     0.217 HD
ENDBRANCH  84  88
BRANCH  85  90
HETATM   90  O   UNL     1      86.222  83.837 119.111  1.00  0.00    -0.356 OA
HETATM   91  H   UNL     1      86.746  84.406 119.709  1.00  0.00     0.218 HD
ENDBRANCH  85  90
BRANCH  86  92
HETATM   92  O   UNL     1      87.914  82.329 117.633  1.00  0.00    -0.358 OA
HETATM   93  H   UNL     1      87.593  82.287 118.553  1.00  0.00     0.217 HD
ENDBRANCH  86  92
ENDBRANCH  80  82
ENDBRANCH  79  80
ENDBRANCH  73  79
ENDBRANCH  67  69
ENDBRANCH  66  67
ENDBRANCH  65  66
ENDBRANCH   2  65
BRANCH   3  94
HETATM   94  O   UNL     1      84.303  94.108 113.281  1.00  0.00    -0.285 OA
BRANCH  94  95
HETATM   95  C   UNL     1      85.285  93.320 112.765  1.00  0.00     0.295 C 
HETATM   96  O   UNL     1      85.497  93.066 111.591  1.00  0.00    -0.259 OA
BRANCH  95  97
HETATM   97  C   UNL     1      86.075  92.793 113.869  1.00  0.00     0.045 A 
HETATM   98  C   UNL     1      86.537  93.666 114.857  1.00  0.00     0.057 A 
HETATM   99  C   UNL     1      87.188  93.135 115.952  1.00  0.00     0.102 A 
HETATM  100  C   UNL     1      87.429  91.767 116.025  1.00  0.00     0.132 A 
HETATM  101  C   UNL     1      87.014  90.914 115.005  1.00  0.00     0.102 A 
HETATM  102  C   UNL     1      86.325  91.419 113.915  1.00  0.00     0.057 A 
BRANCH  99 103
HETATM  103  O   UNL     1      87.561  93.962 116.970  1.00  0.00    -0.358 OA
HETATM  104  H   UNL     1      87.473  94.859 116.587  1.00  0.00     0.217 HD
ENDBRANCH  99 103
BRANCH 100 105
HETATM  105  O   UNL     1      88.077  91.271 117.122  1.00  0.00    -0.356 OA
HETATM  106  H   UNL     1      87.393  91.283 117.824  1.00  0.00     0.218 HD
ENDBRANCH 100 105
BRANCH 101 107
HETATM  107  O   UNL     1      87.288  89.582 115.124  1.00  0.00    -0.358 OA
HETATM  108  H   UNL     1      86.985  89.142 114.308  1.00  0.00     0.217 HD
ENDBRANCH 101 107
ENDBRANCH  95  97
ENDBRANCH  94  95
ENDBRANCH   3  94
TORSDOF 43
ENDMDL
MODEL 2
REMARK VINA RESULT:   -12.250      1.766      8.202
REMARK INTER + INTRA:         -35.806
REMARK INTER:                 -31.982
REMARK INTRA:                  -3.824
REMARK UNBOUND:                -2.431
REMARK WARNING: 32 MAX_TORS EXCEEDED!!!
REMARK  43 active torsions:
REMARK  status: ('A' for Active; 'I' for Inactive)
REMARK    1  A    between atoms: O_2  and  C_27 
REMARK    2  A    between atoms: O_2  and  C_33 
REMARK    3  A    between atoms: O_3  and  C_28 
REMARK    4  A    between atoms: O_3  and  C_34 
REMARK    5  A    between atoms: O_4  and  C_29 
REMARK    6  A    between atoms: O_4  and  C_35 
REMARK    7  A    between atoms: O_5  and  C_31 
REMARK    8  A    between atoms: O_5  and  C_36 
REMARK    9  A    between atoms: O_6  and  C_32 
REMARK   10  A    between atoms: O_6  and  C_39 
REMARK   11  A    between atoms: O_12  and  C_51 
REMARK   12  A    between atoms: O_13  and  C_52 
REMARK   13  A    between atoms: O_13  and  C_99 
REMARK   14  A    between atoms: O_14  and  C_53 
REMARK   15  A    between atoms: O_15  and  C_54 
REMARK   16  A    between atoms: O_16  and  C_55 
REMARK   17  A    between atoms: O_17  and  C_56 
REMARK   18  A    between atoms: O_18  and  C_59 
REMARK   19  A    between atoms: O_19  and  C_60 
REMARK   20  A    between atoms: O_20  and  C_61 
REMARK   21  A    between atoms: O_21  and  C_62 
REMARK   22  A    between atoms: O_22  and  C_63 
REMARK   23  A    between atoms: O_23  and  C_64 
REMARK   24  A    between atoms: O_24  and  C_65 
REMARK   25  A    between atoms: O_24  and  C_85 
REMARK   26  A    between atoms: O_25  and  C_66 
REMARK   27  A    between atoms: O_26  and  C_67 
REMARK   28  A    between atoms: C_28  and  C_30 
REMARK   29  A    between atoms: C_29  and  C_31 
REMARK   30  A    between atoms: C_30  and  C_32 
REMARK   31  A    between atoms: C_33  and  C_37 
REMARK   32  A    between atoms: C_34  and  C_38 
REMARK   33  A    between atoms: C_35  and  C_40 
REMARK   34  A    between atoms: C_36  and  C_41 
REMARK   35  A    between atoms: C_39  and  C_42 
REMARK   36  A    between atoms: O_82  and  C_89 
REMARK   37  A    between atoms: O_83  and  C_90 
REMARK   38  A    between atoms: O_84  and  C_91 
REMARK   39  A    between atoms: C_85  and  C_86 
REMARK   40  A    between atoms: O_96  and  C_103 
REMARK   41  A    between atoms: O_97  and  C_104 
REMARK   42  A    between atoms: O_98  and  C_105 
REMARK   43  A    between atoms: C_99  and  C_100 
ROOT
HETATM    1  O   UNL     1      82.548  92.982 111.225  1.00  0.00    -0.348 OA
HETATM    2  C   UNL     1      82.128  92.791 112.509  1.00  0.00     0.201 A 
HETATM    3  C   UNL     1      81.371  93.558 111.570  1.00  0.00     0.282 A 
ENDROOT
BRANCH   2   4
HETATM    4  C   UNL     1      82.110  93.423 113.039  1.00  0.00     0.199 A 
HETATM    5  C   UNL     1      82.814  92.969 114.419  1.00  0.00     0.198 A 
HETATM    6  C   UNL     1      83.529  93.340 113.185  1.00  0.00     0.215 A 
BRANCH   4   7
HETATM    7  O   UNL     1      80.671  92.878 113.843  1.00  0.00    -0.306 OA
BRANCH   7   8
HETATM    8  C   UNL     1      79.529  93.198 114.430  1.00  0.00     0.294 C 
HETATM    9  O   UNL     1      79.476  93.857 115.462  1.00  0.00    -0.259 OA
BRANCH   8  10
HETATM   10  C   UNL     1      78.285  92.864 113.759  1.00  0.00     0.045 A 
HETATM   11  C   UNL     1      78.358  91.967 112.685  1.00  0.00     0.057 A 
HETATM   12  C   UNL     1      77.223  91.263 112.328  1.00  0.00     0.102 A 
HETATM   13  C   UNL     1      76.032  91.486 113.010  1.00  0.00     0.132 A 
HETATM   14  C   UNL     1      75.947  92.473 113.987  1.00  0.00     0.102 A 
HETATM   15  C   UNL     1      77.079  93.158 114.393  1.00  0.00     0.057 A 
BRANCH  12  16
HETATM   16  O   UNL     1      77.248  90.308 111.352  1.00  0.00    -0.358 OA
HETATM   17  H   UNL     1      76.696  90.632 110.615  1.00  0.00     0.217 HD
ENDBRANCH  12  16
BRANCH  13  18
HETATM   18  O   UNL     1      74.939  90.696 112.778  1.00  0.00    -0.356 OA
HETATM   19  H   UNL     1      75.326  89.814 112.596  1.00  0.00     0.218 HD
ENDBRANCH  13  18
BRANCH  14  20
HETATM   20  O   UNL     1      74.748  92.725 114.588  1.00  0.00    -0.358 OA
HETATM   21  H   UNL     1      74.210  91.937 114.373  1.00  0.00     0.217 HD
ENDBRANCH  14  20
ENDBRANCH   8  10
ENDBRANCH   7   8
ENDBRANCH   4   7
BRANCH   5  22
HETATM   22  O   UNL     1      82.827  94.002 115.436  1.00  0.00    -0.306 OA
BRANCH  22  23
HETATM   23  C   UNL     1      83.170  93.611 116.680  1.00  0.00     0.294 C 
HETATM   24  O   UNL     1      83.860  94.123 117.553  1.00  0.00    -0.259 OA
BRANCH  23  25
HETATM   25  C   UNL     1      82.596  92.352 116.931  1.00  0.00     0.045 C 
HETATM   26  C   UNL     1      81.722  92.458 117.982  1.00  0.00     0.058 C 
HETATM   27  C   UNL     1      81.895  91.509 118.938  1.00  0.00     0.116 C 
HETATM   28  C   UNL     1      82.512  90.287 118.616  1.00  0.00     0.133 C 
HETATM   29  C   UNL     1      83.220  90.157 117.422  1.00  0.00     0.102 C 
HETATM   30  C   UNL     1      83.392  91.257 116.638  1.00  0.00     0.057 C 
BRANCH  27  31
HETATM   31  O   UNL     1      81.631  91.847 120.274  1.00  0.00    -0.272 OA
BRANCH  31  32
HETATM   32  C   UNL     1      81.916  93.141 120.759  1.00  0.00     0.298 C 
HETATM   33  O   UNL     1      81.257  94.140 120.835  1.00  0.00    -0.259 OA
BRANCH  32  34
HETATM   34  C   UNL     1      83.154  92.853 121.484  1.00  0.00     0.045 C 
HETATM   35  C   UNL     1      84.345  93.385 120.991  1.00  0.00     0.057 C 
HETATM   36  C   UNL     1      85.455  92.564 121.058  1.00  0.00     0.102 C 
HETATM   37  C   UNL     1      85.322  91.233 121.454  1.00  0.00     0.132 C 
HETATM   38  C   UNL     1      84.127  90.765 121.974  1.00  0.00     0.102 C 
HETATM   39  C   UNL     1      83.074  91.624 122.156  1.00  0.00     0.057 C 
BRANCH  36  40
HETATM   40  O   UNL     1      86.678  92.983 120.628  1.00  0.00    -0.358 OA
HETATM   41  H   UNL     1      87.163  92.175 120.375  1.00  0.00     0.217 HD
ENDBRANCH  36  40
BRANCH  37  42
HETATM   42  O   UNL     1      86.342  90.348 121.260  1.00  0.00    -0.356 OA
HETATM   43  H   UNL     1      86.135  89.927 120.400  1.00  0.00     0.218 HD
ENDBRANCH  37  42
BRANCH  38  44
HETATM   44  O   UNL     1      83.890  89.430 122.110  1.00  0.00    -0.358 OA
HETATM   45  H   UNL     1      83.545  89.323 123.018  1.00  0.00     0.217 HD
ENDBRANCH  38  44
ENDBRANCH  32  34
ENDBRANCH  31  32
ENDBRANCH  27  31
BRANCH  28  46
HETATM   46  O   UNL     1      82.462  89.204 119.441  1.00  0.00    -0.356 OA
HETATM   47  H   UNL     1      82.644  89.529 120.342  1.00  0.00     0.218 HD
ENDBRANCH  28  46
BRANCH  29  48
HETATM   48  O   UNL     1      83.817  89.007 117.023  1.00  0.00    -0.358 OA
HETATM   49  H   UNL     1      84.387  89.264 116.278  1.00  0.00     0.217 HD
ENDBRANCH  29  48
ENDBRANCH  23  25
ENDBRANCH  22  23
ENDBRANCH   5  22
BRANCH   6  50
HETATM   50  O   UNL     1      85.108  93.589 113.609  1.00  0.00    -0.304 OA
BRANCH  50  51
HETATM   51  C   UNL     1      86.183  92.773 113.417  1.00  0.00     0.294 C 
HETATM   52  O   UNL     1      86.775  92.485 112.397  1.00  0.00    -0.259 OA
BRANCH  51  53
HETATM   53  C   UNL     1      86.511  92.264 114.747  1.00  0.00     0.045 A 
HETATM   54  C   UNL     1      86.591  93.217 115.764  1.00  0.00     0.057 A 
HETATM   55  C   UNL     1      86.928  92.816 117.037  1.00  0.00     0.102 A 
HETATM   56  C   UNL     1      87.142  91.474 117.306  1.00  0.00     0.132 A 
HETATM   57  C   UNL     1      87.018  90.521 116.297  1.00  0.00     0.102 A 
HETATM   58  C   UNL     1      86.717  90.903 114.995  1.00  0.00     0.057 A 
BRANCH  55  59
HETATM   59  O   UNL     1      87.006  93.754 118.018  1.00  0.00    -0.358 OA
HETATM   60  H   UNL     1      87.960  93.835 118.211  1.00  0.00     0.217 HD
ENDBRANCH  55  59
BRANCH  56  61
HETATM   61  O   UNL     1      87.416  91.093 118.590  1.00  0.00    -0.356 OA
HETATM   62  H   UNL     1      88.269  91.529 118.790  1.00  0.00     0.218 HD
ENDBRANCH  56  61
BRANCH  57  63
HETATM   63  O   UNL     1      87.150  89.208 116.654  1.00  0.00    -0.358 OA
HETATM   64  H   UNL     1      86.777  88.672 115.930  1.00  0.00     0.217 HD
ENDBRANCH  57  63
ENDBRANCH  51  53
ENDBRANCH  50  51
ENDBRANCH   6  50
ENDBRANCH   2   4
BRANCH   2  65
HETATM   65  C   UNL     1      81.747  91.455 113.398  1.00  0.00     0.216 C 
BRANCH  65  66
HETATM   66  O   UNL     1      82.085  90.343 112.572  1.00  0.00    -0.315 OA
BRANCH  66  67
HETATM   67  C   UNL     1      82.719  89.374 113.241  1.00  0.00     0.293 C 
HETATM   68  O   UNL     1      82.321  88.810 114.241  1.00  0.00    -0.259 OA
BRANCH  67  69
HETATM   69  C   UNL     1      84.024  89.182 112.589  1.00  0.00     0.045 C 
HETATM   70  C   UNL     1      84.468  89.985 111.522  1.00  0.00     0.057 C 
HETATM   71  C   UNL     1      85.745  89.805 111.019  1.00  0.00     0.102 C 
HETATM   72  C   UNL     1      86.628  88.962 111.672  1.00  0.00     0.133 C 
HETATM   73  C   UNL     1      86.198  88.276 112.811  1.00  0.00     0.116 C 
HETATM   74  C   UNL     1      84.861  88.249 113.178  1.00  0.00     0.058 C 
BRANCH  71  75
HETATM   75  O   UNL     1      86.170  90.538 109.948  1.00  0.00    -0.358 OA
HETATM   76  H   UNL     1      86.560  91.343 110.345  1.00  0.00     0.217 HD
ENDBRANCH  71  75
BRANCH  72  77
HETATM   77  O   UNL     1      87.918  88.933 111.226  1.00  0.00    -0.356 OA
HETATM   78  H   UNL     1      88.211  89.858 111.104  1.00  0.00     0.218 HD
ENDBRANCH  72  77
BRANCH  73  79
HETATM   79  O   UNL     1      87.103  87.826 113.769  1.00  0.00    -0.272 OA
BRANCH  79  80
HETATM   80  C   UNL     1      87.049  86.442 113.691  1.00  0.00     0.298 C 
HETATM   81  O   UNL     1      87.213  85.830 112.646  1.00  0.00    -0.259 OA
BRANCH  80  82
HETATM   82  C   UNL     1      86.760  85.752 114.983  1.00  0.00     0.045 A 
HETATM   83  C   UNL     1      85.907  86.377 115.905  1.00  0.00     0.057 A 
HETATM   84  C   UNL     1      85.661  85.771 117.133  1.00  0.00     0.102 A 
HETATM   85  C   UNL     1      86.271  84.568 117.455  1.00  0.00     0.132 A 
HETATM   86  C   UNL     1      87.123  83.954 116.540  1.00  0.00     0.102 A 
HETATM   87  C   UNL     1      87.360  84.524 115.288  1.00  0.00     0.057 A 
BRANCH  84  88
HETATM   88  O   UNL     1      84.828  86.411 117.993  1.00  0.00    -0.358 OA
HETATM   89  H   UNL     1      85.346  86.805 118.727  1.00  0.00     0.217 HD
ENDBRANCH  84  88
BRANCH  85  90
HETATM   90  O   UNL     1      86.047  83.994 118.676  1.00  0.00    -0.356 OA
HETATM   91  H   UNL     1      85.164  84.305 118.960  1.00  0.00     0.218 HD
ENDBRANCH  85  90
BRANCH  86  92
HETATM   92  O   UNL     1      87.732  82.794 116.932  1.00  0.00    -0.358 OA
HETATM   93  H   UNL     1      88.329  82.515 116.215  1.00  0.00     0.217 HD
ENDBRANCH  86  92
ENDBRANCH  80  82
ENDBRANCH  79  80
ENDBRANCH  73  79
ENDBRANCH  67  69
ENDBRANCH  66  67
ENDBRANCH  65  66
ENDBRANCH   2  65
BRANCH   3  94
HETATM   94  O   UNL     1      80.744  93.464 110.186  1.00  0.00    -0.285 OA
BRANCH  94  95
HETATM   95  C   UNL     1      79.902  94.462 109.803  1.00  0.00     0.295 C 
HETATM   96  O   UNL     1      80.135  95.658 109.757  1.00  0.00    -0.259 OA
BRANCH  95  97
HETATM   97  C   UNL     1      78.620  93.867 109.450  1.00  0.00     0.045 A 
HETATM   98  C   UNL     1      78.585  92.812 108.535  1.00  0.00     0.057 A 
HETATM   99  C   UNL     1      77.377  92.188 108.297  1.00  0.00     0.102 A 
HETATM  100  C   UNL     1      76.219  92.651 108.912  1.00  0.00     0.132 A 
HETATM  101  C   UNL     1      76.258  93.741 109.778  1.00  0.00     0.102 A 
HETATM  102  C   UNL     1      77.464  94.359 110.062  1.00  0.00     0.057 A 
BRANCH  99 103
HETATM  103  O   UNL     1      77.341  91.097 107.480  1.00  0.00    -0.358 OA
HETATM  104  H   UNL     1      76.491  91.190 107.002  1.00  0.00     0.217 HD
ENDBRANCH  99 103
BRANCH 100 105
HETATM  105  O   UNL     1      75.037  92.012 108.656  1.00  0.00    -0.356 OA
HETATM  106  H   UNL     1      74.958  92.048 107.680  1.00  0.00     0.218 HD
ENDBRANCH 100 105
BRANCH 101 107
HETATM  107  O   UNL     1      75.089  94.160 110.345  1.00  0.00    -0.358 OA
HETATM  108  H   UNL     1      74.441  94.290 109.629  1.00  0.00     0.217 HD
ENDBRANCH 101 107
ENDBRANCH  95  97
ENDBRANCH  94  95
ENDBRANCH   3  94
TORSDOF 43
ENDMDL
MODEL 3
REMARK VINA RESULT:   -12.228      2.018     10.420
REMARK INTER + INTRA:         -35.747
REMARK INTER:                 -34.153
REMARK INTRA:                  -1.593
REMARK UNBOUND:                -2.431
REMARK WARNING: 32 MAX_TORS EXCEEDED!!!
REMARK  43 active torsions:
REMARK  status: ('A' for Active; 'I' for Inactive)
REMARK    1  A    between atoms: O_2  and  C_27 
REMARK    2  A    between atoms: O_2  and  C_33 
REMARK    3  A    between atoms: O_3  and  C_28 
REMARK    4  A    between atoms: O_3  and  C_34 
REMARK    5  A    between atoms: O_4  and  C_29 
REMARK    6  A    between atoms: O_4  and  C_35 
REMARK    7  A    between atoms: O_5  and  C_31 
REMARK    8  A    between atoms: O_5  and  C_36 
REMARK    9  A    between atoms: O_6  and  C_32 
REMARK   10  A    between atoms: O_6  and  C_39 
REMARK   11  A    between atoms: O_12  and  C_51 
REMARK   12  A    between atoms: O_13  and  C_52 
REMARK   13  A    between atoms: O_13  and  C_99 
REMARK   14  A    between atoms: O_14  and  C_53 
REMARK   15  A    between atoms: O_15  and  C_54 
REMARK   16  A    between atoms: O_16  and  C_55 
REMARK   17  A    between atoms: O_17  and  C_56 
REMARK   18  A    between atoms: O_18  and  C_59 
REMARK   19  A    between atoms: O_19  and  C_60 
REMARK   20  A    between atoms: O_20  and  C_61 
REMARK   21  A    between atoms: O_21  and  C_62 
REMARK   22  A    between atoms: O_22  and  C_63 
REMARK   23  A    between atoms: O_23  and  C_64 
REMARK   24  A    between atoms: O_24  and  C_65 
REMARK   25  A    between atoms: O_24  and  C_85 
REMARK   26  A    between atoms: O_25  and  C_66 
REMARK   27  A    between atoms: O_26  and  C_67 
REMARK   28  A    between atoms: C_28  and  C_30 
REMARK   29  A    between atoms: C_29  and  C_31 
REMARK   30  A    between atoms: C_30  and  C_32 
REMARK   31  A    between atoms: C_33  and  C_37 
REMARK   32  A    between atoms: C_34  and  C_38 
REMARK   33  A    between atoms: C_35  and  C_40 
REMARK   34  A    between atoms: C_36  and  C_41 
REMARK   35  A    between atoms: C_39  and  C_42 
REMARK   36  A    between atoms: O_82  and  C_89 
REMARK   37  A    between atoms: O_83  and  C_90 
REMARK   38  A    between atoms: O_84  and  C_91 
REMARK   39  A    between atoms: C_85  and  C_86 
REMARK   40  A    between atoms: O_96  and  C_103 
REMARK   41  A    between atoms: O_97  and  C_104 
REMARK   42  A    between atoms: O_98  and  C_105 
REMARK   43  A    between atoms: C_99  and  C_100 
ROOT
HETATM    1  O   UNL     1      82.891  90.228 110.920  1.00  0.00    -0.348 OA
HETATM    2  C   UNL     1      83.119  90.965 112.045  1.00  0.00     0.201 A 
HETATM    3  C   UNL     1      83.923  89.834 111.705  1.00  0.00     0.282 A 
ENDROOT
BRANCH   2   4
HETATM    4  C   UNL     1      82.978  90.641 112.791  1.00  0.00     0.199 A 
HETATM    5  C   UNL     1      82.386  91.789 113.759  1.00  0.00     0.198 A 
HETATM    6  C   UNL     1      81.618  91.075 112.723  1.00  0.00     0.215 A 
BRANCH   4   7
HETATM    7  O   UNL     1      84.496  91.167 113.449  1.00  0.00    -0.306 OA
BRANCH   7   8
HETATM    8  C   UNL     1      85.676  90.830 113.946  1.00  0.00     0.294 C 
HETATM    9  O   UNL     1      86.691  91.489 113.749  1.00  0.00    -0.259 OA
BRANCH   8  10
HETATM   10  C   UNL     1      85.749  89.706 114.862  1.00  0.00     0.045 A 
HETATM   11  C   UNL     1      85.933  89.998 116.220  1.00  0.00     0.057 A 
HETATM   12  C   UNL     1      85.546  89.062 117.161  1.00  0.00     0.102 A 
HETATM   13  C   UNL     1      85.023  87.843 116.743  1.00  0.00     0.132 A 
HETATM   14  C   UNL     1      84.968  87.520 115.391  1.00  0.00     0.102 A 
HETATM   15  C   UNL     1      85.306  88.457 114.431  1.00  0.00     0.057 A 
BRANCH  12  16
HETATM   16  O   UNL     1      85.614  89.320 118.500  1.00  0.00    -0.358 OA
HETATM   17  H   UNL     1      85.613  88.460 118.961  1.00  0.00     0.217 HD
ENDBRANCH  12  16
BRANCH  13  18
HETATM   18  O   UNL     1      84.495  86.966 117.650  1.00  0.00    -0.356 OA
HETATM   19  H   UNL     1      85.238  86.357 117.843  1.00  0.00     0.218 HD
ENDBRANCH  13  18
BRANCH  14  20
HETATM   20  O   UNL     1      84.522  86.287 115.011  1.00  0.00    -0.358 OA
HETATM   21  H   UNL     1      84.268  86.410 114.075  1.00  0.00     0.217 HD
ENDBRANCH  14  20
ENDBRANCH   8  10
ENDBRANCH   7   8
ENDBRANCH   4   7
BRANCH   5  22
HETATM   22  O   UNL     1      82.114  91.332 115.108  1.00  0.00    -0.306 OA
BRANCH  22  23
HETATM   23  C   UNL     1      81.593  92.245 115.953  1.00  0.00     0.294 C 
HETATM   24  O   UNL     1      81.269  93.418 115.813  1.00  0.00    -0.259 OA
BRANCH  23  25
HETATM   25  C   UNL     1      81.446  91.655 117.220  1.00  0.00     0.045 C 
HETATM   26  C   UNL     1      81.832  92.553 118.182  1.00  0.00     0.058 C 
HETATM   27  C   UNL     1      82.696  92.041 119.096  1.00  0.00     0.116 C 
HETATM   28  C   UNL     1      82.740  90.653 119.326  1.00  0.00     0.133 C 
HETATM   29  C   UNL     1      82.142  89.778 118.421  1.00  0.00     0.102 C 
HETATM   30  C   UNL     1      81.618  90.281 117.269  1.00  0.00     0.057 C 
BRANCH  27  31
HETATM   31  O   UNL     1      83.666  92.889 119.653  1.00  0.00    -0.272 OA
BRANCH  31  32
HETATM   32  C   UNL     1      84.233  93.931 118.889  1.00  0.00     0.298 C 
HETATM   33  O   UNL     1      84.193  95.125 118.993  1.00  0.00    -0.259 OA
BRANCH  32  34
HETATM   34  C   UNL     1      85.197  93.154 118.110  1.00  0.00     0.045 C 
HETATM   35  C   UNL     1      86.370  92.739 118.740  1.00  0.00     0.057 C 
HETATM   36  C   UNL     1      87.525  92.797 117.982  1.00  0.00     0.102 C 
HETATM   37  C   UNL     1      87.508  93.390 116.720  1.00  0.00     0.132 C 
HETATM   38  C   UNL     1      86.311  93.748 116.122  1.00  0.00     0.102 C 
HETATM   39  C   UNL     1      85.123  93.472 116.746  1.00  0.00     0.057 C 
BRANCH  36  40
HETATM   40  O   UNL     1      88.727  92.396 118.483  1.00  0.00    -0.358 OA
HETATM   41  H   UNL     1      88.889  92.955 119.267  1.00  0.00     0.217 HD
ENDBRANCH  36  40
BRANCH  37  42
HETATM   42  O   UNL     1      88.675  93.702 116.086  1.00  0.00    -0.356 OA
HETATM   43  H   UNL     1      89.232  92.905 116.202  1.00  0.00     0.218 HD
ENDBRANCH  37  42
BRANCH  38  44
HETATM   44  O   UNL     1      86.284  94.562 115.030  1.00  0.00    -0.358 OA
HETATM   45  H   UNL     1      86.486  93.979 114.272  1.00  0.00     0.217 HD
ENDBRANCH  38  44
ENDBRANCH  32  34
ENDBRANCH  31  32
ENDBRANCH  27  31
BRANCH  28  46
HETATM   46  O   UNL     1      83.367  90.112 120.408  1.00  0.00    -0.356 OA
HETATM   47  H   UNL     1      83.710  89.244 120.129  1.00  0.00     0.218 HD
ENDBRANCH  28  46
BRANCH  29  48
HETATM   48  O   UNL     1      82.113  88.432 118.583  1.00  0.00    -0.358 OA
HETATM   49  H   UNL     1      82.914  88.223 119.092  1.00  0.00     0.217 HD
ENDBRANCH  29  48
ENDBRANCH  23  25
ENDBRANCH  22  23
ENDBRANCH   5  22
BRANCH   6  50
HETATM   50  O   UNL     1      80.020  91.373 113.027  1.00  0.00    -0.304 OA
BRANCH  50  51
HETATM   51  C   UNL     1      79.137  90.634 113.756  1.00  0.00     0.294 C 
HETATM   52  O   UNL     1      79.255  89.526 114.238  1.00  0.00    -0.259 OA
BRANCH  51  53
HETATM   53  C   UNL     1      77.938  91.465 113.850  1.00  0.00     0.045 A 
HETATM   54  C   UNL     1      78.106  92.713 114.450  1.00  0.00     0.057 A 
HETATM   55  C   UNL     1      77.014  93.538 114.604  1.00  0.00     0.102 A 
HETATM   56  C   UNL     1      75.776  93.143 114.126  1.00  0.00     0.132 A 
HETATM   57  C   UNL     1      75.622  91.914 113.487  1.00  0.00     0.102 A 
HETATM   58  C   UNL     1      76.700  91.046 113.353  1.00  0.00     0.057 A 
BRANCH  55  59
HETATM   59  O   UNL     1      77.189  94.750 115.194  1.00  0.00    -0.358 OA
HETATM   60  H   UNL     1      78.156  94.891 115.194  1.00  0.00     0.217 HD
ENDBRANCH  55  59
BRANCH  56  61
HETATM   61  O   UNL     1      74.719  94.004 114.235  1.00  0.00    -0.356 OA
HETATM   62  H   UNL     1      73.980  93.434 114.529  1.00  0.00     0.218 HD
ENDBRANCH  56  61
BRANCH  57  63
HETATM   63  O   UNL     1      74.395  91.631 112.958  1.00  0.00    -0.358 OA
HETATM   64  H   UNL     1      74.101  92.421 112.467  1.00  0.00     0.217 HD
ENDBRANCH  57  63
ENDBRANCH  51  53
ENDBRANCH  50  51
ENDBRANCH   6  50
ENDBRANCH   2   4
BRANCH   2  65
HETATM   65  C   UNL     1      83.504  92.546 112.315  1.00  0.00     0.216 C 
BRANCH  65  66
HETATM   66  O   UNL     1      83.436  93.174 111.037  1.00  0.00    -0.315 OA
BRANCH  66  67
HETATM   67  C   UNL     1      83.445  94.509 111.114  1.00  0.00     0.293 C 
HETATM   68  O   UNL     1      84.350  95.200 111.541  1.00  0.00    -0.259 OA
BRANCH  67  69
HETATM   69  C   UNL     1      82.124  94.978 110.668  1.00  0.00     0.045 C 
HETATM   70  C   UNL     1      81.878  96.310 110.286  1.00  0.00     0.057 C 
HETATM   71  C   UNL     1      80.633  96.658 109.790  1.00  0.00     0.102 C 
HETATM   72  C   UNL     1      79.702  95.670 109.517  1.00  0.00     0.133 C 
HETATM   73  C   UNL     1      80.025  94.337 109.784  1.00  0.00     0.116 C 
HETATM   74  C   UNL     1      81.158  93.998 110.509  1.00  0.00     0.058 C 
BRANCH  71  75
HETATM   75  O   UNL     1      80.361  97.957 109.468  1.00  0.00    -0.358 OA
HETATM   76  H   UNL     1      80.917  98.479 110.083  1.00  0.00     0.217 HD
ENDBRANCH  71  75
BRANCH  72  77
HETATM   77  O   UNL     1      78.548  96.047 108.890  1.00  0.00    -0.356 OA
HETATM   78  H   UNL     1      78.100  95.236 108.580  1.00  0.00     0.218 HD
ENDBRANCH  72  77
BRANCH  73  79
HETATM   79  O   UNL     1      79.392  93.292 109.116  1.00  0.00    -0.272 OA
BRANCH  79  80
HETATM   80  C   UNL     1      78.256  93.023 109.865  1.00  0.00     0.298 C 
HETATM   81  O   UNL     1      78.163  93.303 111.051  1.00  0.00    -0.259 OA
BRANCH  80  82
HETATM   82  C   UNL     1      77.155  92.351 109.114  1.00  0.00     0.045 A 
HETATM   83  C   UNL     1      77.230  92.292 107.715  1.00  0.00     0.057 A 
HETATM   84  C   UNL     1      76.193  91.709 106.995  1.00  0.00     0.102 A 
HETATM   85  C   UNL     1      75.079  91.207 107.652  1.00  0.00     0.132 A 
HETATM   86  C   UNL     1      75.005  91.273 109.041  1.00  0.00     0.102 A 
HETATM   87  C   UNL     1      76.047  91.822 109.789  1.00  0.00     0.057 A 
BRANCH  84  88
HETATM   88  O   UNL     1      76.309  91.674 105.641  1.00  0.00    -0.358 OA
HETATM   89  H   UNL     1      75.634  91.070 105.266  1.00  0.00     0.217 HD
ENDBRANCH  84  88
BRANCH  85  90
HETATM   90  O   UNL     1      74.051  90.663 106.934  1.00  0.00    -0.356 OA
HETATM   91  H   UNL     1      73.229  91.003 107.342  1.00  0.00     0.218 HD
ENDBRANCH  85  90
BRANCH  86  92
HETATM   92  O   UNL     1      73.862  90.806 109.629  1.00  0.00    -0.358 OA
HETATM   93  H   UNL     1      73.951  89.840 109.725  1.00  0.00     0.217 HD
ENDBRANCH  86  92
ENDBRANCH  80  82
ENDBRANCH  79  80
ENDBRANCH  73  79
ENDBRANCH  67  69
ENDBRANCH  66  67
ENDBRANCH  65  66
ENDBRANCH   2  65
BRANCH   3  94
HETATM   94  O   UNL     1      84.770  89.273 110.571  1.00  0.00    -0.285 OA
BRANCH  94  95
HETATM   95  C   UNL     1      86.102  89.551 110.577  1.00  0.00     0.295 C 
HETATM   96  O   UNL     1      86.635  90.644 110.480  1.00  0.00    -0.259 OA
BRANCH  95  97
HETATM   97  C   UNL     1      86.830  88.298 110.715  1.00  0.00     0.045 A 
HETATM   98  C   UNL     1      86.117  87.101 110.818  1.00  0.00     0.057 A 
HETATM   99  C   UNL     1      86.822  85.915 110.836  1.00  0.00     0.102 A 
HETATM  100  C   UNL     1      88.212  85.929 110.816  1.00  0.00     0.132 A 
HETATM  101  C   UNL     1      88.913  87.132 110.772  1.00  0.00     0.102 A 
HETATM  102  C   UNL     1      88.227  88.333 110.715  1.00  0.00     0.057 A 
BRANCH  99 103
HETATM  103  O   UNL     1      86.139  84.734 110.840  1.00  0.00    -0.358 OA
HETATM  104  H   UNL     1      85.289  84.954 110.406  1.00  0.00     0.217 HD
ENDBRANCH  99 103
BRANCH 100 105
HETATM  105  O   UNL     1      88.883  84.737 110.835  1.00  0.00    -0.356 OA
HETATM  106  H   UNL     1      89.801  84.989 111.071  1.00  0.00     0.218 HD
ENDBRANCH 100 105
BRANCH 101 107
HETATM  107  O   UNL     1      90.278  87.087 110.767  1.00  0.00    -0.358 OA
HETATM  108  H   UNL     1      90.560  86.704 109.916  1.00  0.00     0.217 HD
ENDBRANCH 101 107
ENDBRANCH  95  97
ENDBRANCH  94  95
ENDBRANCH   3  94
TORSDOF 43
ENDMDL
MODEL 4
REMARK VINA RESULT:   -12.139      2.156      8.135
REMARK INTER + INTRA:         -35.506
REMARK INTER:                 -34.912
REMARK INTRA:                  -0.594
REMARK UNBOUND:                -2.431
REMARK WARNING: 32 MAX_TORS EXCEEDED!!!
REMARK  43 active torsions:
REMARK  status: ('A' for Active; 'I' for Inactive)
REMARK    1  A    between atoms: O_2  and  C_27 
REMARK    2  A    between atoms: O_2  and  C_33 
REMARK    3  A    between atoms: O_3  and  C_28 
REMARK    4  A    between atoms: O_3  and  C_34 
REMARK    5  A    between atoms: O_4  and  C_29 
REMARK    6  A    between atoms: O_4  and  C_35 
REMARK    7  A    between atoms: O_5  and  C_31 
REMARK    8  A    between atoms: O_5  and  C_36 
REMARK    9  A    between atoms: O_6  and  C_32 
REMARK   10  A    between atoms: O_6  and  C_39 
REMARK   11  A    between atoms: O_12  and  C_51 
REMARK   12  A    between atoms: O_13  and  C_52 
REMARK   13  A    between atoms: O_13  and  C_99 
REMARK   14  A    between atoms: O_14  and  C_53 
REMARK   15  A    between atoms: O_15  and  C_54 
REMARK   16  A    between atoms: O_16  and  C_55 
REMARK   17  A    between atoms: O_17  and  C_56 
REMARK   18  A    between atoms: O_18  and  C_59 
REMARK   19  A    between atoms: O_19  and  C_60 
REMARK   20  A    between atoms: O_20  and  C_61 
REMARK   21  A    between atoms: O_21  and  C_62 
REMARK   22  A    between atoms: O_22  and  C_63 
REMARK   23  A    between atoms: O_23  and  C_64 
REMARK   24  A    between atoms: O_24  and  C_65 
REMARK   25  A    between atoms: O_24  and  C_85 
REMARK   26  A    between atoms: O_25  and  C_66 
REMARK   27  A    between atoms: O_26  and  C_67 
REMARK   28  A    between atoms: C_28  and  C_30 
REMARK   29  A    between atoms: C_29  and  C_31 
REMARK   30  A    between atoms: C_30  and  C_32 
REMARK   31  A    between atoms: C_33  and  C_37 
REMARK   32  A    between atoms: C_34  and  C_38 
REMARK   33  A    between atoms: C_35  and  C_40 
REMARK   34  A    between atoms: C_36  and  C_41 
REMARK   35  A    between atoms: C_39  and  C_42 
REMARK   36  A    between atoms: O_82  and  C_89 
REMARK   37  A    between atoms: O_83  and  C_90 
REMARK   38  A    between atoms: O_84  and  C_91 
REMARK   39  A    between atoms: C_85  and  C_86 
REMARK   40  A    between atoms: O_96  and  C_103 
REMARK   41  A    between atoms: O_97  and  C_104 
REMARK   42  A    between atoms: O_98  and  C_105 
REMARK   43  A    between atoms: C_99  and  C_100 
ROOT
HETATM    1  O   UNL     1      84.521  92.084 110.945  1.00  0.00    -0.348 OA
HETATM    2  C   UNL     1      83.852  91.751 112.086  1.00  0.00     0.201 A 
HETATM    3  C   UNL     1      84.294  90.764 111.152  1.00  0.00     0.282 A 
ENDROOT
BRANCH   2   4
HETATM    4  C   UNL     1      83.086  91.446 112.046  1.00  0.00     0.199 A 
HETATM    5  C   UNL     1      82.170  92.182 113.153  1.00  0.00     0.198 A 
HETATM    6  C   UNL     1      82.571  92.766 111.861  1.00  0.00     0.215 A 
BRANCH   4   7
HETATM    7  O   UNL     1      83.335  90.299 113.325  1.00  0.00    -0.306 OA
BRANCH   7   8
HETATM    8  C   UNL     1      83.093  89.088 113.803  1.00  0.00     0.294 C 
HETATM    9  O   UNL     1      82.204  88.368 113.366  1.00  0.00    -0.259 OA
BRANCH   8  10
HETATM   10  C   UNL     1      83.996  88.543 114.801  1.00  0.00     0.045 A 
HETATM   11  C   UNL     1      83.905  89.062 116.099  1.00  0.00     0.057 A 
HETATM   12  C   UNL     1      84.365  88.298 117.156  1.00  0.00     0.102 A 
HETATM   13  C   UNL     1      84.940  87.057 116.908  1.00  0.00     0.132 A 
HETATM   14  C   UNL     1      85.139  86.614 115.604  1.00  0.00     0.102 A 
HETATM   15  C   UNL     1      84.646  87.340 114.534  1.00  0.00     0.057 A 
BRANCH  12  16
HETATM   16  O   UNL     1      84.224  88.707 118.451  1.00  0.00    -0.358 OA
HETATM   17  H   UNL     1      83.555  88.129 118.866  1.00  0.00     0.217 HD
ENDBRANCH  12  16
BRANCH  13  18
HETATM   18  O   UNL     1      85.262  86.221 117.942  1.00  0.00    -0.356 OA
HETATM   19  H   UNL     1      84.678  85.447 117.804  1.00  0.00     0.218 HD
ENDBRANCH  13  18
BRANCH  14  20
HETATM   20  O   UNL     1      85.774  85.427 115.386  1.00  0.00    -0.358 OA
HETATM   21  H   UNL     1      86.599  85.684 114.929  1.00  0.00     0.217 HD
ENDBRANCH  14  20
ENDBRANCH   8  10
ENDBRANCH   7   8
ENDBRANCH   4   7
BRANCH   5  22
HETATM   22  O   UNL     1      80.798  91.712 113.182  1.00  0.00    -0.306 OA
BRANCH  22  23
HETATM   23  C   UNL     1      79.941  92.420 113.944  1.00  0.00     0.294 C 
HETATM   24  O   UNL     1      80.050  93.476 114.556  1.00  0.00    -0.259 OA
BRANCH  23  25
HETATM   25  C   UNL     1      78.718  91.729 114.009  1.00  0.00     0.045 C 
HETATM   26  C   UNL     1      78.113  91.772 112.780  1.00  0.00     0.058 C 
HETATM   27  C   UNL     1      76.809  92.151 112.823  1.00  0.00     0.116 C 
HETATM   28  C   UNL     1      76.064  91.983 114.004  1.00  0.00     0.133 C 
HETATM   29  C   UNL     1      76.717  91.726 115.208  1.00  0.00     0.102 C 
HETATM   30  C   UNL     1      78.077  91.751 115.237  1.00  0.00     0.057 C 
BRANCH  27  31
HETATM   31  O   UNL     1      76.288  92.885 111.746  1.00  0.00    -0.272 OA
BRANCH  31  32
HETATM   32  C   UNL     1      75.674  92.228 110.658  1.00  0.00     0.298 C 
HETATM   33  O   UNL     1      75.908  91.192 110.101  1.00  0.00    -0.259 OA
BRANCH  32  34
HETATM   34  C   UNL     1      74.428  92.991 110.595  1.00  0.00     0.045 C 
HETATM   35  C   UNL     1      74.441  94.312 111.044  1.00  0.00     0.057 C 
HETATM   36  C   UNL     1      73.329  94.727 111.753  1.00  0.00     0.102 C 
HETATM   37  C   UNL     1      72.344  93.810 112.117  1.00  0.00     0.132 C 
HETATM   38  C   UNL     1      72.355  92.521 111.611  1.00  0.00     0.102 C 
HETATM   39  C   UNL     1      73.310  92.149 110.701  1.00  0.00     0.057 C 
BRANCH  36  40
HETATM   40  O   UNL     1      73.219  96.002 112.222  1.00  0.00    -0.358 OA
HETATM   41  H   UNL     1      74.045  96.453 111.963  1.00  0.00     0.217 HD
ENDBRANCH  36  40
BRANCH  37  42
HETATM   42  O   UNL     1      71.396  94.141 113.040  1.00  0.00    -0.356 OA
HETATM   43  H   UNL     1      71.723  94.978 113.431  1.00  0.00     0.218 HD
ENDBRANCH  37  42
BRANCH  38  44
HETATM   44  O   UNL     1      71.577  91.543 112.153  1.00  0.00    -0.358 OA
HETATM   45  H   UNL     1      71.628  90.797 111.522  1.00  0.00     0.217 HD
ENDBRANCH  38  44
ENDBRANCH  32  34
ENDBRANCH  31  32
ENDBRANCH  27  31
BRANCH  28  46
HETATM   46  O   UNL     1      74.705  92.077 114.029  1.00  0.00    -0.356 OA
HETATM   47  H   UNL     1      74.366  91.405 113.410  1.00  0.00     0.218 HD
ENDBRANCH  28  46
BRANCH  29  48
HETATM   48  O   UNL     1      76.072  91.522 116.384  1.00  0.00    -0.358 OA
HETATM   49  H   UNL     1      75.400  90.847 116.189  1.00  0.00     0.217 HD
ENDBRANCH  29  48
ENDBRANCH  23  25
ENDBRANCH  22  23
ENDBRANCH   5  22
BRANCH   6  50
HETATM   50  O   UNL     1      81.598  94.080 111.612  1.00  0.00    -0.304 OA
BRANCH  50  51
HETATM   51  C   UNL     1      81.669  95.022 110.629  1.00  0.00     0.294 C 
HETATM   52  O   UNL     1      82.463  95.927 110.468  1.00  0.00    -0.259 OA
BRANCH  51  53
HETATM   53  C   UNL     1      80.537  94.736 109.752  1.00  0.00     0.045 A 
HETATM   54  C   UNL     1      80.029  95.821 109.035  1.00  0.00     0.057 A 
HETATM   55  C   UNL     1      78.940  95.635 108.213  1.00  0.00     0.102 A 
HETATM   56  C   UNL     1      78.388  94.373 108.071  1.00  0.00     0.132 A 
HETATM   57  C   UNL     1      78.926  93.283 108.754  1.00  0.00     0.102 A 
HETATM   58  C   UNL     1      80.000  93.451 109.621  1.00  0.00     0.057 A 
BRANCH  55  59
HETATM   59  O   UNL     1      78.453  96.700 107.523  1.00  0.00    -0.358 OA
HETATM   60  H   UNL     1      78.605  96.479 106.583  1.00  0.00     0.217 HD
ENDBRANCH  55  59
BRANCH  56  61
HETATM   61  O   UNL     1      77.347  94.200 107.203  1.00  0.00    -0.356 OA
HETATM   62  H   UNL     1      76.630  94.748 107.582  1.00  0.00     0.218 HD
ENDBRANCH  56  61
BRANCH  57  63
HETATM   63  O   UNL     1      78.390  92.053 108.495  1.00  0.00    -0.358 OA
HETATM   64  H   UNL     1      78.563  91.491 109.274  1.00  0.00     0.217 HD
ENDBRANCH  57  63
ENDBRANCH  51  53
ENDBRANCH  50  51
ENDBRANCH   6  50
ENDBRANCH   2   4
BRANCH   2  65
HETATM   65  C   UNL     1      84.161  91.960 113.693  1.00  0.00     0.216 C 
BRANCH  65  66
HETATM   66  O   UNL     1      84.792  93.235 113.793  1.00  0.00    -0.315 OA
BRANCH  66  67
HETATM   67  C   UNL     1      86.091  93.149 114.095  1.00  0.00     0.293 C 
HETATM   68  O   UNL     1      87.014  93.587 113.436  1.00  0.00    -0.259 OA
BRANCH  67  69
HETATM   69  C   UNL     1      86.198  92.351 115.326  1.00  0.00     0.045 C 
HETATM   70  C   UNL     1      86.870  91.115 115.376  1.00  0.00     0.057 C 
HETATM   71  C   UNL     1      87.009  90.464 116.590  1.00  0.00     0.102 C 
HETATM   72  C   UNL     1      86.640  91.105 117.760  1.00  0.00     0.133 C 
HETATM   73  C   UNL     1      86.096  92.390 117.689  1.00  0.00     0.116 C 
HETATM   74  C   UNL     1      85.718  92.951 116.478  1.00  0.00     0.058 C 
BRANCH  71  75
HETATM   75  O   UNL     1      87.608  89.238 116.645  1.00  0.00    -0.358 OA
HETATM   76  H   UNL     1      86.907  88.613 116.366  1.00  0.00     0.217 HD
ENDBRANCH  71  75
BRANCH  72  77
HETATM   77  O   UNL     1      86.934  90.483 118.939  1.00  0.00    -0.356 OA
HETATM   78  H   UNL     1      87.327  91.150 119.536  1.00  0.00     0.218 HD
ENDBRANCH  72  77
BRANCH  73  79
HETATM   79  O   UNL     1      86.159  93.263 118.773  1.00  0.00    -0.272 OA
BRANCH  79  80
HETATM   80  C   UNL     1      84.881  93.256 119.314  1.00  0.00     0.298 C 
HETATM   81  O   UNL     1      84.469  92.353 120.025  1.00  0.00    -0.259 OA
BRANCH  80  82
HETATM   82  C   UNL     1      84.040  94.433 118.948  1.00  0.00     0.045 A 
HETATM   83  C   UNL     1      82.693  94.223 118.617  1.00  0.00     0.057 A 
HETATM   84  C   UNL     1      81.904  95.301 118.231  1.00  0.00     0.102 A 
HETATM   85  C   UNL     1      82.448  96.574 118.151  1.00  0.00     0.132 A 
HETATM   86  C   UNL     1      83.787  96.778 118.474  1.00  0.00     0.102 A 
HETATM   87  C   UNL     1      84.592  95.720 118.897  1.00  0.00     0.057 A 
BRANCH  84  88
HETATM   88  O   UNL     1      80.605  95.050 117.920  1.00  0.00    -0.358 OA
HETATM   89  H   UNL     1      80.559  94.393 117.193  1.00  0.00     0.217 HD
ENDBRANCH  84  88
BRANCH  85  90
HETATM   90  O   UNL     1      81.672  97.623 117.741  1.00  0.00    -0.356 OA
HETATM   91  H   UNL     1      81.051  97.801 118.476  1.00  0.00     0.218 HD
ENDBRANCH  85  90
BRANCH  86  92
HETATM   92  O   UNL     1      84.279  98.046 118.330  1.00  0.00    -0.358 OA
HETATM   93  H   UNL     1      83.862  98.606 119.011  1.00  0.00     0.217 HD
ENDBRANCH  86  92
ENDBRANCH  80  82
ENDBRANCH  79  80
ENDBRANCH  73  79
ENDBRANCH  67  69
ENDBRANCH  66  67
ENDBRANCH  65  66
ENDBRANCH   2  65
BRANCH   3  94
HETATM   94  O   UNL     1      85.546  90.279 110.435  1.00  0.00    -0.285 OA
BRANCH  94  95
HETATM   95  C   UNL     1      86.689  90.163 111.164  1.00  0.00     0.295 C 
HETATM   96  O   UNL     1      87.420  91.059 111.552  1.00  0.00    -0.259 OA
BRANCH  95  97
HETATM   97  C   UNL     1      86.928  88.749 111.416  1.00  0.00     0.045 A 
HETATM   98  C   UNL     1      87.601  88.366 112.579  1.00  0.00     0.057 A 
HETATM   99  C   UNL     1      87.720  87.019 112.856  1.00  0.00     0.102 A 
HETATM  100  C   UNL     1      87.233  86.076 111.959  1.00  0.00     0.132 A 
HETATM  101  C   UNL     1      86.615  86.470 110.774  1.00  0.00     0.102 A 
HETATM  102  C   UNL     1      86.450  87.816 110.492  1.00  0.00     0.057 A 
BRANCH  99 103
HETATM  103  O   UNL     1      88.290  86.630 114.033  1.00  0.00    -0.358 OA
HETATM  104  H   UNL     1      88.796  85.826 113.792  1.00  0.00     0.217 HD
ENDBRANCH  99 103
BRANCH 100 105
HETATM  105  O   UNL     1      87.366  84.749 112.261  1.00  0.00    -0.356 OA
HETATM  106  H   UNL     1      88.251  84.516 111.911  1.00  0.00     0.218 HD
ENDBRANCH 100 105
BRANCH 101 107
HETATM  107  O   UNL     1      86.166  85.501 109.924  1.00  0.00    -0.358 OA
HETATM  108  H   UNL     1      86.909  85.244 109.347  1.00  0.00     0.217 HD
ENDBRANCH 101 107
ENDBRANCH  95  97
ENDBRANCH  94  95
ENDBRANCH   3  94
TORSDOF 43
ENDMDL
MODEL 5
REMARK VINA RESULT:   -12.107      1.765      2.960
REMARK INTER + INTRA:         -35.416
REMARK INTER:                 -35.300
REMARK INTRA:                  -0.116
REMARK UNBOUND:                -2.431
REMARK WARNING: 32 MAX_TORS EXCEEDED!!!
REMARK  43 active torsions:
REMARK  status: ('A' for Active; 'I' for Inactive)
REMARK    1  A    between atoms: O_2  and  C_27 
REMARK    2  A    between atoms: O_2  and  C_33 
REMARK    3  A    between atoms: O_3  and  C_28 
REMARK    4  A    between atoms: O_3  and  C_34 
REMARK    5  A    between atoms: O_4  and  C_29 
REMARK    6  A    between atoms: O_4  and  C_35 
REMARK    7  A    between atoms: O_5  and  C_31 
REMARK    8  A    between atoms: O_5  and  C_36 
REMARK    9  A    between atoms: O_6  and  C_32 
REMARK   10  A    between atoms: O_6  and  C_39 
REMARK   11  A    between atoms: O_12  and  C_51 
REMARK   12  A    between atoms: O_13  and  C_52 
REMARK   13  A    between atoms: O_13  and  C_99 
REMARK   14  A    between atoms: O_14  and  C_53 
REMARK   15  A    between atoms: O_15  and  C_54 
REMARK   16  A    between atoms: O_16  and  C_55 
REMARK   17  A    between atoms: O_17  and  C_56 
REMARK   18  A    between atoms: O_18  and  C_59 
REMARK   19  A    between atoms: O_19  and  C_60 
REMARK   20  A    between atoms: O_20  and  C_61 
REMARK   21  A    between atoms: O_21  and  C_62 
REMARK   22  A    between atoms: O_22  and  C_63 
REMARK   23  A    between atoms: O_23  and  C_64 
REMARK   24  A    between atoms: O_24  and  C_65 
REMARK   25  A    between atoms: O_24  and  C_85 
REMARK   26  A    between atoms: O_25  and  C_66 
REMARK   27  A    between atoms: O_26  and  C_67 
REMARK   28  A    between atoms: C_28  and  C_30 
REMARK   29  A    between atoms: C_29  and  C_31 
REMARK   30  A    between atoms: C_30  and  C_32 
REMARK   31  A    between atoms: C_33  and  C_37 
REMARK   32  A    between atoms: C_34  and  C_38 
REMARK   33  A    between atoms: C_35  and  C_40 
REMARK   34  A    between atoms: C_36  and  C_41 
REMARK   35  A    between atoms: C_39  and  C_42 
REMARK   36  A    between atoms: O_82  and  C_89 
REMARK   37  A    between atoms: O_83  and  C_90 
REMARK   38  A    between atoms: O_84  and  C_91 
REMARK   39  A    between atoms: C_85  and  C_86 
REMARK   40  A    between atoms: O_96  and  C_103 
REMARK   41  A    between atoms: O_97  and  C_104 
REMARK   42  A    between atoms: O_98  and  C_105 
REMARK   43  A    between atoms: C_99  and  C_100 
ROOT
HETATM    1  O   UNL     1      85.000  91.047 114.090  1.00  0.00    -0.348 OA
HETATM    2  C   UNL     1      84.007  91.369 113.212  1.00  0.00     0.201 A 
HETATM    3  C   UNL     1      84.945  92.339 113.684  1.00  0.00     0.282 A 
ENDROOT
BRANCH   2   4
HETATM    4  C   UNL     1      83.384  91.857 113.448  1.00  0.00     0.199 A 
HETATM    5  C   UNL     1      81.991  91.193 112.976  1.00  0.00     0.198 A 
HETATM    6  C   UNL     1      82.785  90.758 114.138  1.00  0.00     0.215 A 
BRANCH   4   7
HETATM    7  O   UNL     1      83.270  92.670 111.919  1.00  0.00    -0.306 OA
BRANCH   7   8
HETATM    8  C   UNL     1      83.322  93.813 111.254  1.00  0.00     0.294 C 
HETATM    9  O   UNL     1      84.374  94.301 110.855  1.00  0.00    -0.259 OA
BRANCH   8  10
HETATM   10  C   UNL     1      82.076  94.454 110.872  1.00  0.00     0.045 A 
HETATM   11  C   UNL     1      82.125  95.821 110.573  1.00  0.00     0.057 A 
HETATM   12  C   UNL     1      81.133  96.364 109.776  1.00  0.00     0.102 A 
HETATM   13  C   UNL     1      80.096  95.557 109.324  1.00  0.00     0.132 A 
HETATM   14  C   UNL     1      79.995  94.232 109.737  1.00  0.00     0.102 A 
HETATM   15  C   UNL     1      80.998  93.655 110.496  1.00  0.00     0.057 A 
BRANCH  12  16
HETATM   16  O   UNL     1      81.171  97.668 109.373  1.00  0.00    -0.358 OA
HETATM   17  H   UNL     1      81.296  97.669 108.405  1.00  0.00     0.217 HD
ENDBRANCH  12  16
BRANCH  13  18
HETATM   18  O   UNL     1      79.191  96.031 108.414  1.00  0.00    -0.356 OA
HETATM   19  H   UNL     1      79.752  96.408 107.705  1.00  0.00     0.218 HD
ENDBRANCH  13  18
BRANCH  14  20
HETATM   20  O   UNL     1      78.925  93.482 109.341  1.00  0.00    -0.358 OA
HETATM   21  H   UNL     1      78.247  93.667 110.020  1.00  0.00     0.217 HD
ENDBRANCH  14  20
ENDBRANCH   8  10
ENDBRANCH   7   8
ENDBRANCH   4   7
BRANCH   5  22
HETATM   22  O   UNL     1      80.822  91.977 113.327  1.00  0.00    -0.306 OA
BRANCH  22  23
HETATM   23  C   UNL     1      79.639  91.521 112.869  1.00  0.00     0.294 C 
HETATM   24  O   UNL     1      79.319  90.903 111.861  1.00  0.00    -0.259 OA
BRANCH  23  25
HETATM   25  C   UNL     1      78.631  91.888 113.779  1.00  0.00     0.045 C 
HETATM   26  C   UNL     1      77.453  91.292 113.409  1.00  0.00     0.058 C 
HETATM   27  C   UNL     1      76.397  92.145 113.363  1.00  0.00     0.116 C 
HETATM   28  C   UNL     1      76.416  93.332 114.118  1.00  0.00     0.133 C 
HETATM   29  C   UNL     1      77.614  93.793 114.662  1.00  0.00     0.102 C 
HETATM   30  C   UNL     1      78.768  93.139 114.358  1.00  0.00     0.057 C 
BRANCH  27  31
HETATM   31  O   UNL     1      75.393  91.919 112.410  1.00  0.00    -0.272 OA
BRANCH  31  32
HETATM   32  C   UNL     1      75.606  92.236 111.051  1.00  0.00     0.298 C 
HETATM   33  O   UNL     1      76.394  91.837 110.241  1.00  0.00    -0.259 OA
BRANCH  32  34
HETATM   34  C   UNL     1      74.359  92.952 110.779  1.00  0.00     0.045 C 
HETATM   35  C   UNL     1      74.291  94.305 111.108  1.00  0.00     0.057 C 
HETATM   36  C   UNL     1      73.095  94.744 111.646  1.00  0.00     0.102 C 
HETATM   37  C   UNL     1      72.093  93.829 111.972  1.00  0.00     0.132 C 
HETATM   38  C   UNL     1      72.192  92.503 111.586  1.00  0.00     0.102 C 
HETATM   39  C   UNL     1      73.255  92.086 110.829  1.00  0.00     0.057 C 
BRANCH  36  40
HETATM   40  O   UNL     1      72.903  96.049 111.985  1.00  0.00    -0.358 OA
HETATM   41  H   UNL     1      73.695  96.313 112.491  1.00  0.00     0.217 HD
ENDBRANCH  36  40
BRANCH  37  42
HETATM   42  O   UNL     1      71.037  94.208 112.748  1.00  0.00    -0.356 OA
HETATM   43  H   UNL     1      70.299  94.317 112.113  1.00  0.00     0.218 HD
ENDBRANCH  37  42
BRANCH  38  44
HETATM   44  O   UNL     1      71.377  91.550 112.119  1.00  0.00    -0.358 OA
HETATM   45  H   UNL     1      71.586  90.732 111.626  1.00  0.00     0.217 HD
ENDBRANCH  38  44
ENDBRANCH  32  34
ENDBRANCH  31  32
ENDBRANCH  27  31
BRANCH  28  46
HETATM   46  O   UNL     1      75.295  94.077 114.335  1.00  0.00    -0.356 OA
HETATM   47  H   UNL     1      75.071  94.500 113.487  1.00  0.00     0.218 HD
ENDBRANCH  28  46
BRANCH  29  48
HETATM   48  O   UNL     1      77.712  94.910 115.426  1.00  0.00    -0.358 OA
HETATM   49  H   UNL     1      78.393  94.703 116.087  1.00  0.00     0.217 HD
ENDBRANCH  29  48
ENDBRANCH  23  25
ENDBRANCH  22  23
ENDBRANCH   5  22
BRANCH   6  50
HETATM   50  O   UNL     1      81.802  89.789 115.049  1.00  0.00    -0.304 OA
BRANCH  50  51
HETATM   51  C   UNL     1      80.976  90.136 116.077  1.00  0.00     0.294 C 
HETATM   52  O   UNL     1      79.763  90.154 116.134  1.00  0.00    -0.259 OA
BRANCH  51  53
HETATM   53  C   UNL     1      81.872  90.517 117.166  1.00  0.00     0.045 A 
HETATM   54  C   UNL     1      82.898  89.617 117.457  1.00  0.00     0.057 A 
HETATM   55  C   UNL     1      83.762  89.893 118.494  1.00  0.00     0.102 A 
HETATM   56  C   UNL     1      83.633  91.074 119.206  1.00  0.00     0.132 A 
HETATM   57  C   UNL     1      82.634  91.991 118.883  1.00  0.00     0.102 A 
HETATM   58  C   UNL     1      81.725  91.719 117.867  1.00  0.00     0.057 A 
BRANCH  55  59
HETATM   59  O   UNL     1      84.755  89.007 118.770  1.00  0.00    -0.358 OA
HETATM   60  H   UNL     1      85.519  89.317 118.245  1.00  0.00     0.217 HD
ENDBRANCH  55  59
BRANCH  56  61
HETATM   61  O   UNL     1      84.539  91.355 120.190  1.00  0.00    -0.356 OA
HETATM   62  H   UNL     1      85.218  91.896 119.739  1.00  0.00     0.218 HD
ENDBRANCH  56  61
BRANCH  57  63
HETATM   63  O   UNL     1      82.624  93.175 119.565  1.00  0.00    -0.358 OA
HETATM   64  H   UNL     1      81.890  93.709 119.209  1.00  0.00     0.217 HD
ENDBRANCH  57  63
ENDBRANCH  51  53
ENDBRANCH  50  51
ENDBRANCH   6  50
ENDBRANCH   2   4
BRANCH   2  65
HETATM   65  C   UNL     1      83.621  90.862 111.691  1.00  0.00     0.216 C 
BRANCH  65  66
HETATM   66  O   UNL     1      84.691  90.007 111.295  1.00  0.00    -0.315 OA
BRANCH  66  67
HETATM   67  C   UNL     1      84.538  88.751 111.728  1.00  0.00     0.293 C 
HETATM   68  O   UNL     1      83.553  88.292 112.274  1.00  0.00    -0.259 OA
BRANCH  67  69
HETATM   69  C   UNL     1      85.814  88.056 111.498  1.00  0.00     0.045 C 
HETATM   70  C   UNL     1      86.584  88.243 110.335  1.00  0.00     0.057 C 
HETATM   71  C   UNL     1      87.819  87.625 110.229  1.00  0.00     0.102 C 
HETATM   72  C   UNL     1      88.356  86.972 111.324  1.00  0.00     0.133 C 
HETATM   73  C   UNL     1      87.622  86.915 112.512  1.00  0.00     0.116 C 
HETATM   74  C   UNL     1      86.292  87.305 112.559  1.00  0.00     0.058 C 
BRANCH  71  75
HETATM   75  O   UNL     1      88.552  87.752 109.084  1.00  0.00    -0.358 OA
HETATM   76  H   UNL     1      89.479  87.808 109.396  1.00  0.00     0.217 HD
ENDBRANCH  71  75
BRANCH  72  77
HETATM   77  O   UNL     1      89.637  86.509 111.216  1.00  0.00    -0.356 OA
HETATM   78  H   UNL     1      89.597  85.621 110.809  1.00  0.00     0.218 HD
ENDBRANCH  72  77
BRANCH  73  79
HETATM   79  O   UNL     1      88.248  86.733 113.742  1.00  0.00    -0.272 OA
BRANCH  79  80
HETATM   80  C   UNL     1      88.041  85.398 114.056  1.00  0.00     0.298 C 
HETATM   81  O   UNL     1      88.325  84.486 113.293  1.00  0.00    -0.259 OA
BRANCH  80  82
HETATM   82  C   UNL     1      87.428  85.156 115.395  1.00  0.00     0.045 A 
HETATM   83  C   UNL     1      87.822  84.025 116.123  1.00  0.00     0.057 A 
HETATM   84  C   UNL     1      87.230  83.759 117.354  1.00  0.00     0.102 A 
HETATM   85  C   UNL     1      86.238  84.593 117.849  1.00  0.00     0.132 A 
HETATM   86  C   UNL     1      85.844  85.711 117.120  1.00  0.00     0.102 A 
HETATM   87  C   UNL     1      86.446  86.020 115.899  1.00  0.00     0.057 A 
BRANCH  84  88
HETATM   88  O   UNL     1      87.645  82.652 118.024  1.00  0.00    -0.358 OA
HETATM   89  H   UNL     1      86.889  82.254 118.507  1.00  0.00     0.217 HD
ENDBRANCH  84  88
BRANCH  85  90
HETATM   90  O   UNL     1      85.641  84.307 119.045  1.00  0.00    -0.356 OA
HETATM   91  H   UNL     1      85.389  85.169 119.433  1.00  0.00     0.218 HD
ENDBRANCH  85  90
BRANCH  86  92
HETATM   92  O   UNL     1      84.830  86.470 117.636  1.00  0.00    -0.358 OA
HETATM   93  H   UNL     1      83.989  86.109 117.300  1.00  0.00     0.217 HD
ENDBRANCH  86  92
ENDBRANCH  80  82
ENDBRANCH  79  80
ENDBRANCH  73  79
ENDBRANCH  67  69
ENDBRANCH  66  67
ENDBRANCH  65  66
ENDBRANCH   2  65
BRANCH   3  94
HETATM   94  O   UNL     1      86.442  92.595 113.788  1.00  0.00    -0.285 OA
BRANCH  94  95
HETATM   95  C   UNL     1      86.875  93.431 114.770  1.00  0.00     0.295 C 
HETATM   96  O   UNL     1      87.085  94.629 114.690  1.00  0.00    -0.259 OA
BRANCH  95  97
HETATM   97  C   UNL     1      87.068  92.649 115.983  1.00  0.00     0.045 A 
HETATM   98  C   UNL     1      87.052  93.293 117.223  1.00  0.00     0.057 A 
HETATM   99  C   UNL     1      87.125  92.523 118.366  1.00  0.00     0.102 A 
HETATM  100  C   UNL     1      87.276  91.144 118.269  1.00  0.00     0.132 A 
HETATM  101  C   UNL     1      87.349  90.519 117.027  1.00  0.00     0.102 A 
HETATM  102  C   UNL     1      87.239  91.267 115.866  1.00  0.00     0.057 A 
BRANCH  99 103
HETATM  103  O   UNL     1      87.015  93.127 119.583  1.00  0.00    -0.358 OA
HETATM  104  H   UNL     1      87.823  93.677 119.646  1.00  0.00     0.217 HD
ENDBRANCH  99 103
BRANCH 100 105
HETATM  105  O   UNL     1      87.346  90.408 119.420  1.00  0.00    -0.356 OA
HETATM  106  H   UNL     1      86.426  90.411 119.757  1.00  0.00     0.218 HD
ENDBRANCH 100 105
BRANCH 101 107
HETATM  107  O   UNL     1      87.509  89.164 116.992  1.00  0.00    -0.358 OA
HETATM  108  H   UNL     1      88.368  88.954 117.404  1.00  0.00     0.217 HD
ENDBRANCH 101 107
ENDBRANCH  95  97
ENDBRANCH  94  95
ENDBRANCH   3  94
TORSDOF 43
ENDMDL
MODEL 6
REMARK VINA RESULT:   -12.060      1.658      7.775
REMARK INTER + INTRA:         -35.289
REMARK INTER:                 -32.163
REMARK INTRA:                  -3.126
REMARK UNBOUND:                -2.431
REMARK WARNING: 32 MAX_TORS EXCEEDED!!!
REMARK  43 active torsions:
REMARK  status: ('A' for Active; 'I' for Inactive)
REMARK    1  A    between atoms: O_2  and  C_27 
REMARK    2  A    between atoms: O_2  and  C_33 
REMARK    3  A    between atoms: O_3  and  C_28 
REMARK    4  A    between atoms: O_3  and  C_34 
REMARK    5  A    between atoms: O_4  and  C_29 
REMARK    6  A    between atoms: O_4  and  C_35 
REMARK    7  A    between atoms: O_5  and  C_31 
REMARK    8  A    between atoms: O_5  and  C_36 
REMARK    9  A    between atoms: O_6  and  C_32 
REMARK   10  A    between atoms: O_6  and  C_39 
REMARK   11  A    between atoms: O_12  and  C_51 
REMARK   12  A    between atoms: O_13  and  C_52 
REMARK   13  A    between atoms: O_13  and  C_99 
REMARK   14  A    between atoms: O_14  and  C_53 
REMARK   15  A    between atoms: O_15  and  C_54 
REMARK   16  A    between atoms: O_16  and  C_55 
REMARK   17  A    between atoms: O_17  and  C_56 
REMARK   18  A    between atoms: O_18  and  C_59 
REMARK   19  A    between atoms: O_19  and  C_60 
REMARK   20  A    between atoms: O_20  and  C_61 
REMARK   21  A    between atoms: O_21  and  C_62 
REMARK   22  A    between atoms: O_22  and  C_63 
REMARK   23  A    between atoms: O_23  and  C_64 
REMARK   24  A    between atoms: O_24  and  C_65 
REMARK   25  A    between atoms: O_24  and  C_85 
REMARK   26  A    between atoms: O_25  and  C_66 
REMARK   27  A    between atoms: O_26  and  C_67 
REMARK   28  A    between atoms: C_28  and  C_30 
REMARK   29  A    between atoms: C_29  and  C_31 
REMARK   30  A    between atoms: C_30  and  C_32 
REMARK   31  A    between atoms: C_33  and  C_37 
REMARK   32  A    between atoms: C_34  and  C_38 
REMARK   33  A    between atoms: C_35  and  C_40 
REMARK   34  A    between atoms: C_36  and  C_41 
REMARK   35  A    between atoms: C_39  and  C_42 
REMARK   36  A    between atoms: O_82  and  C_89 
REMARK   37  A    between atoms: O_83  and  C_90 
REMARK   38  A    between atoms: O_84  and  C_91 
REMARK   39  A    between atoms: C_85  and  C_86 
REMARK   40  A    between atoms: O_96  and  C_103 
REMARK   41  A    between atoms: O_97  and  C_104 
REMARK   42  A    between atoms: O_98  and  C_105 
REMARK   43  A    between atoms: C_99  and  C_100 
ROOT
HETATM    1  O   UNL     1      81.954  91.743 111.288  1.00  0.00    -0.348 OA
HETATM    2  C   UNL     1      81.564  91.333 112.529  1.00  0.00     0.201 A 
HETATM    3  C   UNL     1      80.659  91.964 111.621  1.00  0.00     0.282 A 
ENDROOT
BRANCH   2   4
HETATM    4  C   UNL     1      81.369  91.888 113.108  1.00  0.00     0.199 A 
HETATM    5  C   UNL     1      82.229  91.581 114.439  1.00  0.00     0.198 A 
HETATM    6  C   UNL     1      82.748  92.245 113.231  1.00  0.00     0.215 A 
BRANCH   4   7
HETATM    7  O   UNL     1      80.202  90.862 113.882  1.00  0.00    -0.306 OA
BRANCH   7   8
HETATM    8  C   UNL     1      79.012  90.754 114.452  1.00  0.00     0.294 C 
HETATM    9  O   UNL     1      78.777  89.955 115.351  1.00  0.00    -0.259 OA
BRANCH   8  10
HETATM   10  C   UNL     1      77.977  91.705 114.086  1.00  0.00     0.045 A 
HETATM   11  C   UNL     1      76.848  91.200 113.428  1.00  0.00     0.057 A 
HETATM   12  C   UNL     1      75.670  91.922 113.479  1.00  0.00     0.102 A 
HETATM   13  C   UNL     1      75.640  93.143 114.143  1.00  0.00     0.132 A 
HETATM   14  C   UNL     1      76.802  93.689 114.679  1.00  0.00     0.102 A 
HETATM   15  C   UNL     1      77.981  92.965 114.680  1.00  0.00     0.057 A 
BRANCH  12  16
HETATM   16  O   UNL     1      74.512  91.443 112.937  1.00  0.00    -0.358 OA
HETATM   17  H   UNL     1      74.598  91.505 111.967  1.00  0.00     0.217 HD
ENDBRANCH  12  16
BRANCH  13  18
HETATM   18  O   UNL     1      74.456  93.800 114.337  1.00  0.00    -0.356 OA
HETATM   19  H   UNL     1      74.488  94.531 113.685  1.00  0.00     0.218 HD
ENDBRANCH  13  18
BRANCH  14  20
HETATM   20  O   UNL     1      76.761  94.924 115.258  1.00  0.00    -0.358 OA
HETATM   21  H   UNL     1      76.809  95.539 114.499  1.00  0.00     0.217 HD
ENDBRANCH  14  20
ENDBRANCH   8  10
ENDBRANCH   7   8
ENDBRANCH   4   7
BRANCH   5  22
HETATM   22  O   UNL     1      81.955  92.490 115.535  1.00  0.00    -0.306 OA
BRANCH  22  23
HETATM   23  C   UNL     1      82.913  92.594 116.478  1.00  0.00     0.294 C 
HETATM   24  O   UNL     1      83.707  93.483 116.762  1.00  0.00    -0.259 OA
BRANCH  23  25
HETATM   25  C   UNL     1      82.949  91.399 117.218  1.00  0.00     0.045 C 
HETATM   26  C   UNL     1      81.954  91.425 118.161  1.00  0.00     0.058 C 
HETATM   27  C   UNL     1      82.374  91.094 119.410  1.00  0.00     0.116 C 
HETATM   28  C   UNL     1      83.531  90.312 119.582  1.00  0.00     0.133 C 
HETATM   29  C   UNL     1      84.416  90.135 118.520  1.00  0.00     0.102 C 
HETATM   30  C   UNL     1      84.198  90.817 117.362  1.00  0.00     0.057 C 
BRANCH  27  31
HETATM   31  O   UNL     1      81.754  91.705 120.510  1.00  0.00    -0.272 OA
BRANCH  31  32
HETATM   32  C   UNL     1      82.257  92.912 121.041  1.00  0.00     0.298 C 
HETATM   33  O   UNL     1      83.324  93.214 121.497  1.00  0.00    -0.259 OA
BRANCH  32  34
HETATM   34  C   UNL     1      81.221  93.829 120.563  1.00  0.00     0.045 C 
HETATM   35  C   UNL     1      79.945  93.315 120.328  1.00  0.00     0.057 C 
HETATM   36  C   UNL     1      79.287  93.800 119.213  1.00  0.00     0.102 C 
HETATM   37  C   UNL     1      79.951  94.632 118.312  1.00  0.00     0.132 C 
HETATM   38  C   UNL     1      81.201  95.147 118.612  1.00  0.00     0.102 C 
HETATM   39  C   UNL     1      81.777  94.886 119.827  1.00  0.00     0.057 C 
BRANCH  36  40
HETATM   40  O   UNL     1      78.028  93.389 118.895  1.00  0.00    -0.358 OA
HETATM   41  H   UNL     1      78.041  93.209 117.935  1.00  0.00     0.217 HD
ENDBRANCH  36  40
BRANCH  37  42
HETATM   42  O   UNL     1      79.415  94.889 117.084  1.00  0.00    -0.356 OA
HETATM   43  H   UNL     1      78.726  95.562 117.258  1.00  0.00     0.218 HD
ENDBRANCH  37  42
BRANCH  38  44
HETATM   44  O   UNL     1      81.973  95.729 117.652  1.00  0.00    -0.358 OA
HETATM   45  H   UNL     1      82.834  95.897 118.085  1.00  0.00     0.217 HD
ENDBRANCH  38  44
ENDBRANCH  32  34
ENDBRANCH  31  32
ENDBRANCH  27  31
BRANCH  28  46
HETATM   46  O   UNL     1      83.840  89.718 120.769  1.00  0.00    -0.356 OA
HETATM   47  H   UNL     1      84.005  90.435 121.407  1.00  0.00     0.218 HD
ENDBRANCH  28  46
BRANCH  29  48
HETATM   48  O   UNL     1      85.536  89.373 118.594  1.00  0.00    -0.358 OA
HETATM   49  H   UNL     1      86.068  89.776 119.299  1.00  0.00     0.217 HD
ENDBRANCH  29  48
ENDBRANCH  23  25
ENDBRANCH  22  23
ENDBRANCH   5  22
BRANCH   6  50
HETATM   50  O   UNL     1      84.184  92.947 113.655  1.00  0.00    -0.304 OA
BRANCH  50  51
HETATM   51  C   UNL     1      85.433  92.698 113.168  1.00  0.00     0.294 C 
HETATM   52  O   UNL     1      85.856  92.760 112.031  1.00  0.00    -0.259 OA
BRANCH  51  53
HETATM   53  C   UNL     1      86.220  92.305 114.335  1.00  0.00     0.045 A 
HETATM   54  C   UNL     1      86.667  93.347 115.148  1.00  0.00     0.057 A 
HETATM   55  C   UNL     1      87.443  93.057 116.248  1.00  0.00     0.102 A 
HETATM   56  C   UNL     1      87.735  91.740 116.560  1.00  0.00     0.132 A 
HETATM   57  C   UNL     1      87.250  90.699 115.770  1.00  0.00     0.102 A 
HETATM   58  C   UNL     1      86.497  90.967 114.632  1.00  0.00     0.057 A 
BRANCH  55  59
HETATM   59  O   UNL     1      87.875  94.080 117.031  1.00  0.00    -0.358 OA
HETATM   60  H   UNL     1      88.670  94.423 116.578  1.00  0.00     0.217 HD
ENDBRANCH  55  59
BRANCH  56  61
HETATM   61  O   UNL     1      88.456  91.471 117.691  1.00  0.00    -0.356 OA
HETATM   62  H   UNL     1      88.587  92.350 118.102  1.00  0.00     0.218 HD
ENDBRANCH  56  61
BRANCH  57  63
HETATM   63  O   UNL     1      87.499  89.423 116.189  1.00  0.00    -0.358 OA
HETATM   64  H   UNL     1      87.506  88.853 115.397  1.00  0.00     0.217 HD
ENDBRANCH  57  63
ENDBRANCH  51  53
ENDBRANCH  50  51
ENDBRANCH   6  50
ENDBRANCH   2   4
BRANCH   2  65
HETATM   65  C   UNL     1      81.520  89.868 113.286  1.00  0.00     0.216 C 
BRANCH  65  66
HETATM   66  O   UNL     1      82.205  88.972 112.414  1.00  0.00    -0.315 OA
BRANCH  66  67
HETATM   67  C   UNL     1      83.107  88.217 113.050  1.00  0.00     0.293 C 
HETATM   68  O   UNL     1      82.960  87.674 114.128  1.00  0.00    -0.259 OA
BRANCH  67  69
HETATM   69  C   UNL     1      84.337  88.240 112.244  1.00  0.00     0.045 C 
HETATM   70  C   UNL     1      84.772  89.385 111.550  1.00  0.00     0.057 C 
HETATM   71  C   UNL     1      85.987  89.359 110.886  1.00  0.00     0.102 C 
HETATM   72  C   UNL     1      86.835  88.277 111.048  1.00  0.00     0.133 C 
HETATM   73  C   UNL     1      86.430  87.209 111.853  1.00  0.00     0.116 C 
HETATM   74  C   UNL     1      85.127  87.104 112.316  1.00  0.00     0.058 C 
BRANCH  71  75
HETATM   75  O   UNL     1      86.395  90.442 110.162  1.00  0.00    -0.358 OA
HETATM   76  H   UNL     1      86.124  91.212 110.705  1.00  0.00     0.217 HD
ENDBRANCH  71  75
BRANCH  72  77
HETATM   77  O   UNL     1      88.081  88.365 110.495  1.00  0.00    -0.356 OA
HETATM   78  H   UNL     1      88.029  88.989 109.745  1.00  0.00     0.218 HD
ENDBRANCH  72  77
BRANCH  73  79
HETATM   79  O   UNL     1      87.359  86.359 112.448  1.00  0.00    -0.272 OA
BRANCH  79  80
HETATM   80  C   UNL     1      87.599  86.908 113.699  1.00  0.00     0.298 C 
HETATM   81  O   UNL     1      88.199  87.961 113.855  1.00  0.00    -0.259 OA
BRANCH  80  82
HETATM   82  C   UNL     1      87.080  86.106 114.845  1.00  0.00     0.045 A 
HETATM   83  C   UNL     1      86.165  86.702 115.726  1.00  0.00     0.057 A 
HETATM   84  C   UNL     1      85.704  85.986 116.826  1.00  0.00     0.102 A 
HETATM   85  C   UNL     1      86.162  84.699 117.066  1.00  0.00     0.132 A 
HETATM   86  C   UNL     1      87.076  84.114 116.194  1.00  0.00     0.102 A 
HETATM   87  C   UNL     1      87.529  84.797 115.065  1.00  0.00     0.057 A 
BRANCH  84  88
HETATM   88  O   UNL     1      84.818  86.603 117.650  1.00  0.00    -0.358 OA
HETATM   89  H   UNL     1      83.934  86.633 117.225  1.00  0.00     0.217 HD
ENDBRANCH  84  88
BRANCH  85  90
HETATM   90  O   UNL     1      85.727  84.014 118.166  1.00  0.00    -0.356 OA
HETATM   91  H   UNL     1      86.366  84.216 118.879  1.00  0.00     0.218 HD
ENDBRANCH  85  90
BRANCH  86  92
HETATM   92  O   UNL     1      87.528  82.861 116.508  1.00  0.00    -0.358 OA
HETATM   93  H   UNL     1      88.406  82.957 116.921  1.00  0.00     0.217 HD
ENDBRANCH  86  92
ENDBRANCH  80  82
ENDBRANCH  79  80
ENDBRANCH  73  79
ENDBRANCH  67  69
ENDBRANCH  66  67
ENDBRANCH  65  66
ENDBRANCH   2  65
BRANCH   3  94
HETATM   94  O   UNL     1      80.115  91.840 110.204  1.00  0.00    -0.285 OA
BRANCH  94  95
HETATM   95  C   UNL     1      79.514  92.932 109.659  1.00  0.00     0.295 C 
HETATM   96  O   UNL     1      79.941  94.073 109.614  1.00  0.00    -0.259 OA
BRANCH  95  97
HETATM   97  C   UNL     1      78.224  92.522 109.121  1.00  0.00     0.045 A 
HETATM   98  C   UNL     1      77.910  92.824 107.794  1.00  0.00     0.057 A 
HETATM   99  C   UNL     1      76.732  92.332 107.268  1.00  0.00     0.102 A 
HETATM  100  C   UNL     1      75.858  91.608 108.072  1.00  0.00     0.132 A 
HETATM  101  C   UNL     1      76.156  91.363 109.410  1.00  0.00     0.102 A 
HETATM  102  C   UNL     1      77.349  91.814 109.949  1.00  0.00     0.057 A 
BRANCH  99 103
HETATM  103  O   UNL     1      76.455  92.536 105.949  1.00  0.00    -0.358 OA
HETATM  104  H   UNL     1      76.610  91.660 105.539  1.00  0.00     0.217 HD
ENDBRANCH  99 103
BRANCH 100 105
HETATM  105  O   UNL     1      74.699  91.134 107.523  1.00  0.00    -0.356 OA
HETATM  106  H   UNL     1      74.084  91.081 108.283  1.00  0.00     0.218 HD
ENDBRANCH 100 105
BRANCH 101 107
HETATM  107  O   UNL     1      75.256  90.658 110.156  1.00  0.00    -0.358 OA
HETATM  108  H   UNL     1      74.873  89.967 109.584  1.00  0.00     0.217 HD
ENDBRANCH 101 107
ENDBRANCH  95  97
ENDBRANCH  94  95
ENDBRANCH   3  94
TORSDOF 43
ENDMDL
MODEL 7
REMARK VINA RESULT:   -12.014      1.846      8.821
REMARK INTER + INTRA:         -35.163
REMARK INTER:                 -32.278
REMARK INTRA:                  -2.886
REMARK UNBOUND:                -2.431
REMARK WARNING: 32 MAX_TORS EXCEEDED!!!
REMARK  43 active torsions:
REMARK  status: ('A' for Active; 'I' for Inactive)
REMARK    1  A    between atoms: O_2  and  C_27 
REMARK    2  A    between atoms: O_2  and  C_33 
REMARK    3  A    between atoms: O_3  and  C_28 
REMARK    4  A    between atoms: O_3  and  C_34 
REMARK    5  A    between atoms: O_4  and  C_29 
REMARK    6  A    between atoms: O_4  and  C_35 
REMARK    7  A    between atoms: O_5  and  C_31 
REMARK    8  A    between atoms: O_5  and  C_36 
REMARK    9  A    between atoms: O_6  and  C_32 
REMARK   10  A    between atoms: O_6  and  C_39 
REMARK   11  A    between atoms: O_12  and  C_51 
REMARK   12  A    between atoms: O_13  and  C_52 
REMARK   13  A    between atoms: O_13  and  C_99 
REMARK   14  A    between atoms: O_14  and  C_53 
REMARK   15  A    between atoms: O_15  and  C_54 
REMARK   16  A    between atoms: O_16  and  C_55 
REMARK   17  A    between atoms: O_17  and  C_56 
REMARK   18  A    between atoms: O_18  and  C_59 
REMARK   19  A    between atoms: O_19  and  C_60 
REMARK   20  A    between atoms: O_20  and  C_61 
REMARK   21  A    between atoms: O_21  and  C_62 
REMARK   22  A    between atoms: O_22  and  C_63 
REMARK   23  A    between atoms: O_23  and  C_64 
REMARK   24  A    between atoms: O_24  and  C_65 
REMARK   25  A    between atoms: O_24  and  C_85 
REMARK   26  A    between atoms: O_25  and  C_66 
REMARK   27  A    between atoms: O_26  and  C_67 
REMARK   28  A    between atoms: C_28  and  C_30 
REMARK   29  A    between atoms: C_29  and  C_31 
REMARK   30  A    between atoms: C_30  and  C_32 
REMARK   31  A    between atoms: C_33  and  C_37 
REMARK   32  A    between atoms: C_34  and  C_38 
REMARK   33  A    between atoms: C_35  and  C_40 
REMARK   34  A    between atoms: C_36  and  C_41 
REMARK   35  A    between atoms: C_39  and  C_42 
REMARK   36  A    between atoms: O_82  and  C_89 
REMARK   37  A    between atoms: O_83  and  C_90 
REMARK   38  A    between atoms: O_84  and  C_91 
REMARK   39  A    between atoms: C_85  and  C_86 
REMARK   40  A    between atoms: O_96  and  C_103 
REMARK   41  A    between atoms: O_97  and  C_104 
REMARK   42  A    between atoms: O_98  and  C_105 
REMARK   43  A    between atoms: C_99  and  C_100 
ROOT
HETATM    1  O   UNL     1      81.702  92.307 110.987  1.00  0.00    -0.348 OA
HETATM    2  C   UNL     1      81.203  91.997 112.218  1.00  0.00     0.201 A 
HETATM    3  C   UNL     1      80.411  92.646 111.221  1.00  0.00     0.282 A 
ENDROOT
BRANCH   2   4
HETATM    4  C   UNL     1      81.018  92.596 112.755  1.00  0.00     0.199 A 
HETATM    5  C   UNL     1      81.750  92.286 114.160  1.00  0.00     0.198 A 
HETATM    6  C   UNL     1      82.410  92.839 112.965  1.00  0.00     0.215 A 
BRANCH   4   7
HETATM    7  O   UNL     1      79.711  91.716 113.485  1.00  0.00    -0.306 OA
BRANCH   7   8
HETATM    8  C   UNL     1      78.623  91.751 114.237  1.00  0.00     0.294 C 
HETATM    9  O   UNL     1      78.635  91.484 115.434  1.00  0.00    -0.259 OA
BRANCH   8  10
HETATM   10  C   UNL     1      77.389  92.245 113.652  1.00  0.00     0.045 A 
HETATM   11  C   UNL     1      76.738  91.412 112.734  1.00  0.00     0.057 A 
HETATM   12  C   UNL     1      75.384  91.591 112.515  1.00  0.00     0.102 A 
HETATM   13  C   UNL     1      74.711  92.612 113.176  1.00  0.00     0.132 A 
HETATM   14  C   UNL     1      75.400  93.510 113.985  1.00  0.00     0.102 A 
HETATM   15  C   UNL     1      76.744  93.323 114.255  1.00  0.00     0.057 A 
BRANCH  12  16
HETATM   16  O   UNL     1      74.672  90.757 111.702  1.00  0.00    -0.358 OA
HETATM   17  H   UNL     1      73.729  90.867 111.928  1.00  0.00     0.217 HD
ENDBRANCH  12  16
BRANCH  13  18
HETATM   18  O   UNL     1      73.349  92.714 113.093  1.00  0.00    -0.356 OA
HETATM   19  H   UNL     1      73.033  92.235 113.888  1.00  0.00     0.218 HD
ENDBRANCH  13  18
BRANCH  14  20
HETATM   20  O   UNL     1      74.728  94.549 114.562  1.00  0.00    -0.358 OA
HETATM   21  H   UNL     1      75.437  95.098 114.951  1.00  0.00     0.217 HD
ENDBRANCH  14  20
ENDBRANCH   8  10
ENDBRANCH   7   8
ENDBRANCH   4   7
BRANCH   5  22
HETATM   22  O   UNL     1      81.480  93.271 115.189  1.00  0.00    -0.306 OA
BRANCH  22  23
HETATM   23  C   UNL     1      81.753  92.899 116.456  1.00  0.00     0.294 C 
HETATM   24  O   UNL     1      81.069  92.399 117.341  1.00  0.00    -0.259 OA
BRANCH  23  25
HETATM   25  C   UNL     1      83.098  93.198 116.735  1.00  0.00     0.045 C 
HETATM   26  C   UNL     1      83.669  92.134 117.384  1.00  0.00     0.058 C 
HETATM   27  C   UNL     1      84.353  92.479 118.506  1.00  0.00     0.116 C 
HETATM   28  C   UNL     1      84.852  93.786 118.655  1.00  0.00     0.133 C 
HETATM   29  C   UNL     1      84.395  94.805 117.821  1.00  0.00     0.102 C 
HETATM   30  C   UNL     1      83.388  94.536 116.946  1.00  0.00     0.057 C 
BRANCH  27  31
HETATM   31  O   UNL     1      84.376  91.578 119.581  1.00  0.00    -0.272 OA
BRANCH  31  32
HETATM   32  C   UNL     1      85.268  90.484 119.584  1.00  0.00     0.298 C 
HETATM   33  O   UNL     1      85.654  89.752 118.716  1.00  0.00    -0.259 OA
BRANCH  32  34
HETATM   34  C   UNL     1      85.886  90.688 120.894  1.00  0.00     0.045 C 
HETATM   35  C   UNL     1      85.102  91.219 121.917  1.00  0.00     0.057 C 
HETATM   36  C   UNL     1      85.720  92.135 122.749  1.00  0.00     0.102 C 
HETATM   37  C   UNL     1      87.004  92.595 122.457  1.00  0.00     0.132 C 
HETATM   38  C   UNL     1      87.757  92.005 121.455  1.00  0.00     0.102 C 
HETATM   39  C   UNL     1      87.265  90.922 120.774  1.00  0.00     0.057 C 
BRANCH  36  40
HETATM   40  O   UNL     1      85.061  92.704 123.796  1.00  0.00    -0.358 OA
HETATM   41  H   UNL     1      85.749  93.114 124.353  1.00  0.00     0.217 HD
ENDBRANCH  36  40
BRANCH  37  42
HETATM   42  O   UNL     1      87.510  93.686 123.099  1.00  0.00    -0.356 OA
HETATM   43  H   UNL     1      87.372  93.493 124.049  1.00  0.00     0.218 HD
ENDBRANCH  37  42
BRANCH  38  44
HETATM   44  O   UNL     1      88.884  92.600 120.976  1.00  0.00    -0.358 OA
HETATM   45  H   UNL     1      89.334  91.909 120.451  1.00  0.00     0.217 HD
ENDBRANCH  38  44
ENDBRANCH  32  34
ENDBRANCH  31  32
ENDBRANCH  27  31
BRANCH  28  46
HETATM   46  O   UNL     1      85.772  94.112 119.606  1.00  0.00    -0.356 OA
HETATM   47  H   UNL     1      86.280  93.302 119.795  1.00  0.00     0.218 HD
ENDBRANCH  28  46
BRANCH  29  48
HETATM   48  O   UNL     1      84.847  96.083 117.879  1.00  0.00    -0.358 OA
HETATM   49  H   UNL     1      84.563  96.488 117.042  1.00  0.00     0.217 HD
ENDBRANCH  29  48
ENDBRANCH  23  25
ENDBRANCH  22  23
ENDBRANCH   5  22
BRANCH   6  50
HETATM   50  O   UNL     1      83.870  93.436 113.464  1.00  0.00    -0.304 OA
BRANCH  50  51
HETATM   51  C   UNL     1      85.117  93.144 112.996  1.00  0.00     0.294 C 
HETATM   52  O   UNL     1      85.551  93.162 111.862  1.00  0.00    -0.259 OA
BRANCH  51  53
HETATM   53  C   UNL     1      85.885  92.771 114.181  1.00  0.00     0.045 A 
HETATM   54  C   UNL     1      85.936  91.407 114.472  1.00  0.00     0.057 A 
HETATM   55  C   UNL     1      86.614  90.982 115.592  1.00  0.00     0.102 A 
HETATM   56  C   UNL     1      87.271  91.901 116.393  1.00  0.00     0.132 A 
HETATM   57  C   UNL     1      87.255  93.258 116.075  1.00  0.00     0.102 A 
HETATM   58  C   UNL     1      86.546  93.718 114.971  1.00  0.00     0.057 A 
BRANCH  55  59
HETATM   59  O   UNL     1      86.653  89.651 115.867  1.00  0.00    -0.358 OA
HETATM   60  H   UNL     1      85.730  89.412 116.079  1.00  0.00     0.217 HD
ENDBRANCH  55  59
BRANCH  56  61
HETATM   61  O   UNL     1      87.988  91.450 117.466  1.00  0.00    -0.356 OA
HETATM   62  H   UNL     1      87.308  91.268 118.146  1.00  0.00     0.218 HD
ENDBRANCH  56  61
BRANCH  57  63
HETATM   63  O   UNL     1      88.002  94.095 116.855  1.00  0.00    -0.358 OA
HETATM   64  H   UNL     1      88.540  94.646 116.256  1.00  0.00     0.217 HD
ENDBRANCH  57  63
ENDBRANCH  51  53
ENDBRANCH  50  51
ENDBRANCH   6  50
ENDBRANCH   2   4
BRANCH   2  65
HETATM   65  C   UNL     1      80.993  90.583 113.041  1.00  0.00     0.216 C 
BRANCH  65  66
HETATM   66  O   UNL     1      81.764  89.616 112.332  1.00  0.00    -0.315 OA
BRANCH  66  67
HETATM   67  C   UNL     1      82.586  88.924 113.128  1.00  0.00     0.293 C 
HETATM   68  O   UNL     1      82.307  88.443 114.209  1.00  0.00    -0.259 OA
BRANCH  67  69
HETATM   69  C   UNL     1      83.912  88.930 112.490  1.00  0.00     0.045 C 
HETATM   70  C   UNL     1      84.268  89.846 111.482  1.00  0.00     0.057 C 
HETATM   71  C   UNL     1      85.563  89.851 110.993  1.00  0.00     0.102 C 
HETATM   72  C   UNL     1      86.533  89.079 111.610  1.00  0.00     0.133 C 
HETATM   73  C   UNL     1      86.176  88.277 112.696  1.00  0.00     0.116 C 
HETATM   74  C   UNL     1      84.848  88.068 113.037  1.00  0.00     0.058 C 
BRANCH  71  75
HETATM   75  O   UNL     1      85.908  90.694 109.976  1.00  0.00    -0.358 OA
HETATM   76  H   UNL     1      86.819  90.425 109.738  1.00  0.00     0.217 HD
ENDBRANCH  71  75
BRANCH  72  77
HETATM   77  O   UNL     1      87.823  89.233 111.186  1.00  0.00    -0.356 OA
HETATM   78  H   UNL     1      88.299  88.401 111.380  1.00  0.00     0.218 HD
ENDBRANCH  72  77
BRANCH  73  79
HETATM   79  O   UNL     1      87.118  87.879 113.641  1.00  0.00    -0.272 OA
BRANCH  79  80
HETATM   80  C   UNL     1      87.179  86.498 113.529  1.00  0.00     0.298 C 
HETATM   81  O   UNL     1      87.279  85.925 112.454  1.00  0.00    -0.259 OA
BRANCH  80  82
HETATM   82  C   UNL     1      87.096  85.759 114.823  1.00  0.00     0.045 A 
HETATM   83  C   UNL     1      87.843  84.581 114.976  1.00  0.00     0.057 A 
HETATM   84  C   UNL     1      87.745  83.854 116.158  1.00  0.00     0.102 A 
HETATM   85  C   UNL     1      86.898  84.277 117.172  1.00  0.00     0.132 A 
HETATM   86  C   UNL     1      86.154  85.443 117.014  1.00  0.00     0.102 A 
HETATM   87  C   UNL     1      86.259  86.209 115.852  1.00  0.00     0.057 A 
BRANCH  84  88
HETATM   88  O   UNL     1      88.487  82.721 116.262  1.00  0.00    -0.358 OA
HETATM   89  H   UNL     1      89.057  82.770 117.058  1.00  0.00     0.217 HD
ENDBRANCH  84  88
BRANCH  85  90
HETATM   90  O   UNL     1      86.786  83.541 118.319  1.00  0.00    -0.356 OA
HETATM   91  H   UNL     1      86.670  84.187 119.043  1.00  0.00     0.218 HD
ENDBRANCH  85  90
BRANCH  86  92
HETATM   92  O   UNL     1      85.302  85.784 118.028  1.00  0.00    -0.358 OA
HETATM   93  H   UNL     1      85.083  84.971 118.518  1.00  0.00     0.217 HD
ENDBRANCH  86  92
ENDBRANCH  80  82
ENDBRANCH  79  80
ENDBRANCH  73  79
ENDBRANCH  67  69
ENDBRANCH  66  67
ENDBRANCH  65  66
ENDBRANCH   2  65
BRANCH   3  94
HETATM   94  O   UNL     1      79.948  92.488 109.780  1.00  0.00    -0.285 OA
BRANCH  94  95
HETATM   95  C   UNL     1      79.353  93.557 109.185  1.00  0.00     0.295 C 
HETATM   96  O   UNL     1      79.741  94.713 109.169  1.00  0.00    -0.259 OA
BRANCH  95  97
HETATM   97  C   UNL     1      78.125  93.101 108.548  1.00  0.00     0.045 A 
HETATM   98  C   UNL     1      77.736  93.663 107.330  1.00  0.00     0.057 A 
HETATM   99  C   UNL     1      76.632  93.141 106.687  1.00  0.00     0.102 A 
HETATM  100  C   UNL     1      75.895  92.123 107.282  1.00  0.00     0.132 A 
HETATM  101  C   UNL     1      76.259  91.610 108.525  1.00  0.00     0.102 A 
HETATM  102  C   UNL     1      77.386  92.091 109.171  1.00  0.00     0.057 A 
BRANCH  99 103
HETATM  103  O   UNL     1      76.295  93.614 105.453  1.00  0.00    -0.358 OA
HETATM  104  H   UNL     1      76.952  93.198 104.857  1.00  0.00     0.217 HD
ENDBRANCH  99 103
BRANCH 100 105
HETATM  105  O   UNL     1      74.805  91.627 106.621  1.00  0.00    -0.356 OA
HETATM  106  H   UNL     1      74.206  91.338 107.341  1.00  0.00     0.218 HD
ENDBRANCH 100 105
BRANCH 101 107
HETATM  107  O   UNL     1      75.492  90.619 109.067  1.00  0.00    -0.358 OA
HETATM  108  H   UNL     1      75.791  90.479 109.984  1.00  0.00     0.217 HD
ENDBRANCH 101 107
ENDBRANCH  95  97
ENDBRANCH  94  95
ENDBRANCH   3  94
TORSDOF 43
ENDMDL
MODEL 8
REMARK VINA RESULT:   -11.978      2.206      7.490
REMARK INTER + INTRA:         -35.066
REMARK INTER:                 -32.524
REMARK INTRA:                  -2.541
REMARK UNBOUND:                -2.431
REMARK WARNING: 32 MAX_TORS EXCEEDED!!!
REMARK  43 active torsions:
REMARK  status: ('A' for Active; 'I' for Inactive)
REMARK    1  A    between atoms: O_2  and  C_27 
REMARK    2  A    between atoms: O_2  and  C_33 
REMARK    3  A    between atoms: O_3  and  C_28 
REMARK    4  A    between atoms: O_3  and  C_34 
REMARK    5  A    between atoms: O_4  and  C_29 
REMARK    6  A    between atoms: O_4  and  C_35 
REMARK    7  A    between atoms: O_5  and  C_31 
REMARK    8  A    between atoms: O_5  and  C_36 
REMARK    9  A    between atoms: O_6  and  C_32 
REMARK   10  A    between atoms: O_6  and  C_39 
REMARK   11  A    between atoms: O_12  and  C_51 
REMARK   12  A    between atoms: O_13  and  C_52 
REMARK   13  A    between atoms: O_13  and  C_99 
REMARK   14  A    between atoms: O_14  and  C_53 
REMARK   15  A    between atoms: O_15  and  C_54 
REMARK   16  A    between atoms: O_16  and  C_55 
REMARK   17  A    between atoms: O_17  and  C_56 
REMARK   18  A    between atoms: O_18  and  C_59 
REMARK   19  A    between atoms: O_19  and  C_60 
REMARK   20  A    between atoms: O_20  and  C_61 
REMARK   21  A    between atoms: O_21  and  C_62 
REMARK   22  A    between atoms: O_22  and  C_63 
REMARK   23  A    between atoms: O_23  and  C_64 
REMARK   24  A    between atoms: O_24  and  C_65 
REMARK   25  A    between atoms: O_24  and  C_85 
REMARK   26  A    between atoms: O_25  and  C_66 
REMARK   27  A    between atoms: O_26  and  C_67 
REMARK   28  A    between atoms: C_28  and  C_30 
REMARK   29  A    between atoms: C_29  and  C_31 
REMARK   30  A    between atoms: C_30  and  C_32 
REMARK   31  A    between atoms: C_33  and  C_37 
REMARK   32  A    between atoms: C_34  and  C_38 
REMARK   33  A    between atoms: C_35  and  C_40 
REMARK   34  A    between atoms: C_36  and  C_41 
REMARK   35  A    between atoms: C_39  and  C_42 
REMARK   36  A    between atoms: O_82  and  C_89 
REMARK   37  A    between atoms: O_83  and  C_90 
REMARK   38  A    between atoms: O_84  and  C_91 
REMARK   39  A    between atoms: C_85  and  C_86 
REMARK   40  A    between atoms: O_96  and  C_103 
REMARK   41  A    between atoms: O_97  and  C_104 
REMARK   42  A    between atoms: O_98  and  C_105 
REMARK   43  A    between atoms: C_99  and  C_100 
ROOT
HETATM    1  O   UNL     1      83.363  93.963 111.486  1.00  0.00    -0.348 OA
HETATM    2  C   UNL     1      82.895  92.814 112.053  1.00  0.00     0.201 A 
HETATM    3  C   UNL     1      82.026  93.753 111.416  1.00  0.00     0.282 A 
ENDROOT
BRANCH   2   4
HETATM    4  C   UNL     1      82.429  92.846 112.734  1.00  0.00     0.199 A 
HETATM    5  C   UNL     1      82.905  91.683 113.748  1.00  0.00     0.198 A 
HETATM    6  C   UNL     1      83.608  92.961 113.534  1.00  0.00     0.215 A 
BRANCH   4   7
HETATM    7  O   UNL     1      81.323  91.624 112.190  1.00  0.00    -0.306 OA
BRANCH   7   8
HETATM    8  C   UNL     1      80.081  91.308 111.858  1.00  0.00     0.294 C 
HETATM    9  O   UNL     1      79.803  90.699 110.832  1.00  0.00    -0.259 OA
BRANCH   8  10
HETATM   10  C   UNL     1      79.017  91.584 112.808  1.00  0.00     0.045 A 
HETATM   11  C   UNL     1      79.129  92.751 113.574  1.00  0.00     0.057 A 
HETATM   12  C   UNL     1      77.984  93.303 114.118  1.00  0.00     0.102 A 
HETATM   13  C   UNL     1      76.760  92.673 113.928  1.00  0.00     0.132 A 
HETATM   14  C   UNL     1      76.686  91.446 113.274  1.00  0.00     0.102 A 
HETATM   15  C   UNL     1      77.810  90.898 112.682  1.00  0.00     0.057 A 
BRANCH  12  16
HETATM   16  O   UNL     1      78.012  94.487 114.798  1.00  0.00    -0.358 OA
HETATM   17  H   UNL     1      78.373  95.161 114.191  1.00  0.00     0.217 HD
ENDBRANCH  12  16
BRANCH  13  18
HETATM   18  O   UNL     1      75.598  93.276 114.325  1.00  0.00    -0.356 OA
HETATM   19  H   UNL     1      75.574  94.102 113.797  1.00  0.00     0.218 HD
ENDBRANCH  13  18
BRANCH  14  20
HETATM   20  O   UNL     1      75.483  90.811 113.168  1.00  0.00    -0.358 OA
HETATM   21  H   UNL     1      74.839  91.477 113.482  1.00  0.00     0.217 HD
ENDBRANCH  14  20
ENDBRANCH   8  10
ENDBRANCH   7   8
ENDBRANCH   4   7
BRANCH   5  22
HETATM   22  O   UNL     1      82.141  91.635 114.980  1.00  0.00    -0.306 OA
BRANCH  22  23
HETATM   23  C   UNL     1      81.706  90.417 115.363  1.00  0.00     0.294 C 
HETATM   24  O   UNL     1      81.127  89.516 114.770  1.00  0.00    -0.259 OA
BRANCH  23  25
HETATM   25  C   UNL     1      82.000  90.243 116.727  1.00  0.00     0.045 C 
HETATM   26  C   UNL     1      81.497  91.305 117.434  1.00  0.00     0.058 C 
HETATM   27  C   UNL     1      82.389  91.864 118.292  1.00  0.00     0.116 C 
HETATM   28  C   UNL     1      83.476  91.110 118.771  1.00  0.00     0.133 C 
HETATM   29  C   UNL     1      83.823  89.914 118.145  1.00  0.00     0.102 C 
HETATM   30  C   UNL     1      83.167  89.552 117.009  1.00  0.00     0.057 C 
BRANCH  27  31
HETATM   31  O   UNL     1      82.318  93.245 118.529  1.00  0.00    -0.272 OA
BRANCH  31  32
HETATM   32  C   UNL     1      82.661  94.168 117.518  1.00  0.00     0.298 C 
HETATM   33  O   UNL     1      82.263  94.327 116.398  1.00  0.00    -0.259 OA
BRANCH  32  34
HETATM   34  C   UNL     1      83.410  95.132 118.324  1.00  0.00     0.045 C 
HETATM   35  C   UNL     1      83.403  94.978 119.710  1.00  0.00     0.057 C 
HETATM   36  C   UNL     1      83.320  96.140 120.454  1.00  0.00     0.102 C 
HETATM   37  C   UNL     1      83.098  97.364 119.824  1.00  0.00     0.132 C 
HETATM   38  C   UNL     1      83.155  97.470 118.445  1.00  0.00     0.102 C 
HETATM   39  C   UNL     1      83.485  96.379 117.685  1.00  0.00     0.057 C 
BRANCH  36  40
HETATM   40  O   UNL     1      83.329  96.115 121.817  1.00  0.00    -0.358 OA
HETATM   41  H   UNL     1      82.658  95.456 122.076  1.00  0.00     0.217 HD
ENDBRANCH  36  40
BRANCH  37  42
HETATM   42  O   UNL     1      82.740  98.462 120.551  1.00  0.00    -0.356 OA
HETATM   43  H   UNL     1      83.423  98.520 121.250  1.00  0.00     0.218 HD
ENDBRANCH  37  42
BRANCH  38  44
HETATM   44  O   UNL     1      82.680  98.574 117.802  1.00  0.00    -0.358 OA
HETATM   45  H   UNL     1      83.409  98.863 117.219  1.00  0.00     0.217 HD
ENDBRANCH  38  44
ENDBRANCH  32  34
ENDBRANCH  31  32
ENDBRANCH  27  31
BRANCH  28  46
HETATM   46  O   UNL     1      84.232  91.511 119.832  1.00  0.00    -0.356 OA
HETATM   47  H   UNL     1      83.634  91.982 120.440  1.00  0.00     0.218 HD
ENDBRANCH  28  46
BRANCH  29  48
HETATM   48  O   UNL     1      84.836  89.114 118.562  1.00  0.00    -0.358 OA
HETATM   49  H   UNL     1      85.647  89.552 118.252  1.00  0.00     0.217 HD
ENDBRANCH  29  48
ENDBRANCH  23  25
ENDBRANCH  22  23
ENDBRANCH   5  22
BRANCH   6  50
HETATM   50  O   UNL     1      84.681  93.126 114.782  1.00  0.00    -0.304 OA
BRANCH  50  51
HETATM   51  C   UNL     1      86.042  93.185 114.736  1.00  0.00     0.294 C 
HETATM   52  O   UNL     1      86.774  93.744 113.945  1.00  0.00    -0.259 OA
BRANCH  51  53
HETATM   53  C   UNL     1      86.492  92.394 115.879  1.00  0.00     0.045 A 
HETATM   54  C   UNL     1      86.520  93.057 117.107  1.00  0.00     0.057 A 
HETATM   55  C   UNL     1      86.965  92.385 118.224  1.00  0.00     0.102 A 
HETATM   56  C   UNL     1      87.337  91.055 118.129  1.00  0.00     0.132 A 
HETATM   57  C   UNL     1      87.265  90.384 116.909  1.00  0.00     0.102 A 
HETATM   58  C   UNL     1      86.856  91.049 115.759  1.00  0.00     0.057 A 
BRANCH  55  59
HETATM   59  O   UNL     1      86.991  93.042 119.414  1.00  0.00    -0.358 OA
HETATM   60  H   UNL     1      86.164  92.780 119.863  1.00  0.00     0.217 HD
ENDBRANCH  55  59
BRANCH  56  61
HETATM   61  O   UNL     1      87.717  90.391 119.262  1.00  0.00    -0.356 OA
HETATM   62  H   UNL     1      88.090  91.093 119.833  1.00  0.00     0.218 HD
ENDBRANCH  56  61
BRANCH  57  63
HETATM   63  O   UNL     1      87.558  89.050 116.908  1.00  0.00    -0.358 OA
HETATM   64  H   UNL     1      87.048  88.641 116.183  1.00  0.00     0.217 HD
ENDBRANCH  57  63
ENDBRANCH  51  53
ENDBRANCH  50  51
ENDBRANCH   6  50
ENDBRANCH   2   4
BRANCH   2  65
HETATM   65  C   UNL     1      83.172  91.212 111.779  1.00  0.00     0.216 C 
BRANCH  65  66
HETATM   66  O   UNL     1      84.177  91.170 110.769  1.00  0.00    -0.315 OA
BRANCH  66  67
HETATM   67  C   UNL     1      85.405  90.988 111.265  1.00  0.00     0.293 C 
HETATM   68  O   UNL     1      86.249  91.848 111.433  1.00  0.00    -0.259 OA
BRANCH  67  69
HETATM   69  C   UNL     1      85.573  89.544 111.488  1.00  0.00     0.045 C 
HETATM   70  C   UNL     1      85.902  88.647 110.454  1.00  0.00     0.057 C 
HETATM   71  C   UNL     1      86.134  87.316 110.756  1.00  0.00     0.102 C 
HETATM   72  C   UNL     1      86.206  86.913 112.078  1.00  0.00     0.133 C 
HETATM   73  C   UNL     1      86.006  87.857 113.089  1.00  0.00     0.116 C 
HETATM   74  C   UNL     1      85.527  89.128 112.809  1.00  0.00     0.058 C 
BRANCH  71  75
HETATM   75  O   UNL     1      86.398  86.423 109.757  1.00  0.00    -0.358 OA
HETATM   76  H   UNL     1      86.993  85.765 110.172  1.00  0.00     0.217 HD
ENDBRANCH  71  75
BRANCH  72  77
HETATM   77  O   UNL     1      86.584  85.624 112.325  1.00  0.00    -0.356 OA
HETATM   78  H   UNL     1      85.802  85.055 112.187  1.00  0.00     0.218 HD
ENDBRANCH  72  77
BRANCH  73  79
HETATM   79  O   UNL     1      86.525  87.669 114.367  1.00  0.00    -0.272 OA
BRANCH  79  80
HETATM   80  C   UNL     1      85.569  86.920 115.037  1.00  0.00     0.298 C 
HETATM   81  O   UNL     1      84.369  87.107 114.903  1.00  0.00    -0.259 OA
BRANCH  80  82
HETATM   82  C   UNL     1      86.117  85.875 115.950  1.00  0.00     0.045 A 
HETATM   83  C   UNL     1      87.163  85.061 115.493  1.00  0.00     0.057 A 
HETATM   84  C   UNL     1      87.658  84.051 116.312  1.00  0.00     0.102 A 
HETATM   85  C   UNL     1      87.106  83.834 117.567  1.00  0.00     0.132 A 
HETATM   86  C   UNL     1      86.063  84.640 118.015  1.00  0.00     0.102 A 
HETATM   87  C   UNL     1      85.571  85.681 117.226  1.00  0.00     0.057 A 
BRANCH  84  88
HETATM   88  O   UNL     1      88.672  83.288 115.827  1.00  0.00    -0.358 OA
HETATM   89  H   UNL     1      88.856  82.549 116.445  1.00  0.00     0.217 HD
ENDBRANCH  84  88
BRANCH  85  90
HETATM   90  O   UNL     1      87.578  82.821 118.353  1.00  0.00    -0.356 OA
HETATM   91  H   UNL     1      87.476  82.002 117.827  1.00  0.00     0.218 HD
ENDBRANCH  85  90
BRANCH  86  92
HETATM   92  O   UNL     1      85.529  84.348 119.239  1.00  0.00    -0.358 OA
HETATM   93  H   UNL     1      84.868  83.643 119.115  1.00  0.00     0.217 HD
ENDBRANCH  86  92
ENDBRANCH  80  82
ENDBRANCH  79  80
ENDBRANCH  73  79
ENDBRANCH  67  69
ENDBRANCH  66  67
ENDBRANCH  65  66
ENDBRANCH   2  65
BRANCH   3  94
HETATM   94  O   UNL     1      81.827  94.485 110.096  1.00  0.00    -0.285 OA
BRANCH  94  95
HETATM   95  C   UNL     1      80.836  95.416 110.031  1.00  0.00     0.295 C 
HETATM   96  O   UNL     1      80.951  96.629 110.050  1.00  0.00    -0.259 OA
BRANCH  95  97
HETATM   97  C   UNL     1      79.561  94.718 109.941  1.00  0.00     0.045 A 
HETATM   98  C   UNL     1      79.434  93.635 109.069  1.00  0.00     0.057 A 
HETATM   99  C   UNL     1      78.255  92.918 109.077  1.00  0.00     0.102 A 
HETATM  100  C   UNL     1      77.202  93.315 109.895  1.00  0.00     0.132 A 
HETATM  101  C   UNL     1      77.321  94.432 110.718  1.00  0.00     0.102 A 
HETATM  102  C   UNL     1      78.508  95.145 110.755  1.00  0.00     0.057 A 
BRANCH  99 103
HETATM  103  O   UNL     1      78.148  91.801 108.302  1.00  0.00    -0.358 OA
HETATM  104  H   UNL     1      78.782  91.962 107.572  1.00  0.00     0.217 HD
ENDBRANCH  99 103
BRANCH 100 105
HETATM  105  O   UNL     1      76.046  92.585 109.882  1.00  0.00    -0.356 OA
HETATM  106  H   UNL     1      75.565  92.922 109.098  1.00  0.00     0.218 HD
ENDBRANCH 100 105
BRANCH 101 107
HETATM  107  O   UNL     1      76.252  94.784 111.491  1.00  0.00    -0.358 OA
HETATM  108  H   UNL     1      76.595  95.137 112.332  1.00  0.00     0.217 HD
ENDBRANCH 101 107
ENDBRANCH  95  97
ENDBRANCH  94  95
ENDBRANCH   3  94
TORSDOF 43
ENDMDL
MODEL 9
REMARK VINA RESULT:   -11.976      2.255      6.323
REMARK INTER + INTRA:         -35.061
REMARK INTER:                 -33.098
REMARK INTRA:                  -1.963
REMARK UNBOUND:                -2.431
REMARK WARNING: 32 MAX_TORS EXCEEDED!!!
REMARK  43 active torsions:
REMARK  status: ('A' for Active; 'I' for Inactive)
REMARK    1  A    between atoms: O_2  and  C_27 
REMARK    2  A    between atoms: O_2  and  C_33 
REMARK    3  A    between atoms: O_3  and  C_28 
REMARK    4  A    between atoms: O_3  and  C_34 
REMARK    5  A    between atoms: O_4  and  C_29 
REMARK    6  A    between atoms: O_4  and  C_35 
REMARK    7  A    between atoms: O_5  and  C_31 
REMARK    8  A    between atoms: O_5  and  C_36 
REMARK    9  A    between atoms: O_6  and  C_32 
REMARK   10  A    between atoms: O_6  and  C_39 
REMARK   11  A    between atoms: O_12  and  C_51 
REMARK   12  A    between atoms: O_13  and  C_52 
REMARK   13  A    between atoms: O_13  and  C_99 
REMARK   14  A    between atoms: O_14  and  C_53 
REMARK   15  A    between atoms: O_15  and  C_54 
REMARK   16  A    between atoms: O_16  and  C_55 
REMARK   17  A    between atoms: O_17  and  C_56 
REMARK   18  A    between atoms: O_18  and  C_59 
REMARK   19  A    between atoms: O_19  and  C_60 
REMARK   20  A    between atoms: O_20  and  C_61 
REMARK   21  A    between atoms: O_21  and  C_62 
REMARK   22  A    between atoms: O_22  and  C_63 
REMARK   23  A    between atoms: O_23  and  C_64 
REMARK   24  A    between atoms: O_24  and  C_65 
REMARK   25  A    between atoms: O_24  and  C_85 
REMARK   26  A    between atoms: O_25  and  C_66 
REMARK   27  A    between atoms: O_26  and  C_67 
REMARK   28  A    between atoms: C_28  and  C_30 
REMARK   29  A    between atoms: C_29  and  C_31 
REMARK   30  A    between atoms: C_30  and  C_32 
REMARK   31  A    between atoms: C_33  and  C_37 
REMARK   32  A    between atoms: C_34  and  C_38 
REMARK   33  A    between atoms: C_35  and  C_40 
REMARK   34  A    between atoms: C_36  and  C_41 
REMARK   35  A    between atoms: C_39  and  C_42 
REMARK   36  A    between atoms: O_82  and  C_89 
REMARK   37  A    between atoms: O_83  and  C_90 
REMARK   38  A    between atoms: O_84  and  C_91 
REMARK   39  A    between atoms: C_85  and  C_86 
REMARK   40  A    between atoms: O_96  and  C_103 
REMARK   41  A    between atoms: O_97  and  C_104 
REMARK   42  A    between atoms: O_98  and  C_105 
REMARK   43  A    between atoms: C_99  and  C_100 
ROOT
HETATM    1  O   UNL     1      80.506  91.961 115.988  1.00  0.00    -0.348 OA
HETATM    2  C   UNL     1      80.459  91.858 114.629  1.00  0.00     0.201 A 
HETATM    3  C   UNL     1      81.450  92.643 115.296  1.00  0.00     0.282 A 
ENDROOT
BRANCH   2   4
HETATM    4  C   UNL     1      80.252  92.511 114.169  1.00  0.00     0.199 A 
HETATM    5  C   UNL     1      79.153  92.055 113.078  1.00  0.00     0.198 A 
HETATM    6  C   UNL     1      78.877  92.308 114.503  1.00  0.00     0.215 A 
BRANCH   4   7
HETATM    7  O   UNL     1      81.365  92.130 112.893  1.00  0.00    -0.306 OA
BRANCH   7   8
HETATM    8  C   UNL     1      82.279  92.566 112.040  1.00  0.00     0.294 C 
HETATM    9  O   UNL     1      82.064  93.471 111.242  1.00  0.00    -0.259 OA
BRANCH   8  10
HETATM   10  C   UNL     1      83.629  92.038 112.137  1.00  0.00     0.045 A 
HETATM   11  C   UNL     1      83.964  90.979 111.283  1.00  0.00     0.057 A 
HETATM   12  C   UNL     1      85.297  90.758 110.989  1.00  0.00     0.102 A 
HETATM   13  C   UNL     1      86.272  91.558 111.573  1.00  0.00     0.132 A 
HETATM   14  C   UNL     1      85.928  92.521 112.518  1.00  0.00     0.102 A 
HETATM   15  C   UNL     1      84.600  92.791 112.793  1.00  0.00     0.057 A 
BRANCH  12  16
HETATM   16  O   UNL     1      85.685  89.802 110.095  1.00  0.00    -0.358 OA
HETATM   17  H   UNL     1      86.078  89.069 110.606  1.00  0.00     0.217 HD
ENDBRANCH  12  16
BRANCH  13  18
HETATM   18  O   UNL     1      87.579  91.458 111.183  1.00  0.00    -0.356 OA
HETATM   19  H   UNL     1      87.559  91.717 110.238  1.00  0.00     0.218 HD
ENDBRANCH  13  18
BRANCH  14  20
HETATM   20  O   UNL     1      86.911  93.241 113.133  1.00  0.00    -0.358 OA
HETATM   21  H   UNL     1      86.479  93.582 113.941  1.00  0.00     0.217 HD
ENDBRANCH  14  20
ENDBRANCH   8  10
ENDBRANCH   7   8
ENDBRANCH   4   7
BRANCH   5  22
HETATM   22  O   UNL     1      78.724  93.126 112.199  1.00  0.00    -0.306 OA
BRANCH  22  23
HETATM   23  C   UNL     1      78.629  92.820 110.889  1.00  0.00     0.294 C 
HETATM   24  O   UNL     1      78.773  91.775 110.267  1.00  0.00    -0.259 OA
BRANCH  23  25
HETATM   25  C   UNL     1      78.323  93.991 110.174  1.00  0.00     0.045 C 
HETATM   26  C   UNL     1      77.360  93.708 109.239  1.00  0.00     0.058 C 
HETATM   27  C   UNL     1      77.653  94.164 107.994  1.00  0.00     0.116 C 
HETATM   28  C   UNL     1      78.546  95.239 107.827  1.00  0.00     0.133 C 
HETATM   29  C   UNL     1      79.363  95.635 108.885  1.00  0.00     0.102 C 
HETATM   30  C   UNL     1      79.359  94.899 110.030  1.00  0.00     0.057 C 
BRANCH  27  31
HETATM   31  O   UNL     1      77.210  93.424 106.887  1.00  0.00    -0.272 OA
BRANCH  31  32
HETATM   32  C   UNL     1      76.853  92.066 107.025  1.00  0.00     0.298 C 
HETATM   33  O   UNL     1      77.439  91.115 107.460  1.00  0.00    -0.259 OA
BRANCH  32  34
HETATM   34  C   UNL     1      75.410  92.180 106.811  1.00  0.00     0.045 C 
HETATM   35  C   UNL     1      74.576  92.171 107.929  1.00  0.00     0.057 C 
HETATM   36  C   UNL     1      73.390  91.471 107.801  1.00  0.00     0.102 C 
HETATM   37  C   UNL     1      73.147  90.701 106.664  1.00  0.00     0.132 C 
HETATM   38  C   UNL     1      73.986  90.778 105.565  1.00  0.00     0.102 C 
HETATM   39  C   UNL     1      75.038  91.656 105.564  1.00  0.00     0.057 C 
BRANCH  36  40
HETATM   40  O   UNL     1      72.486  91.411 108.819  1.00  0.00    -0.358 OA
HETATM   41  H   UNL     1      71.782  92.046 108.588  1.00  0.00     0.217 HD
ENDBRANCH  36  40
BRANCH  37  42
HETATM   42  O   UNL     1      72.125  89.799 106.645  1.00  0.00    -0.356 OA
HETATM   43  H   UNL     1      72.121  89.459 105.727  1.00  0.00     0.218 HD
ENDBRANCH  37  42
BRANCH  38  44
HETATM   44  O   UNL     1      73.928  89.852 104.567  1.00  0.00    -0.358 OA
HETATM   45  H   UNL     1      73.067  90.001 104.130  1.00  0.00     0.217 HD
ENDBRANCH  38  44
ENDBRANCH  32  34
ENDBRANCH  31  32
ENDBRANCH  27  31
BRANCH  28  46
HETATM   46  O   UNL     1      78.662  95.915 106.650  1.00  0.00    -0.356 OA
HETATM   47  H   UNL     1      78.109  95.445 106.000  1.00  0.00     0.218 HD
ENDBRANCH  28  46
BRANCH  29  48
HETATM   48  O   UNL     1      80.228  96.678 108.816  1.00  0.00    -0.358 OA
HETATM   49  H   UNL     1      81.074  96.286 108.543  1.00  0.00     0.217 HD
ENDBRANCH  29  48
ENDBRANCH  23  25
ENDBRANCH  22  23
ENDBRANCH   5  22
BRANCH   6  50
HETATM   50  O   UNL     1      77.234  92.434 114.652  1.00  0.00    -0.304 OA
BRANCH  50  51
HETATM   51  C   UNL     1      76.445  93.536 114.503  1.00  0.00     0.294 C 
HETATM   52  O   UNL     1      76.590  94.665 114.925  1.00  0.00    -0.259 OA
BRANCH  51  53
HETATM   53  C   UNL     1      75.312  93.080 113.701  1.00  0.00     0.045 A 
HETATM   54  C   UNL     1      74.126  93.799 113.857  1.00  0.00     0.057 A 
HETATM   55  C   UNL     1      73.005  93.408 113.159  1.00  0.00     0.102 A 
HETATM   56  C   UNL     1      73.075  92.338 112.281  1.00  0.00     0.132 A 
HETATM   57  C   UNL     1      74.274  91.651 112.096  1.00  0.00     0.102 A 
HETATM   58  C   UNL     1      75.409  92.001 112.817  1.00  0.00     0.057 A 
BRANCH  55  59
HETATM   59  O   UNL     1      71.855  94.113 113.321  1.00  0.00    -0.358 OA
HETATM   60  H   UNL     1      71.855  94.379 114.261  1.00  0.00     0.217 HD
ENDBRANCH  55  59
BRANCH  56  61
HETATM   61  O   UNL     1      71.967  92.006 111.554  1.00  0.00    -0.356 OA
HETATM   62  H   UNL     1      72.288  91.319 110.934  1.00  0.00     0.218 HD
ENDBRANCH  56  61
BRANCH  57  63
HETATM   63  O   UNL     1      74.293  90.668 111.147  1.00  0.00    -0.358 OA
HETATM   64  H   UNL     1      74.121  91.093 110.285  1.00  0.00     0.217 HD
ENDBRANCH  57  63
ENDBRANCH  51  53
ENDBRANCH  50  51
ENDBRANCH   6  50
ENDBRANCH   2   4
BRANCH   2  65
HETATM   65  C   UNL     1      80.584  90.595 113.576  1.00  0.00     0.216 C 
BRANCH  65  66
HETATM   66  O   UNL     1      81.113  89.516 114.341  1.00  0.00    -0.315 OA
BRANCH  66  67
HETATM   67  C   UNL     1      82.200  88.969 113.786  1.00  0.00     0.293 C 
HETATM   68  O   UNL     1      82.240  88.352 112.739  1.00  0.00    -0.259 OA
BRANCH  67  69
HETATM   69  C   UNL     1      83.316  89.180 114.720  1.00  0.00     0.045 C 
HETATM   70  C   UNL     1      83.124  89.525 116.071  1.00  0.00     0.057 C 
HETATM   71  C   UNL     1      84.219  89.617 116.913  1.00  0.00     0.102 C 
HETATM   72  C   UNL     1      85.465  89.209 116.468  1.00  0.00     0.133 C 
HETATM   73  C   UNL     1      85.600  88.745 115.157  1.00  0.00     0.116 C 
HETATM   74  C   UNL     1      84.577  88.882 114.230  1.00  0.00     0.058 C 
BRANCH  71  75
HETATM   75  O   UNL     1      84.054  90.005 118.212  1.00  0.00    -0.358 OA
HETATM   76  H   UNL     1      84.866  89.694 118.662  1.00  0.00     0.217 HD
ENDBRANCH  71  75
BRANCH  72  77
HETATM   77  O   UNL     1      86.481  89.179 117.380  1.00  0.00    -0.356 OA
HETATM   78  H   UNL     1      86.828  88.265 117.406  1.00  0.00     0.218 HD
ENDBRANCH  72  77
BRANCH  73  79
HETATM   79  O   UNL     1      86.640  87.892 114.796  1.00  0.00    -0.272 OA
BRANCH  79  80
HETATM   80  C   UNL     1      87.316  88.558 113.783  1.00  0.00     0.298 C 
HETATM   81  O   UNL     1      87.729  89.702 113.904  1.00  0.00    -0.259 OA
BRANCH  80  82
HETATM   82  C   UNL     1      87.489  87.775 112.525  1.00  0.00     0.045 A 
HETATM   83  C   UNL     1      88.249  88.330 111.485  1.00  0.00     0.057 A 
HETATM   84  C   UNL     1      88.384  87.635 110.287  1.00  0.00     0.102 A 
HETATM   85  C   UNL     1      87.754  86.412 110.111  1.00  0.00     0.132 A 
HETATM   86  C   UNL     1      86.995  85.868 111.143  1.00  0.00     0.102 A 
HETATM   87  C   UNL     1      86.871  86.528 112.367  1.00  0.00     0.057 A 
BRANCH  84  88
HETATM   88  O   UNL     1      89.131  88.211 109.308  1.00  0.00    -0.358 OA
HETATM   89  H   UNL     1      90.005  87.770 109.255  1.00  0.00     0.217 HD
ENDBRANCH  84  88
BRANCH  85  90
HETATM   90  O   UNL     1      87.869  85.751 108.920  1.00  0.00    -0.356 OA
HETATM   91  H   UNL     1      88.826  85.719 108.721  1.00  0.00     0.218 HD
ENDBRANCH  85  90
BRANCH  86  92
HETATM   92  O   UNL     1      86.359  84.683 110.895  1.00  0.00    -0.358 OA
HETATM   93  H   UNL     1      86.066  84.692 109.966  1.00  0.00     0.217 HD
ENDBRANCH  86  92
ENDBRANCH  80  82
ENDBRANCH  79  80
ENDBRANCH  73  79
ENDBRANCH  67  69
ENDBRANCH  66  67
ENDBRANCH  65  66
ENDBRANCH   2  65
BRANCH   3  94
HETATM   94  O   UNL     1      82.527  92.542 116.367  1.00  0.00    -0.285 OA
BRANCH  94  95
HETATM   95  C   UNL     1      83.090  93.699 116.811  1.00  0.00     0.295 C 
HETATM   96  O   UNL     1      82.574  94.802 116.876  1.00  0.00    -0.259 OA
BRANCH  95  97
HETATM   97  C   UNL     1      84.463  93.416 117.206  1.00  0.00     0.045 A 
HETATM   98  C   UNL     1      84.834  93.570 118.544  1.00  0.00     0.057 A 
HETATM   99  C   UNL     1      86.107  93.192 118.921  1.00  0.00     0.102 A 
HETATM  100  C   UNL     1      87.009  92.731 117.968  1.00  0.00     0.132 A 
HETATM  101  C   UNL     1      86.644  92.636 116.627  1.00  0.00     0.102 A 
HETATM  102  C   UNL     1      85.360  92.974 116.231  1.00  0.00     0.057 A 
BRANCH  99 103
HETATM  103  O   UNL     1      86.455  93.246 120.238  1.00  0.00    -0.358 OA
HETATM  104  H   UNL     1      87.422  93.406 120.218  1.00  0.00     0.217 HD
ENDBRANCH  99 103
BRANCH 100 105
HETATM  105  O   UNL     1      88.263  92.364 118.372  1.00  0.00    -0.356 OA
HETATM  106  H   UNL     1      88.823  93.128 118.121  1.00  0.00     0.218 HD
ENDBRANCH 100 105
BRANCH 101 107
HETATM  107  O   UNL     1      87.573  92.188 115.733  1.00  0.00    -0.358 OA
HETATM  108  H   UNL     1      87.327  92.525 114.852  1.00  0.00     0.217 HD
ENDBRANCH 101 107
ENDBRANCH  95  97
ENDBRANCH  94  95
ENDBRANCH   3  94
TORSDOF 43
ENDMDL
MODEL 10
REMARK VINA RESULT:   -11.858      2.311      8.179
REMARK INTER + INTRA:         -34.739
REMARK INTER:                 -31.231
REMARK INTRA:                  -3.508
REMARK UNBOUND:                -2.431
REMARK WARNING: 32 MAX_TORS EXCEEDED!!!
REMARK  43 active torsions:
REMARK  status: ('A' for Active; 'I' for Inactive)
REMARK    1  A    between atoms: O_2  and  C_27 
REMARK    2  A    between atoms: O_2  and  C_33 
REMARK    3  A    between atoms: O_3  and  C_28 
REMARK    4  A    between atoms: O_3  and  C_34 
REMARK    5  A    between atoms: O_4  and  C_29 
REMARK    6  A    between atoms: O_4  and  C_35 
REMARK    7  A    between atoms: O_5  and  C_31 
REMARK    8  A    between atoms: O_5  and  C_36 
REMARK    9  A    between atoms: O_6  and  C_32 
REMARK   10  A    between atoms: O_6  and  C_39 
REMARK   11  A    between atoms: O_12  and  C_51 
REMARK   12  A    between atoms: O_13  and  C_52 
REMARK   13  A    between atoms: O_13  and  C_99 
REMARK   14  A    between atoms: O_14  and  C_53 
REMARK   15  A    between atoms: O_15  and  C_54 
REMARK   16  A    between atoms: O_16  and  C_55 
REMARK   17  A    between atoms: O_17  and  C_56 
REMARK   18  A    between atoms: O_18  and  C_59 
REMARK   19  A    between atoms: O_19  and  C_60 
REMARK   20  A    between atoms: O_20  and  C_61 
REMARK   21  A    between atoms: O_21  and  C_62 
REMARK   22  A    between atoms: O_22  and  C_63 
REMARK   23  A    between atoms: O_23  and  C_64 
REMARK   24  A    between atoms: O_24  and  C_65 
REMARK   25  A    between atoms: O_24  and  C_85 
REMARK   26  A    between atoms: O_25  and  C_66 
REMARK   27  A    between atoms: O_26  and  C_67 
REMARK   28  A    between atoms: C_28  and  C_30 
REMARK   29  A    between atoms: C_29  and  C_31 
REMARK   30  A    between atoms: C_30  and  C_32 
REMARK   31  A    between atoms: C_33  and  C_37 
REMARK   32  A    between atoms: C_34  and  C_38 
REMARK   33  A    between atoms: C_35  and  C_40 
REMARK   34  A    between atoms: C_36  and  C_41 
REMARK   35  A    between atoms: C_39  and  C_42 
REMARK   36  A    between atoms: O_82  and  C_89 
REMARK   37  A    between atoms: O_83  and  C_90 
REMARK   38  A    between atoms: O_84  and  C_91 
REMARK   39  A    between atoms: C_85  and  C_86 
REMARK   40  A    between atoms: O_96  and  C_103 
REMARK   41  A    between atoms: O_97  and  C_104 
REMARK   42  A    between atoms: O_98  and  C_105 
REMARK   43  A    between atoms: C_99  and  C_100 
ROOT
HETATM    1  O   UNL     1      83.005  93.026 111.720  1.00  0.00    -0.348 OA
HETATM    2  C   UNL     1      82.377  92.743 112.898  1.00  0.00     0.201 A 
HETATM    3  C   UNL     1      81.839  93.674 111.957  1.00  0.00     0.282 A 
ENDROOT
BRANCH   2   4
HETATM    4  C   UNL     1      82.329  93.314 113.491  1.00  0.00     0.199 A 
HETATM    5  C   UNL     1      82.680  92.628 114.909  1.00  0.00     0.198 A 
HETATM    6  C   UNL     1      83.669  93.016 113.888  1.00  0.00     0.215 A 
BRANCH   4   7
HETATM    7  O   UNL     1      80.702  92.900 113.936  1.00  0.00    -0.306 OA
BRANCH   7   8
HETATM    8  C   UNL     1      79.548  93.297 114.448  1.00  0.00     0.294 C 
HETATM    9  O   UNL     1      79.474  94.052 115.411  1.00  0.00    -0.259 OA
BRANCH   8  10
HETATM   10  C   UNL     1      78.321  92.925 113.767  1.00  0.00     0.045 A 
HETATM   11  C   UNL     1      78.426  92.007 112.714  1.00  0.00     0.057 A 
HETATM   12  C   UNL     1      77.310  91.273 112.356  1.00  0.00     0.102 A 
HETATM   13  C   UNL     1      76.106  91.488 113.015  1.00  0.00     0.132 A 
HETATM   14  C   UNL     1      75.988  92.494 113.970  1.00  0.00     0.102 A 
HETATM   15  C   UNL     1      77.101  93.208 114.377  1.00  0.00     0.057 A 
BRANCH  12  16
HETATM   16  O   UNL     1      77.368  90.300 111.400  1.00  0.00    -0.358 OA
HETATM   17  H   UNL     1      78.240  89.868 111.479  1.00  0.00     0.217 HD
ENDBRANCH  12  16
BRANCH  13  18
HETATM   18  O   UNL     1      75.032  90.672 112.785  1.00  0.00    -0.356 OA
HETATM   19  H   UNL     1      75.440  89.827 112.503  1.00  0.00     0.218 HD
ENDBRANCH  13  18
BRANCH  14  20
HETATM   20  O   UNL     1      74.776  92.734 114.548  1.00  0.00    -0.358 OA
HETATM   21  H   UNL     1      74.996  92.931 115.480  1.00  0.00     0.217 HD
ENDBRANCH  14  20
ENDBRANCH   8  10
ENDBRANCH   7   8
ENDBRANCH   4   7
BRANCH   5  22
HETATM   22  O   UNL     1      82.610  93.542 116.033  1.00  0.00    -0.306 OA
BRANCH  22  23
HETATM   23  C   UNL     1      82.998  93.049 117.227  1.00  0.00     0.294 C 
HETATM   24  O   UNL     1      82.857  91.956 117.761  1.00  0.00    -0.259 OA
BRANCH  23  25
HETATM   25  C   UNL     1      83.671  94.060 117.935  1.00  0.00     0.045 C 
HETATM   26  C   UNL     1      83.910  93.629 119.215  1.00  0.00     0.058 C 
HETATM   27  C   UNL     1      83.546  94.522 120.172  1.00  0.00     0.116 C 
HETATM   28  C   UNL     1      83.454  95.891 119.862  1.00  0.00     0.133 C 
HETATM   29  C   UNL     1      83.429  96.304 118.530  1.00  0.00     0.102 C 
HETATM   30  C   UNL     1      83.383  95.360 117.551  1.00  0.00     0.057 C 
BRANCH  27  31
HETATM   31  O   UNL     1      83.077  94.034 121.401  1.00  0.00    -0.272 OA
BRANCH  31  32
HETATM   32  C   UNL     1      81.724  93.663 121.559  1.00  0.00     0.298 C 
HETATM   33  O   UNL     1      80.703  94.126 121.134  1.00  0.00    -0.259 OA
BRANCH  32  34
HETATM   34  C   UNL     1      81.911  92.322 122.114  1.00  0.00     0.045 C 
HETATM   35  C   UNL     1      82.684  92.189 123.267  1.00  0.00     0.057 C 
HETATM   36  C   UNL     1      83.521  91.090 123.318  1.00  0.00     0.102 C 
HETATM   37  C   UNL     1      83.676  90.272 122.200  1.00  0.00     0.132 C 
HETATM   38  C   UNL     1      82.854  90.420 121.094  1.00  0.00     0.102 C 
HETATM   39  C   UNL     1      81.841  91.343 121.111  1.00  0.00     0.057 C 
BRANCH  36  40
HETATM   40  O   UNL     1      84.307  90.843 124.403  1.00  0.00    -0.358 OA
HETATM   41  H   UNL     1      85.072  91.443 124.321  1.00  0.00     0.217 HD
ENDBRANCH  36  40
BRANCH  37  42
HETATM   42  O   UNL     1      84.691  89.363 122.142  1.00  0.00    -0.356 OA
HETATM   43  H   UNL     1      85.459  89.879 121.821  1.00  0.00     0.218 HD
ENDBRANCH  37  42
BRANCH  38  44
HETATM   44  O   UNL     1      83.157  89.828 119.905  1.00  0.00    -0.358 OA
HETATM   45  H   UNL     1      84.134  89.785 119.883  1.00  0.00     0.217 HD
ENDBRANCH  38  44
ENDBRANCH  32  34
ENDBRANCH  31  32
ENDBRANCH  27  31
BRANCH  28  46
HETATM   46  O   UNL     1      83.372  96.853 120.824  1.00  0.00    -0.356 OA
HETATM   47  H   UNL     1      83.712  96.457 121.646  1.00  0.00     0.218 HD
ENDBRANCH  28  46
BRANCH  29  48
HETATM   48  O   UNL     1      83.373  97.604 118.147  1.00  0.00    -0.358 OA
HETATM   49  H   UNL     1      84.214  97.768 117.689  1.00  0.00     0.217 HD
ENDBRANCH  29  48
ENDBRANCH  23  25
ENDBRANCH  22  23
ENDBRANCH   5  22
BRANCH   6  50
HETATM   50  O   UNL     1      85.148  92.996 114.627  1.00  0.00    -0.304 OA
BRANCH  50  51
HETATM   51  C   UNL     1      86.100  92.021 114.604  1.00  0.00     0.294 C 
HETATM   52  O   UNL     1      86.803  91.634 113.693  1.00  0.00    -0.259 OA
BRANCH  51  53
HETATM   53  C   UNL     1      86.118  91.480 115.962  1.00  0.00     0.045 A 
HETATM   54  C   UNL     1      86.739  92.273 116.927  1.00  0.00     0.057 A 
HETATM   55  C   UNL     1      86.824  91.815 118.223  1.00  0.00     0.102 A 
HETATM   56  C   UNL     1      86.257  90.598 118.564  1.00  0.00     0.132 A 
HETATM   57  C   UNL     1      85.598  89.829 117.606  1.00  0.00     0.102 A 
HETATM   58  C   UNL     1      85.532  90.251 116.283  1.00  0.00     0.057 A 
BRANCH  55  59
HETATM   59  O   UNL     1      87.435  92.594 119.154  1.00  0.00    -0.358 OA
HETATM   60  H   UNL     1      87.214  92.180 120.011  1.00  0.00     0.217 HD
ENDBRANCH  55  59
BRANCH  56  61
HETATM   61  O   UNL     1      86.300  90.191 119.869  1.00  0.00    -0.356 OA
HETATM   62  H   UNL     1      85.489  90.572 120.262  1.00  0.00     0.218 HD
ENDBRANCH  56  61
BRANCH  57  63
HETATM   63  O   UNL     1      84.982  88.687 118.033  1.00  0.00    -0.358 OA
HETATM   64  H   UNL     1      84.036  88.893 118.149  1.00  0.00     0.217 HD
ENDBRANCH  57  63
ENDBRANCH  51  53
ENDBRANCH  50  51
ENDBRANCH   6  50
ENDBRANCH   2   4
BRANCH   2  65
HETATM   65  C   UNL     1      81.757  91.364 113.557  1.00  0.00     0.216 C 
BRANCH  65  66
HETATM   66  O   UNL     1      82.039  90.334 112.613  1.00  0.00    -0.315 OA
BRANCH  66  67
HETATM   67  C   UNL     1      82.645  89.277 113.163  1.00  0.00     0.293 C 
HETATM   68  O   UNL     1      82.217  88.595 114.074  1.00  0.00    -0.259 OA
BRANCH  67  69
HETATM   69  C   UNL     1      83.962  89.150 112.521  1.00  0.00     0.045 C 
HETATM   70  C   UNL     1      84.361  89.953 111.435  1.00  0.00     0.057 C 
HETATM   71  C   UNL     1      85.649  89.839 110.941  1.00  0.00     0.102 C 
HETATM   72  C   UNL     1      86.579  89.068 111.616  1.00  0.00     0.133 C 
HETATM   73  C   UNL     1      86.187  88.384 112.770  1.00  0.00     0.116 C 
HETATM   74  C   UNL     1      84.852  88.284 113.134  1.00  0.00     0.058 C 
BRANCH  71  75
HETATM   75  O   UNL     1      86.032  90.570 109.853  1.00  0.00    -0.358 OA
HETATM   76  H   UNL     1      86.123  89.909 109.137  1.00  0.00     0.217 HD
ENDBRANCH  71  75
BRANCH  72  77
HETATM   77  O   UNL     1      87.870  89.107 111.174  1.00  0.00    -0.356 OA
HETATM   78  H   UNL     1      88.046  88.272 110.698  1.00  0.00     0.218 HD
ENDBRANCH  72  77
BRANCH  73  79
HETATM   79  O   UNL     1      87.114  88.013 113.741  1.00  0.00    -0.272 OA
BRANCH  79  80
HETATM   80  C   UNL     1      87.257  86.641 113.595  1.00  0.00     0.298 C 
HETATM   81  O   UNL     1      87.446  86.107 112.512  1.00  0.00    -0.259 OA
BRANCH  80  82
HETATM   82  C   UNL     1      87.148  85.861 114.862  1.00  0.00     0.045 A 
HETATM   83  C   UNL     1      87.883  84.673 114.989  1.00  0.00     0.057 A 
HETATM   84  C   UNL     1      87.760  83.908 116.144  1.00  0.00     0.102 A 
HETATM   85  C   UNL     1      86.899  84.304 117.158  1.00  0.00     0.132 A 
HETATM   86  C   UNL     1      86.167  85.480 117.026  1.00  0.00     0.102 A 
HETATM   87  C   UNL     1      86.297  86.283 115.892  1.00  0.00     0.057 A 
BRANCH  84  88
HETATM   88  O   UNL     1      88.491  82.766 116.223  1.00  0.00    -0.358 OA
HETATM   89  H   UNL     1      88.868  82.552 115.343  1.00  0.00     0.217 HD
ENDBRANCH  84  88
BRANCH  85  90
HETATM   90  O   UNL     1      86.763  83.531 118.277  1.00  0.00    -0.356 OA
HETATM   91  H   UNL     1      86.726  82.606 117.962  1.00  0.00     0.218 HD
ENDBRANCH  85  90
BRANCH  86  92
HETATM   92  O   UNL     1      85.300  85.795 118.037  1.00  0.00    -0.358 OA
HETATM   93  H   UNL     1      84.454  85.348 117.852  1.00  0.00     0.217 HD
ENDBRANCH  86  92
ENDBRANCH  80  82
ENDBRANCH  79  80
ENDBRANCH  73  79
ENDBRANCH  67  69
ENDBRANCH  66  67
ENDBRANCH  65  66
ENDBRANCH   2  65
BRANCH   3  94
HETATM   94  O   UNL     1      81.429  93.788 110.495  1.00  0.00    -0.285 OA
BRANCH  94  95
HETATM   95  C   UNL     1      80.646  94.842 110.137  1.00  0.00     0.295 C 
HETATM   96  O   UNL     1      80.971  96.013 110.042  1.00  0.00    -0.259 OA
BRANCH  95  97
HETATM   97  C   UNL     1      79.301  94.345 109.882  1.00  0.00     0.045 A 
HETATM   98  C   UNL     1      79.122  93.286 108.988  1.00  0.00     0.057 A 
HETATM   99  C   UNL     1      77.856  92.755 108.843  1.00  0.00     0.102 A 
HETATM  100  C   UNL     1      76.782  93.314 109.528  1.00  0.00     0.132 A 
HETATM  101  C   UNL     1      76.965  94.407 110.372  1.00  0.00     0.102 A 
HETATM  102  C   UNL     1      78.232  94.932 110.563  1.00  0.00     0.057 A 
BRANCH  99 103
HETATM  103  O   UNL     1      77.680  91.661 108.048  1.00  0.00    -0.358 OA
HETATM  104  H   UNL     1      77.634  92.034 107.143  1.00  0.00     0.217 HD
ENDBRANCH  99 103
BRANCH 100 105
HETATM  105  O   UNL     1      75.540  92.766 109.363  1.00  0.00    -0.356 OA
HETATM  106  H   UNL     1      74.966  93.539 109.176  1.00  0.00     0.218 HD
ENDBRANCH 100 105
BRANCH 101 107
HETATM  107  O   UNL     1      75.873  94.922 111.010  1.00  0.00    -0.358 OA
HETATM  108  H   UNL     1      76.137  95.769 111.414  1.00  0.00     0.217 HD
ENDBRANCH 101 107
ENDBRANCH  95  97
ENDBRANCH  94  95
ENDBRANCH   3  94
TORSDOF 43
ENDMDL
