MODEL 1
REMARK VINA RESULT:      -6.7      0.000      0.000
REMARK  Name = 2162
REMARK  14 active torsions:
REMARK  status: ('A' for Active; 'I' for Inactive)
REMARK    1  A    between atoms: O_2  and  C_15
REMARK    2  A    between atoms: O_2  and  C_24
REMARK    3  A    between atoms: O_3  and  C_16
REMARK    4  A    between atoms: O_3  and  C_25
REMARK    5  A    between atoms: O_4  and  C_18
REMARK    6  A    between atoms: O_4  and  C_27
REMARK    7  A    between atoms: N_8  and  C_26
REMARK    8  A    between atoms: C_9  and  C_14
REMARK    9  A    between atoms: C_10  and  C_16
REMARK   10  A    between atoms: C_11  and  C_18
REMARK   11  A    between atoms: C_12  and  C_15
REMARK   12  A    between atoms: C_13  and  C_17
REMARK   13  A    between atoms: C_24  and  C_26
REMARK   14  A    between atoms: C_25  and  C_28
REMARK                            x       y       z     vdW  Elec       q    Type
REMARK                         _______ _______ _______ _____ _____    ______ ____
ROOT
ATOM      1  C   UNL     1     150.965 150.021 143.623  0.00  0.00    +0.097 C 
ATOM      2  C   UNL     1     152.168 150.857 144.070  0.00  0.00    +0.065 C 
ATOM      3  C   UNL     1     152.051 151.787 145.046  0.00  0.00    +0.016 C 
ATOM      4  C   UNL     1     153.176 152.623 145.594  0.00  0.00    +0.061 C 
ATOM      5  N   UNL     1     150.811 152.029 145.614  0.00  0.00    -0.319 N 
ATOM      6  H   UNL     1     150.763 152.727 146.349  0.00  0.00    +0.152 HD
ATOM      7  C   UNL     1     149.624 151.447 145.201  0.00  0.00    +0.045 C 
ATOM      8  C   UNL     1     149.645 150.493 144.243  0.00  0.00    +0.068 C 
ENDROOT
BRANCH   1  15
ATOM      9 CL   UNL     1     151.018 147.994 141.296  0.00  0.00    -0.083 Cl
ATOM     10  C   UNL     1     151.234 147.594 142.961  0.00  0.00    +0.045 A 
ATOM     11  C   UNL     1     151.452 146.261 143.306  0.00  0.00    +0.020 A 
ATOM     12  C   UNL     1     151.631 145.906 144.643  0.00  0.00    +0.001 A 
ATOM     13  C   UNL     1     151.593 146.886 145.635  0.00  0.00    +0.000 A 
ATOM     14  C   UNL     1     151.375 148.219 145.290  0.00  0.00    +0.006 A 
ATOM     15  C   UNL     1     151.196 148.573 143.953  0.00  0.00    -0.017 A 
ENDBRANCH   1  15
BRANCH   2  16
ATOM     16  C   UNL     1     153.433 150.629 143.353  0.00  0.00    +0.337 C 
ATOM     17  O   UNL     1     153.676 151.100 142.257  0.00  0.00    -0.245 OA
BRANCH  16  18
ATOM     18  O   UNL     1     154.221 149.835 144.119  0.00  0.00    -0.465 OA
ATOM     19  C   UNL     1     154.708 148.657 143.469  0.00  0.00    +0.280 C 
ENDBRANCH  16  18
ENDBRANCH   2  16
BRANCH   8  20
ATOM     20  C   UNL     1     148.412 149.905 143.696  0.00  0.00    +0.338 C 
ATOM     21  O   UNL     1     147.925 150.242 142.632  0.00  0.00    -0.245 OA
BRANCH  20  22
ATOM     22  O   UNL     1     147.961 148.970 144.565  0.00  0.00    -0.462 OA
BRANCH  22  23
ATOM     23  C   UNL     1     147.062 148.005 144.008  0.00  0.00    +0.229 C 
ATOM     24  C   UNL     1     147.820 146.724 143.737  0.00  0.00    +0.048 C 
ENDBRANCH  22  23
ENDBRANCH  20  22
ENDBRANCH   8  20
BRANCH   7  25
ATOM     25  C   UNL     1     148.391 151.954 145.900  0.00  0.00    +0.211 C 
BRANCH  25  26
ATOM     26  O   UNL     1     148.765 152.668 147.061  0.00  0.00    -0.373 OA
BRANCH  26  27
ATOM     27  C   UNL     1     148.199 153.975 147.085  0.00  0.00    +0.175 C 
BRANCH  27  28
ATOM     28  C   UNL     1     146.711 153.857 147.372  0.00  0.00    +0.106 C 
BRANCH  28  29
ATOM     29  N   UNL     1     146.476 153.646 148.792  0.00  0.00    -0.328 NA
ATOM     30  H   UNL     1     147.214 154.100 149.329  0.00  0.00    +0.118 HD
ATOM     31  H   UNL     1     146.535 152.652 149.006  0.00  0.00    +0.118 HD
ENDBRANCH  28  29
ENDBRANCH  27  28
ENDBRANCH  26  27
ENDBRANCH  25  26
ENDBRANCH   7  25
TORSDOF 11
ENDMDL
MODEL 2
REMARK VINA RESULT:      -6.5      2.322      4.659
REMARK  Name = 2162
REMARK  14 active torsions:
REMARK  status: ('A' for Active; 'I' for Inactive)
REMARK    1  A    between atoms: O_2  and  C_15
REMARK    2  A    between atoms: O_2  and  C_24
REMARK    3  A    between atoms: O_3  and  C_16
REMARK    4  A    between atoms: O_3  and  C_25
REMARK    5  A    between atoms: O_4  and  C_18
REMARK    6  A    between atoms: O_4  and  C_27
REMARK    7  A    between atoms: N_8  and  C_26
REMARK    8  A    between atoms: C_9  and  C_14
REMARK    9  A    between atoms: C_10  and  C_16
REMARK   10  A    between atoms: C_11  and  C_18
REMARK   11  A    between atoms: C_12  and  C_15
REMARK   12  A    between atoms: C_13  and  C_17
REMARK   13  A    between atoms: C_24  and  C_26
REMARK   14  A    between atoms: C_25  and  C_28
REMARK                            x       y       z     vdW  Elec       q    Type
REMARK                         _______ _______ _______ _____ _____    ______ ____
ROOT
ATOM      1  C   UNL     1     150.319 150.061 145.578  0.00  0.00    +0.097 C 
ATOM      2  C   UNL     1     149.200 149.306 144.855  0.00  0.00    +0.065 C 
ATOM      3  C   UNL     1     148.006 149.891 144.608  0.00  0.00    +0.016 C 
ATOM      4  C   UNL     1     146.862 149.259 143.863  0.00  0.00    +0.061 C 
ATOM      5  N   UNL     1     147.767 151.177 145.065  0.00  0.00    -0.319 N 
ATOM      6  H   UNL     1     146.865 151.587 144.853  0.00  0.00    +0.152 HD
ATOM      7  C   UNL     1     148.639 151.912 145.852  0.00  0.00    +0.045 C 
ATOM      8  C   UNL     1     149.864 151.413 146.136  0.00  0.00    +0.068 C 
ENDROOT
BRANCH   1  15
ATOM      9 CL   UNL     1     153.038 148.851 146.398  0.00  0.00    -0.083 Cl
ATOM     10  C   UNL     1     152.749 149.742 144.948  0.00  0.00    +0.045 A 
ATOM     11  C   UNL     1     153.808 149.943 144.064  0.00  0.00    +0.020 A 
ATOM     12  C   UNL     1     153.605 150.658 142.884  0.00  0.00    +0.001 A 
ATOM     13  C   UNL     1     152.343 151.172 142.588  0.00  0.00    +0.000 A 
ATOM     14  C   UNL     1     151.284 150.971 143.472  0.00  0.00    +0.006 A 
ATOM     15  C   UNL     1     151.487 150.256 144.652  0.00  0.00    -0.017 A 
ENDBRANCH   1  15
BRANCH   2  16
ATOM     16  C   UNL     1     149.476 147.906 144.491  0.00  0.00    +0.337 C 
ATOM     17  O   UNL     1     149.447 146.988 145.291  0.00  0.00    -0.245 OA
BRANCH  16  18
ATOM     18  O   UNL     1     149.752 147.855 143.165  0.00  0.00    -0.465 OA
ATOM     19  C   UNL     1     150.938 147.133 142.820  0.00  0.00    +0.280 C 
ENDBRANCH  16  18
ENDBRANCH   2  16
BRANCH   8  20
ATOM     20  C   UNL     1     150.799 152.101 147.042  0.00  0.00    +0.338 C 
ATOM     21  O   UNL     1     150.904 151.831 148.225  0.00  0.00    -0.245 OA
BRANCH  20  22
ATOM     22  O   UNL     1     151.474 153.035 146.332  0.00  0.00    -0.462 OA
BRANCH  22  23
ATOM     23  C   UNL     1     152.860 153.167 146.666  0.00  0.00    +0.229 C 
ATOM     24  C   UNL     1     153.662 153.323 145.392  0.00  0.00    +0.048 C 
ENDBRANCH  22  23
ENDBRANCH  20  22
ENDBRANCH   8  20
BRANCH   7  25
ATOM     25  C   UNL     1     148.110 153.242 146.316  0.00  0.00    +0.211 C 
BRANCH  25  26
ATOM     26  O   UNL     1     147.413 153.074 147.535  0.00  0.00    -0.373 OA
BRANCH  26  27
ATOM     27  C   UNL     1     146.313 153.971 147.644  0.00  0.00    +0.175 C 
BRANCH  27  28
ATOM     28  C   UNL     1     146.531 154.869 148.851  0.00  0.00    +0.106 C 
BRANCH  28  29
ATOM     29  N   UNL     1     147.131 154.121 149.946  0.00  0.00    -0.328 NA
ATOM     30  H   UNL     1     146.927 153.129 149.830  0.00  0.00    +0.118 HD
ATOM     31  H   UNL     1     146.704 154.400 150.828  0.00  0.00    +0.118 HD
ENDBRANCH  28  29
ENDBRANCH  27  28
ENDBRANCH  26  27
ENDBRANCH  25  26
ENDBRANCH   7  25
TORSDOF 11
ENDMDL
MODEL 3
REMARK VINA RESULT:      -6.4      6.168      9.579
REMARK  Name = 2162
REMARK  14 active torsions:
REMARK  status: ('A' for Active; 'I' for Inactive)
REMARK    1  A    between atoms: O_2  and  C_15
REMARK    2  A    between atoms: O_2  and  C_24
REMARK    3  A    between atoms: O_3  and  C_16
REMARK    4  A    between atoms: O_3  and  C_25
REMARK    5  A    between atoms: O_4  and  C_18
REMARK    6  A    between atoms: O_4  and  C_27
REMARK    7  A    between atoms: N_8  and  C_26
REMARK    8  A    between atoms: C_9  and  C_14
REMARK    9  A    between atoms: C_10  and  C_16
REMARK   10  A    between atoms: C_11  and  C_18
REMARK   11  A    between atoms: C_12  and  C_15
REMARK   12  A    between atoms: C_13  and  C_17
REMARK   13  A    between atoms: C_24  and  C_26
REMARK   14  A    between atoms: C_25  and  C_28
REMARK                            x       y       z     vdW  Elec       q    Type
REMARK                         _______ _______ _______ _____ _____    ______ ____
ROOT
ATOM      1  C   UNL     1     151.004 155.367 150.023  0.00  0.00    +0.097 C 
ATOM      2  C   UNL     1     151.766 154.261 150.759  0.00  0.00    +0.065 C 
ATOM      3  C   UNL     1     152.536 154.538 151.836  0.00  0.00    +0.016 C 
ATOM      4  C   UNL     1     153.282 153.524 152.660  0.00  0.00    +0.061 C 
ATOM      5  N   UNL     1     152.687 155.852 152.249  0.00  0.00    -0.319 N 
ATOM      6  H   UNL     1     153.264 156.021 153.065  0.00  0.00    +0.152 HD
ATOM      7  C   UNL     1     152.171 156.954 151.586  0.00  0.00    +0.045 C 
ATOM      8  C   UNL     1     151.374 156.773 150.508  0.00  0.00    +0.068 C 
ENDROOT
BRANCH   1  15
ATOM      9 CL   UNL     1     149.330 155.093 147.444  0.00  0.00    -0.083 Cl
ATOM     10  C   UNL     1     148.696 155.016 149.047  0.00  0.00    +0.045 A 
ATOM     11  C   UNL     1     147.327 154.815 149.216  0.00  0.00    +0.020 A 
ATOM     12  C   UNL     1     146.785 154.749 150.499  0.00  0.00    +0.001 A 
ATOM     13  C   UNL     1     147.613 154.882 151.614  0.00  0.00    +0.000 A 
ATOM     14  C   UNL     1     148.982 155.083 151.445  0.00  0.00    +0.006 A 
ATOM     15  C   UNL     1     149.524 155.150 150.161  0.00  0.00    -0.017 A 
ENDBRANCH   1  15
BRANCH   2  16
ATOM     16  C   UNL     1     151.652 152.901 150.206  0.00  0.00    +0.337 C 
ATOM     17  O   UNL     1     150.925 152.046 150.676  0.00  0.00    -0.245 OA
BRANCH  16  18
ATOM     18  O   UNL     1     152.474 152.806 149.133  0.00  0.00    -0.465 OA
ATOM     19  C   UNL     1     151.859 152.309 147.941  0.00  0.00    +0.280 C 
ENDBRANCH  16  18
ENDBRANCH   2  16
BRANCH   8  20
ATOM     20  C   UNL     1     150.872 157.901 149.707  0.00  0.00    +0.338 C 
ATOM     21  O   UNL     1     151.342 158.216 148.629  0.00  0.00    -0.245 OA
BRANCH  20  22
ATOM     22  O   UNL     1     149.844 158.477 150.374  0.00  0.00    -0.462 OA
BRANCH  22  23
ATOM     23  C   UNL     1     148.673 158.723 149.589  0.00  0.00    +0.229 C 
ATOM     24  C   UNL     1     147.447 158.454 150.435  0.00  0.00    +0.048 C 
ENDBRANCH  22  23
ENDBRANCH  20  22
ENDBRANCH   8  20
BRANCH   7  25
ATOM     25  C   UNL     1     152.563 158.286 152.167  0.00  0.00    +0.211 C 
BRANCH  25  26
ATOM     26  O   UNL     1     153.399 158.971 151.256  0.00  0.00    -0.373 OA
BRANCH  26  27
ATOM     27  C   UNL     1     154.663 158.331 151.112  0.00  0.00    +0.175 C 
BRANCH  27  28
ATOM     28  C   UNL     1     155.347 158.289 152.469  0.00  0.00    +0.106 C 
BRANCH  28  29
ATOM     29  N   UNL     1     155.792 156.939 152.779  0.00  0.00    -0.328 NA
ATOM     30  H   UNL     1     156.387 156.960 153.606  0.00  0.00    +0.118 HD
ATOM     31  H   UNL     1     156.371 156.585 152.019  0.00  0.00    +0.118 HD
ENDBRANCH  28  29
ENDBRANCH  27  28
ENDBRANCH  26  27
ENDBRANCH  25  26
ENDBRANCH   7  25
TORSDOF 11
ENDMDL
MODEL 4
REMARK VINA RESULT:      -6.4      2.290      3.811
REMARK  Name = 2162
REMARK  14 active torsions:
REMARK  status: ('A' for Active; 'I' for Inactive)
REMARK    1  A    between atoms: O_2  and  C_15
REMARK    2  A    between atoms: O_2  and  C_24
REMARK    3  A    between atoms: O_3  and  C_16
REMARK    4  A    between atoms: O_3  and  C_25
REMARK    5  A    between atoms: O_4  and  C_18
REMARK    6  A    between atoms: O_4  and  C_27
REMARK    7  A    between atoms: N_8  and  C_26
REMARK    8  A    between atoms: C_9  and  C_14
REMARK    9  A    between atoms: C_10  and  C_16
REMARK   10  A    between atoms: C_11  and  C_18
REMARK   11  A    between atoms: C_12  and  C_15
REMARK   12  A    between atoms: C_13  and  C_17
REMARK   13  A    between atoms: C_24  and  C_26
REMARK   14  A    between atoms: C_25  and  C_28
REMARK                            x       y       z     vdW  Elec       q    Type
REMARK                         _______ _______ _______ _____ _____    ______ ____
ROOT
ATOM      1  C   UNL     1     151.861 150.440 144.691  0.00  0.00    +0.097 C 
ATOM      2  C   UNL     1     151.830 151.038 146.101  0.00  0.00    +0.065 C 
ATOM      3  C   UNL     1     150.659 151.297 146.727  0.00  0.00    +0.016 C 
ATOM      4  C   UNL     1     150.517 151.832 148.126  0.00  0.00    +0.061 C 
ATOM      5  N   UNL     1     149.464 151.072 146.063  0.00  0.00    -0.319 N 
ATOM      6  H   UNL     1     148.607 151.269 146.566  0.00  0.00    +0.152 HD
ATOM      7  C   UNL     1     149.357 150.673 144.740  0.00  0.00    +0.045 C 
ATOM      8  C   UNL     1     150.475 150.374 144.039  0.00  0.00    +0.068 C 
ENDROOT
BRANCH   1  15
ATOM      9 CL   UNL     1     154.396 149.942 143.003  0.00  0.00    -0.083 Cl
ATOM     10  C   UNL     1     153.621 148.761 143.995  0.00  0.00    +0.045 A 
ATOM     11  C   UNL     1     154.162 147.478 144.055  0.00  0.00    +0.020 A 
ATOM     12  C   UNL     1     153.558 146.502 144.848  0.00  0.00    +0.001 A 
ATOM     13  C   UNL     1     152.412 146.811 145.582  0.00  0.00    +0.000 A 
ATOM     14  C   UNL     1     151.871 148.095 145.521  0.00  0.00    +0.006 A 
ATOM     15  C   UNL     1     152.475 149.070 144.728  0.00  0.00    -0.017 A 
ENDBRANCH   1  15
BRANCH   2  16
ATOM     16  C   UNL     1     153.132 151.356 146.712  0.00  0.00    +0.337 C 
ATOM     17  O   UNL     1     153.515 150.872 147.761  0.00  0.00    -0.245 OA
BRANCH  16  18
ATOM     18  O   UNL     1     153.773 152.243 145.912  0.00  0.00    -0.465 OA
ATOM     19  C   UNL     1     153.313 153.593 146.015  0.00  0.00    +0.280 C 
ENDBRANCH  16  18
ENDBRANCH   2  16
BRANCH   8  20
ATOM     20  C   UNL     1     150.435 150.036 142.608  0.00  0.00    +0.338 C 
ATOM     21  O   UNL     1     150.684 150.836 141.724  0.00  0.00    -0.245 OA
BRANCH  20  22
ATOM     22  O   UNL     1     150.087 148.733 142.485  0.00  0.00    -0.462 OA
BRANCH  22  23
ATOM     23  C   UNL     1     150.789 148.010 141.469  0.00  0.00    +0.229 C 
ATOM     24  C   UNL     1     151.140 146.635 141.996  0.00  0.00    +0.048 C 
ENDBRANCH  22  23
ENDBRANCH  20  22
ENDBRANCH   8  20
BRANCH   7  25
ATOM     25  C   UNL     1     147.951 150.603 144.209  0.00  0.00    +0.211 C 
BRANCH  25  26
ATOM     26  O   UNL     1     147.270 149.521 144.813  0.00  0.00    -0.373 OA
BRANCH  26  27
ATOM     27  C   UNL     1     147.019 148.470 143.885  0.00  0.00    +0.175 C 
BRANCH  27  28
ATOM     28  C   UNL     1     146.536 149.077 142.578  0.00  0.00    +0.106 C 
BRANCH  28  29
ATOM     29  N   UNL     1     147.171 148.425 141.442  0.00  0.00    -0.328 NA
ATOM     30  H   UNL     1     147.555 147.528 141.738  0.00  0.00    +0.118 HD
ATOM     31  H   UNL     1     147.961 148.983 141.123  0.00  0.00    +0.118 HD
ENDBRANCH  28  29
ENDBRANCH  27  28
ENDBRANCH  26  27
ENDBRANCH  25  26
ENDBRANCH   7  25
TORSDOF 11
ENDMDL
MODEL 5
REMARK VINA RESULT:      -6.3      2.314      5.322
REMARK  Name = 2162
REMARK  14 active torsions:
REMARK  status: ('A' for Active; 'I' for Inactive)
REMARK    1  A    between atoms: O_2  and  C_15
REMARK    2  A    between atoms: O_2  and  C_24
REMARK    3  A    between atoms: O_3  and  C_16
REMARK    4  A    between atoms: O_3  and  C_25
REMARK    5  A    between atoms: O_4  and  C_18
REMARK    6  A    between atoms: O_4  and  C_27
REMARK    7  A    between atoms: N_8  and  C_26
REMARK    8  A    between atoms: C_9  and  C_14
REMARK    9  A    between atoms: C_10  and  C_16
REMARK   10  A    between atoms: C_11  and  C_18
REMARK   11  A    between atoms: C_12  and  C_15
REMARK   12  A    between atoms: C_13  and  C_17
REMARK   13  A    between atoms: C_24  and  C_26
REMARK   14  A    between atoms: C_25  and  C_28
REMARK                            x       y       z     vdW  Elec       q    Type
REMARK                         _______ _______ _______ _____ _____    ______ ____
ROOT
ATOM      1  C   UNL     1     150.125 148.350 144.688  0.00  0.00    +0.097 C 
ATOM      2  C   UNL     1     149.174 149.541 144.847  0.00  0.00    +0.065 C 
ATOM      3  C   UNL     1     149.594 150.704 145.395  0.00  0.00    +0.016 C 
ATOM      4  C   UNL     1     148.760 151.947 145.549  0.00  0.00    +0.061 C 
ATOM      5  N   UNL     1     150.890 150.806 145.874  0.00  0.00    -0.319 N 
ATOM      6  H   UNL     1     151.172 151.696 146.270  0.00  0.00    +0.152 HD
ATOM      7  C   UNL     1     151.800 149.763 145.922  0.00  0.00    +0.045 C 
ATOM      8  C   UNL     1     151.474 148.566 145.382  0.00  0.00    +0.068 C 
ENDROOT
BRANCH   1  15
ATOM      9 CL   UNL     1     149.233 145.597 143.618  0.00  0.00    -0.083 Cl
ATOM     10  C   UNL     1     149.965 146.836 142.667  0.00  0.00    +0.045 A 
ATOM     11  C   UNL     1     150.180 146.600 141.310  0.00  0.00    +0.020 A 
ATOM     12  C   UNL     1     150.770 147.584 140.516  0.00  0.00    +0.001 A 
ATOM     13  C   UNL     1     151.145 148.804 141.079  0.00  0.00    +0.000 A 
ATOM     14  C   UNL     1     150.929 149.039 142.437  0.00  0.00    +0.006 A 
ATOM     15  C   UNL     1     150.340 148.056 143.231  0.00  0.00    -0.017 A 
ENDBRANCH   1  15
BRANCH   2  16
ATOM     16  C   UNL     1     147.781 149.335 144.418  0.00  0.00    +0.337 C 
ATOM     17  O   UNL     1     146.984 148.655 145.037  0.00  0.00    -0.245 OA
BRANCH  16  18
ATOM     18  O   UNL     1     147.584 150.016 143.262  0.00  0.00    -0.465 OA
ATOM     19  C   UNL     1     146.971 149.262 142.212  0.00  0.00    +0.280 C 
ENDBRANCH  16  18
ENDBRANCH   2  16
BRANCH   8  20
ATOM     20  C   UNL     1     152.358 147.394 145.484  0.00  0.00    +0.338 C 
ATOM     21  O   UNL     1     152.059 146.381 146.090  0.00  0.00    -0.245 OA
BRANCH  20  22
ATOM     22  O   UNL     1     153.500 147.659 144.806  0.00  0.00    -0.462 OA
BRANCH  22  23
ATOM     23  C   UNL     1     153.779 146.773 143.717  0.00  0.00    +0.229 C 
ATOM     24  C   UNL     1     154.277 147.581 142.539  0.00  0.00    +0.048 C 
ENDBRANCH  22  23
ENDBRANCH  20  22
ENDBRANCH   8  20
BRANCH   7  25
ATOM     25  C   UNL     1     153.108 150.091 146.590  0.00  0.00    +0.211 C 
BRANCH  25  26
ATOM     26  O   UNL     1     154.088 150.355 145.606  0.00  0.00    -0.373 OA
BRANCH  26  27
ATOM     27  C   UNL     1     154.417 151.739 145.544  0.00  0.00    +0.175 C 
BRANCH  27  28
ATOM     28  C   UNL     1     153.761 152.342 144.312  0.00  0.00    +0.106 C 
BRANCH  28  29
ATOM     29  N   UNL     1     153.953 151.484 143.154  0.00  0.00    -0.328 NA
ATOM     30  H   UNL     1     154.951 151.373 142.976  0.00  0.00    +0.118 HD
ATOM     31  H   UNL     1     153.563 151.930 142.326  0.00  0.00    +0.118 HD
ENDBRANCH  28  29
ENDBRANCH  27  28
ENDBRANCH  26  27
ENDBRANCH  25  26
ENDBRANCH   7  25
TORSDOF 11
ENDMDL
MODEL 6
REMARK VINA RESULT:      -6.3      6.343      9.712
REMARK  Name = 2162
REMARK  14 active torsions:
REMARK  status: ('A' for Active; 'I' for Inactive)
REMARK    1  A    between atoms: O_2  and  C_15
REMARK    2  A    between atoms: O_2  and  C_24
REMARK    3  A    between atoms: O_3  and  C_16
REMARK    4  A    between atoms: O_3  and  C_25
REMARK    5  A    between atoms: O_4  and  C_18
REMARK    6  A    between atoms: O_4  and  C_27
REMARK    7  A    between atoms: N_8  and  C_26
REMARK    8  A    between atoms: C_9  and  C_14
REMARK    9  A    between atoms: C_10  and  C_16
REMARK   10  A    between atoms: C_11  and  C_18
REMARK   11  A    between atoms: C_12  and  C_15
REMARK   12  A    between atoms: C_13  and  C_17
REMARK   13  A    between atoms: C_24  and  C_26
REMARK   14  A    between atoms: C_25  and  C_28
REMARK                            x       y       z     vdW  Elec       q    Type
REMARK                         _______ _______ _______ _____ _____    ______ ____
ROOT
ATOM      1  C   UNL     1     150.399 155.289 150.723  0.00  0.00    +0.097 C 
ATOM      2  C   UNL     1     148.941 155.690 150.477  0.00  0.00    +0.065 C 
ATOM      3  C   UNL     1     148.579 156.989 150.380  0.00  0.00    +0.016 C 
ATOM      4  C   UNL     1     147.190 157.489 150.089  0.00  0.00    +0.061 C 
ATOM      5  N   UNL     1     149.531 157.980 150.562  0.00  0.00    -0.319 N 
ATOM      6  H   UNL     1     149.225 158.943 150.474  0.00  0.00    +0.152 HD
ATOM      7  C   UNL     1     150.847 157.755 150.931  0.00  0.00    +0.045 C 
ATOM      8  C   UNL     1     151.304 156.486 151.036  0.00  0.00    +0.068 C 
ENDROOT
BRANCH   1  15
ATOM      9 CL   UNL     1     151.297 152.365 151.134  0.00  0.00    -0.083 Cl
ATOM     10  C   UNL     1     151.360 153.216 149.635  0.00  0.00    +0.045 A 
ATOM     11  C   UNL     1     151.848 152.555 148.509  0.00  0.00    +0.020 A 
ATOM     12  C   UNL     1     151.910 153.216 147.283  0.00  0.00    +0.001 A 
ATOM     13  C   UNL     1     151.483 154.541 147.183  0.00  0.00    +0.000 A 
ATOM     14  C   UNL     1     150.995 155.202 148.308  0.00  0.00    +0.006 A 
ATOM     15  C   UNL     1     150.933 154.540 149.535  0.00  0.00    -0.017 A 
ENDBRANCH   1  15
BRANCH   2  16
ATOM     16  C   UNL     1     147.960 154.595 150.401  0.00  0.00    +0.337 C 
ATOM     17  O   UNL     1     147.468 154.067 151.381  0.00  0.00    -0.245 OA
BRANCH  16  18
ATOM     18  O   UNL     1     147.733 154.315 149.094  0.00  0.00    -0.465 OA
ATOM     19  C   UNL     1     146.358 154.134 148.744  0.00  0.00    +0.280 C 
ENDBRANCH  16  18
ENDBRANCH   2  16
BRANCH   8  20
ATOM     20  C   UNL     1     152.662 156.179 151.513  0.00  0.00    +0.338 C 
ATOM     21  O   UNL     1     153.651 156.252 150.807  0.00  0.00    -0.245 OA
BRANCH  20  22
ATOM     22  O   UNL     1     152.587 155.823 152.818  0.00  0.00    -0.462 OA
BRANCH  22  23
ATOM     23  C   UNL     1     153.355 154.670 153.177  0.00  0.00    +0.229 C 
ATOM     24  C   UNL     1     153.404 154.561 154.685  0.00  0.00    +0.048 C 
ENDBRANCH  22  23
ENDBRANCH  20  22
ENDBRANCH   8  20
BRANCH   7  25
ATOM     25  C   UNL     1     151.660 158.997 151.177  0.00  0.00    +0.211 C 
BRANCH  25  26
ATOM     26  O   UNL     1     151.025 159.790 152.160  0.00  0.00    -0.373 OA
BRANCH  26  27
ATOM     27  C   UNL     1     150.975 161.162 151.783  0.00  0.00    +0.175 C 
BRANCH  27  28
ATOM     28  C   UNL     1     149.529 161.540 151.502  0.00  0.00    +0.106 C 
BRANCH  28  29
ATOM     29  N   UNL     1     148.624 160.761 152.333  0.00  0.00    -0.328 NA
ATOM     30  H   UNL     1     148.010 160.207 151.738  0.00  0.00    +0.118 HD
ATOM     31  H   UNL     1     148.020 161.386 152.864  0.00  0.00    +0.118 HD
ENDBRANCH  28  29
ENDBRANCH  27  28
ENDBRANCH  26  27
ENDBRANCH  25  26
ENDBRANCH   7  25
TORSDOF 11
ENDMDL
MODEL 7
REMARK VINA RESULT:      -6.3     24.010     25.611
REMARK  Name = 2162
REMARK  14 active torsions:
REMARK  status: ('A' for Active; 'I' for Inactive)
REMARK    1  A    between atoms: O_2  and  C_15
REMARK    2  A    between atoms: O_2  and  C_24
REMARK    3  A    between atoms: O_3  and  C_16
REMARK    4  A    between atoms: O_3  and  C_25
REMARK    5  A    between atoms: O_4  and  C_18
REMARK    6  A    between atoms: O_4  and  C_27
REMARK    7  A    between atoms: N_8  and  C_26
REMARK    8  A    between atoms: C_9  and  C_14
REMARK    9  A    between atoms: C_10  and  C_16
REMARK   10  A    between atoms: C_11  and  C_18
REMARK   11  A    between atoms: C_12  and  C_15
REMARK   12  A    between atoms: C_13  and  C_17
REMARK   13  A    between atoms: C_24  and  C_26
REMARK   14  A    between atoms: C_25  and  C_28
REMARK                            x       y       z     vdW  Elec       q    Type
REMARK                         _______ _______ _______ _____ _____    ______ ____
ROOT
ATOM      1  C   UNL     1     153.527 171.545 130.969  0.00  0.00    +0.097 C 
ATOM      2  C   UNL     1     153.766 171.476 132.481  0.00  0.00    +0.065 C 
ATOM      3  C   UNL     1     152.923 172.076 133.351  0.00  0.00    +0.016 C 
ATOM      4  C   UNL     1     153.035 172.027 134.850  0.00  0.00    +0.061 C 
ATOM      5  N   UNL     1     151.854 172.815 132.869  0.00  0.00    -0.319 N 
ATOM      6  H   UNL     1     151.238 173.244 133.550  0.00  0.00    +0.152 HD
ATOM      7  C   UNL     1     151.612 173.075 131.529  0.00  0.00    +0.045 C 
ATOM      8  C   UNL     1     152.394 172.502 130.586  0.00  0.00    +0.068 C 
ENDROOT
BRANCH   1  15
ATOM      9 CL   UNL     1     155.401 170.420 128.789  0.00  0.00    -0.083 Cl
ATOM     10  C   UNL     1     154.038 169.590 129.446  0.00  0.00    +0.045 A 
ATOM     11  C   UNL     1     153.741 168.312 128.973  0.00  0.00    +0.020 A 
ATOM     12  C   UNL     1     152.646 167.616 129.485  0.00  0.00    +0.001 A 
ATOM     13  C   UNL     1     151.849 168.197 130.471  0.00  0.00    +0.000 A 
ATOM     14  C   UNL     1     152.146 169.475 130.944  0.00  0.00    +0.006 A 
ATOM     15  C   UNL     1     153.241 170.171 130.432  0.00  0.00    -0.017 A 
ENDBRANCH   1  15
BRANCH   2  16
ATOM     16  C   UNL     1     154.978 170.768 132.926  0.00  0.00    +0.337 C 
ATOM     17  O   UNL     1     154.998 169.581 133.197  0.00  0.00    -0.245 OA
BRANCH  16  18
ATOM     18  O   UNL     1     156.000 171.656 132.967  0.00  0.00    -0.465 OA
ATOM     19  C   UNL     1     156.661 171.761 134.232  0.00  0.00    +0.280 C 
ENDBRANCH  16  18
ENDBRANCH   2  16
BRANCH   8  20
ATOM     20  C   UNL     1     152.247 172.811 129.154  0.00  0.00    +0.338 C 
ATOM     21  O   UNL     1     152.939 173.626 128.572  0.00  0.00    -0.245 OA
BRANCH  20  22
ATOM     22  O   UNL     1     151.247 172.048 128.652  0.00  0.00    -0.462 OA
BRANCH  22  23
ATOM     23  C   UNL     1     151.537 171.413 127.402  0.00  0.00    +0.229 C 
ATOM     24  C   UNL     1     150.796 170.096 127.335  0.00  0.00    +0.048 C 
ENDBRANCH  22  23
ENDBRANCH  20  22
ENDBRANCH   8  20
BRANCH   7  25
ATOM     25  C   UNL     1     150.453 173.996 131.260  0.00  0.00    +0.211 C 
BRANCH  25  26
ATOM     26  O   UNL     1     149.461 173.810 132.250  0.00  0.00    -0.373 OA
BRANCH  26  27
ATOM     27  C   UNL     1     149.158 175.023 132.931  0.00  0.00    +0.175 C 
BRANCH  27  28
ATOM     28  C   UNL     1     149.345 174.806 134.424  0.00  0.00    +0.106 C 
BRANCH  28  29
ATOM     29  N   UNL     1     150.739 174.992 134.799  0.00  0.00    -0.328 NA
ATOM     30  H   UNL     1     150.879 175.949 135.121  0.00  0.00    +0.118 HD
ATOM     31  H   UNL     1     151.334 174.875 133.981  0.00  0.00    +0.118 HD
ENDBRANCH  28  29
ENDBRANCH  27  28
ENDBRANCH  26  27
ENDBRANCH  25  26
ENDBRANCH   7  25
TORSDOF 11
ENDMDL
MODEL 8
REMARK VINA RESULT:      -6.2      5.410      9.058
REMARK  Name = 2162
REMARK  14 active torsions:
REMARK  status: ('A' for Active; 'I' for Inactive)
REMARK    1  A    between atoms: O_2  and  C_15
REMARK    2  A    between atoms: O_2  and  C_24
REMARK    3  A    between atoms: O_3  and  C_16
REMARK    4  A    between atoms: O_3  and  C_25
REMARK    5  A    between atoms: O_4  and  C_18
REMARK    6  A    between atoms: O_4  and  C_27
REMARK    7  A    between atoms: N_8  and  C_26
REMARK    8  A    between atoms: C_9  and  C_14
REMARK    9  A    between atoms: C_10  and  C_16
REMARK   10  A    between atoms: C_11  and  C_18
REMARK   11  A    between atoms: C_12  and  C_15
REMARK   12  A    between atoms: C_13  and  C_17
REMARK   13  A    between atoms: C_24  and  C_26
REMARK   14  A    between atoms: C_25  and  C_28
REMARK                            x       y       z     vdW  Elec       q    Type
REMARK                         _______ _______ _______ _____ _____    ______ ____
ROOT
ATOM      1  C   UNL     1     149.921 155.602 148.504  0.00  0.00    +0.097 C 
ATOM      2  C   UNL     1     150.455 154.167 148.444  0.00  0.00    +0.065 C 
ATOM      3  C   UNL     1     151.334 153.708 149.362  0.00  0.00    +0.016 C 
ATOM      4  C   UNL     1     151.879 152.307 149.425  0.00  0.00    +0.061 C 
ATOM      5  N   UNL     1     151.807 154.563 150.345  0.00  0.00    -0.319 N 
ATOM      6  H   UNL     1     152.458 154.182 151.022  0.00  0.00    +0.152 HD
ATOM      7  C   UNL     1     151.515 155.916 150.423  0.00  0.00    +0.045 C 
ATOM      8  C   UNL     1     150.632 156.460 149.556  0.00  0.00    +0.068 C 
ENDROOT
BRANCH   1  15
ATOM      9 CL   UNL     1     148.049 156.761 146.341  0.00  0.00    -0.083 Cl
ATOM     10  C   UNL     1     147.528 156.092 147.844  0.00  0.00    +0.045 A 
ATOM     11  C   UNL     1     146.163 156.061 148.126  0.00  0.00    +0.020 A 
ATOM     12  C   UNL     1     145.711 155.526 149.332  0.00  0.00    +0.001 A 
ATOM     13  C   UNL     1     146.625 155.022 150.257  0.00  0.00    +0.000 A 
ATOM     14  C   UNL     1     147.990 155.053 149.976  0.00  0.00    +0.006 A 
ATOM     15  C   UNL     1     148.442 155.588 148.769  0.00  0.00    -0.017 A 
ENDBRANCH   1  15
BRANCH   2  16
ATOM     16  C   UNL     1     149.998 153.341 147.314  0.00  0.00    +0.337 C 
ATOM     17  O   UNL     1     149.003 152.642 147.355  0.00  0.00    -0.245 OA
BRANCH  16  18
ATOM     18  O   UNL     1     150.864 153.510 146.284  0.00  0.00    -0.465 OA
ATOM     19  C   UNL     1     151.361 152.300 145.706  0.00  0.00    +0.280 C 
ENDBRANCH  16  18
ENDBRANCH   2  16
BRANCH   8  20
ATOM     20  C   UNL     1     150.352 157.905 149.527  0.00  0.00    +0.338 C 
ATOM     21  O   UNL     1     150.800 158.656 148.681  0.00  0.00    -0.245 OA
BRANCH  20  22
ATOM     22  O   UNL     1     149.542 158.205 150.571  0.00  0.00    -0.462 OA
BRANCH  22  23
ATOM     23  C   UNL     1     148.597 159.252 150.324  0.00  0.00    +0.229 C 
ATOM     24  C   UNL     1     147.200 158.720 150.559  0.00  0.00    +0.048 C 
ENDBRANCH  22  23
ENDBRANCH  20  22
ENDBRANCH   8  20
BRANCH   7  25
ATOM     25  C   UNL     1     152.237 156.659 151.515  0.00  0.00    +0.211 C 
BRANCH  25  26
ATOM     26  O   UNL     1     153.260 155.840 152.048  0.00  0.00    -0.373 OA
BRANCH  26  27
ATOM     27  C   UNL     1     153.390 156.006 153.456  0.00  0.00    +0.175 C 
BRANCH  27  28
ATOM     28  C   UNL     1     153.350 154.636 154.115  0.00  0.00    +0.106 C 
BRANCH  28  29
ATOM     29  N   UNL     1     154.224 154.599 155.278  0.00  0.00    -0.328 NA
ATOM     30  H   UNL     1     153.805 155.141 156.033  0.00  0.00    +0.118 HD
ATOM     31  H   UNL     1     155.109 155.052 155.057  0.00  0.00    +0.118 HD
ENDBRANCH  28  29
ENDBRANCH  27  28
ENDBRANCH  26  27
ENDBRANCH  25  26
ENDBRANCH   7  25
TORSDOF 11
ENDMDL
MODEL 9
REMARK VINA RESULT:      -6.2      8.029     10.808
REMARK  Name = 2162
REMARK  14 active torsions:
REMARK  status: ('A' for Active; 'I' for Inactive)
REMARK    1  A    between atoms: O_2  and  C_15
REMARK    2  A    between atoms: O_2  and  C_24
REMARK    3  A    between atoms: O_3  and  C_16
REMARK    4  A    between atoms: O_3  and  C_25
REMARK    5  A    between atoms: O_4  and  C_18
REMARK    6  A    between atoms: O_4  and  C_27
REMARK    7  A    between atoms: N_8  and  C_26
REMARK    8  A    between atoms: C_9  and  C_14
REMARK    9  A    between atoms: C_10  and  C_16
REMARK   10  A    between atoms: C_11  and  C_18
REMARK   11  A    between atoms: C_12  and  C_15
REMARK   12  A    between atoms: C_13  and  C_17
REMARK   13  A    between atoms: C_24  and  C_26
REMARK   14  A    between atoms: C_25  and  C_28
REMARK                            x       y       z     vdW  Elec       q    Type
REMARK                         _______ _______ _______ _____ _____    ______ ____
ROOT
ATOM      1  C   UNL     1     150.604 156.583 149.716  0.00  0.00    +0.097 C 
ATOM      2  C   UNL     1     149.239 156.212 150.303  0.00  0.00    +0.065 C 
ATOM      3  C   UNL     1     149.086 155.122 151.089  0.00  0.00    +0.016 C 
ATOM      4  C   UNL     1     147.806 154.699 151.755  0.00  0.00    +0.061 C 
ATOM      5  N   UNL     1     150.171 154.293 151.325  0.00  0.00    -0.319 N 
ATOM      6  H   UNL     1     150.022 153.490 151.926  0.00  0.00    +0.152 HD
ATOM      7  C   UNL     1     151.419 154.435 150.740  0.00  0.00    +0.045 C 
ATOM      8  C   UNL     1     151.668 155.506 149.951  0.00  0.00    +0.068 C 
ENDROOT
BRANCH   1  15
ATOM      9 CL   UNL     1     150.681 159.033 147.840  0.00  0.00    -0.083 Cl
ATOM     10  C   UNL     1     151.132 159.049 149.506  0.00  0.00    +0.045 A 
ATOM     11  C   UNL     1     151.567 160.247 150.070  0.00  0.00    +0.020 A 
ATOM     12  C   UNL     1     151.938 160.291 151.414  0.00  0.00    +0.001 A 
ATOM     13  C   UNL     1     151.874 159.136 152.194  0.00  0.00    +0.000 A 
ATOM     14  C   UNL     1     151.439 157.938 151.629  0.00  0.00    +0.006 A 
ATOM     15  C   UNL     1     151.068 157.894 150.285  0.00  0.00    -0.017 A 
ENDBRANCH   1  15
BRANCH   2  16
ATOM     16  C   UNL     1     148.104 157.071 149.927  0.00  0.00    +0.337 C 
ATOM     17  O   UNL     1     147.731 158.018 150.595  0.00  0.00    -0.245 OA
BRANCH  16  18
ATOM     18  O   UNL     1     147.593 156.617 148.756  0.00  0.00    -0.465 OA
ATOM     19  C   UNL     1     147.186 157.635 147.837  0.00  0.00    +0.280 C 
ENDBRANCH  16  18
ENDBRANCH   2  16
BRANCH   8  20
ATOM     20  C   UNL     1     152.940 155.665 149.227  0.00  0.00    +0.338 C 
ATOM     21  O   UNL     1     153.072 155.411 148.044  0.00  0.00    -0.245 OA
BRANCH  20  22
ATOM     22  O   UNL     1     153.872 156.126 150.095  0.00  0.00    -0.462 OA
BRANCH  22  23
ATOM     23  C   UNL     1     154.912 156.913 149.507  0.00  0.00    +0.229 C 
ATOM     24  C   UNL     1     154.896 158.294 150.126  0.00  0.00    +0.048 C 
ENDBRANCH  22  23
ENDBRANCH  20  22
ENDBRANCH   8  20
BRANCH   7  25
ATOM     25  C   UNL     1     152.402 153.344 151.066  0.00  0.00    +0.211 C 
BRANCH  25  26
ATOM     26  O   UNL     1     152.629 153.314 152.461  0.00  0.00    -0.373 OA
BRANCH  26  27
ATOM     27  C   UNL     1     153.753 154.106 152.832  0.00  0.00    +0.175 C 
BRANCH  27  28
ATOM     28  C   UNL     1     153.367 154.978 154.017  0.00  0.00    +0.106 C 
BRANCH  28  29
ATOM     29  N   UNL     1     154.119 154.596 155.202  0.00  0.00    -0.328 NA
ATOM     30  H   UNL     1     155.080 154.382 154.939  0.00  0.00    +0.118 HD
ATOM     31  H   UNL     1     153.732 153.739 155.594  0.00  0.00    +0.118 HD
ENDBRANCH  28  29
ENDBRANCH  27  28
ENDBRANCH  26  27
ENDBRANCH  25  26
ENDBRANCH   7  25
TORSDOF 11
ENDMDL
MODEL 10
REMARK VINA RESULT:      -6.2      4.706      8.532
REMARK  Name = 2162
REMARK  14 active torsions:
REMARK  status: ('A' for Active; 'I' for Inactive)
REMARK    1  A    between atoms: O_2  and  C_15
REMARK    2  A    between atoms: O_2  and  C_24
REMARK    3  A    between atoms: O_3  and  C_16
REMARK    4  A    between atoms: O_3  and  C_25
REMARK    5  A    between atoms: O_4  and  C_18
REMARK    6  A    between atoms: O_4  and  C_27
REMARK    7  A    between atoms: N_8  and  C_26
REMARK    8  A    between atoms: C_9  and  C_14
REMARK    9  A    between atoms: C_10  and  C_16
REMARK   10  A    between atoms: C_11  and  C_18
REMARK   11  A    between atoms: C_12  and  C_15
REMARK   12  A    between atoms: C_13  and  C_17
REMARK   13  A    between atoms: C_24  and  C_26
REMARK   14  A    between atoms: C_25  and  C_28
REMARK                            x       y       z     vdW  Elec       q    Type
REMARK                         _______ _______ _______ _____ _____    ______ ____
ROOT
ATOM      1  C   UNL     1     149.430 154.309 148.407  0.00  0.00    +0.097 C 
ATOM      2  C   UNL     1     148.359 154.499 149.486  0.00  0.00    +0.065 C 
ATOM      3  C   UNL     1     148.687 154.549 150.797  0.00  0.00    +0.016 C 
ATOM      4  C   UNL     1     147.724 154.784 151.929  0.00  0.00    +0.061 C 
ATOM      5  N   UNL     1     150.007 154.369 151.180  0.00  0.00    -0.319 N 
ATOM      6  H   UNL     1     150.216 154.422 152.170  0.00  0.00    +0.152 HD
ATOM      7  C   UNL     1     151.043 154.047 150.318  0.00  0.00    +0.045 C 
ATOM      8  C   UNL     1     150.813 153.991 148.987  0.00  0.00    +0.068 C 
ENDROOT
BRANCH   1  15
ATOM      9 CL   UNL     1     148.631 154.034 145.439  0.00  0.00    -0.083 Cl
ATOM     10  C   UNL     1     149.164 155.495 146.188  0.00  0.00    +0.045 A 
ATOM     11  C   UNL     1     149.248 156.652 145.415  0.00  0.00    +0.020 A 
ATOM     12  C   UNL     1     149.675 157.847 145.993  0.00  0.00    +0.001 A 
ATOM     13  C   UNL     1     150.017 157.885 147.344  0.00  0.00    +0.000 A 
ATOM     14  C   UNL     1     149.934 156.728 148.117  0.00  0.00    +0.006 A 
ATOM     15  C   UNL     1     149.507 155.533 147.540  0.00  0.00    -0.017 A 
ENDBRANCH   1  15
BRANCH   2  16
ATOM     16  C   UNL     1     146.963 154.575 149.024  0.00  0.00    +0.337 C 
ATOM     17  O   UNL     1     146.320 153.602 148.673  0.00  0.00    -0.245 OA
BRANCH  16  18
ATOM     18  O   UNL     1     146.569 155.871 149.067  0.00  0.00    -0.465 OA
ATOM     19  C   UNL     1     145.950 156.356 147.872  0.00  0.00    +0.280 C 
ENDBRANCH  16  18
ENDBRANCH   2  16
BRANCH   8  20
ATOM     20  C   UNL     1     151.847 153.564 148.030  0.00  0.00    +0.338 C 
ATOM     21  O   UNL     1     152.609 154.338 147.480  0.00  0.00    -0.245 OA
BRANCH  20  22
ATOM     22  O   UNL     1     151.779 152.218 147.899  0.00  0.00    -0.462 OA
BRANCH  22  23
ATOM     23  C   UNL     1     151.371 151.754 146.608  0.00  0.00    +0.229 C 
ATOM     24  C   UNL     1     150.240 150.762 146.776  0.00  0.00    +0.048 C 
ENDBRANCH  22  23
ENDBRANCH  20  22
ENDBRANCH   8  20
BRANCH   7  25
ATOM     25  C   UNL     1     152.368 153.793 150.986  0.00  0.00    +0.211 C 
BRANCH  25  26
ATOM     26  O   UNL     1     152.482 154.608 152.135  0.00  0.00    -0.373 OA
BRANCH  26  27
ATOM     27  C   UNL     1     153.351 154.035 153.107  0.00  0.00    +0.175 C 
BRANCH  27  28
ATOM     28  C   UNL     1     153.200 154.802 154.411  0.00  0.00    +0.106 C 
BRANCH  28  29
ATOM     29  N   UNL     1     154.319 154.529 155.300  0.00  0.00    -0.328 NA
ATOM     30  H   UNL     1     154.819 155.396 155.491  0.00  0.00    +0.118 HD
ATOM     31  H   UNL     1     154.984 153.911 154.837  0.00  0.00    +0.118 HD
ENDBRANCH  28  29
ENDBRANCH  27  28
ENDBRANCH  26  27
ENDBRANCH  25  26
ENDBRANCH   7  25
TORSDOF 11
ENDMDL
