MODEL 1
REMARK VINA RESULT:      -9.9      0.000      0.000
REMARK  16 active torsions:
REMARK  status: ('A' for Active; 'I' for Inactive)
REMARK    1  A    between atoms: O_2  and  C_22 
REMARK    2  A    between atoms: O_2  and  C_26 
REMARK    3  A    between atoms: O_4  and  C_18 
REMARK    4  A    between atoms: O_5  and  C_19 
REMARK    5  A    between atoms: O_6  and  C_25 
REMARK    6  A    between atoms: O_6  and  C_29 
REMARK    7  A    between atoms: O_7  and  C_20 
REMARK    8  A    between atoms: O_8  and  C_21 
REMARK    9  A    between atoms: O_9  and  C_23 
REMARK   10  A    between atoms: O_10  and  C_24 
REMARK   11  A    between atoms: O_13  and  C_35 
REMARK   12  A    between atoms: O_14  and  C_40 
REMARK   13  A    between atoms: O_15  and  C_41 
REMARK   14  A    between atoms: O_16  and  C_43 
REMARK   15  A    between atoms: C_17  and  C_26 
REMARK   16  A    between atoms: C_30  and  C_33 
ROOT
HETATM    1  O   UNK     0      17.800  26.329  74.286  0.00  0.00    -0.348 OA
HETATM    2  C   UNK     0      18.147  26.087  75.651  0.00  0.00     0.180 C 
HETATM    3  C   UNK     0      17.025  26.576  76.570  0.00  0.00     0.180 C 
HETATM    4  C   UNK     0      16.720  28.053  76.315  0.00  0.00     0.183 C 
HETATM    5  C   UNK     0      16.529  28.329  74.823  0.00  0.00     0.205 C 
HETATM    6  C   UNK     0      17.660  27.718  73.996  0.00  0.00     0.298 C 
ENDROOT
BRANCH   2   7
HETATM    7  C   UNK     0      18.391  24.589  75.804  0.00  0.00     0.205 C 
BRANCH   7   8
HETATM    8  O   UNK     0      19.421  24.194  74.910  0.00  0.00    -0.356 OA
BRANCH   8   9
HETATM    9  C   UNK     0      20.707  24.336  75.503  0.00  0.00     0.291 C 
HETATM   10  O   UNK     0      21.480  25.372  74.888  0.00  0.00    -0.351 OA
HETATM   11  C   UNK     0      21.806  25.125  73.517  0.00  0.00     0.152 C 
HETATM   12  C   UNK     0      22.610  23.827  73.367  0.00  0.00     0.178 C 
HETATM   13  C   UNK     0      22.584  26.340  73.017  0.00  0.00     0.042 C 
HETATM   14  C   UNK     0      21.856  22.664  74.012  0.00  0.00     0.183 C 
HETATM   15  C   UNK     0      21.451  23.003  75.448  0.00  0.00     0.204 C 
BRANCH  12  16
HETATM   16  O   UNK     0      22.801  23.520  71.987  0.00  0.00    -0.390 OA
HETATM   17  H   UNK     0      22.537  22.595  71.847  0.00  0.00     0.210 HD
ENDBRANCH  12  16
BRANCH  14  18
HETATM   18  O   UNK     0      22.685  21.504  74.003  0.00  0.00    -0.390 OA
HETATM   19  H   UNK     0      23.598  21.790  74.182  0.00  0.00     0.210 HD
ENDBRANCH  14  18
BRANCH  15  20
HETATM   20  O   UNK     0      22.615  23.121  76.267  0.00  0.00    -0.388 OA
HETATM   21  H   UNK     0      22.543  23.939  76.788  0.00  0.00     0.210 HD
ENDBRANCH  15  20
ENDBRANCH   8   9
ENDBRANCH   7   8
ENDBRANCH   2   7
BRANCH   6  22
HETATM   22  O   UNK     0      17.339  27.892  72.616  0.00  0.00    -0.311 OA
BRANCH  22  23
HETATM   23  C   UNK     0      18.473  27.949  71.835  0.00  0.00     0.157 A 
HETATM   24  C   UNK     0      19.088  29.101  71.517  0.00  0.00     0.124 A 
HETATM   25  O   UNK     0      20.210  29.196  70.707  0.00  0.00    -0.306 OA
HETATM   26  C   UNK     0      20.754  28.042  70.205  0.00  0.00     0.096 A 
HETATM   27  C   UNK     0      20.221  26.782  70.464  0.00  0.00     0.084 A 
HETATM   28  C   UNK     0      21.888  28.169  69.402  0.00  0.00     0.075 A 
HETATM   29  C   UNK     0      19.023  26.675  71.311  0.00  0.00     0.223 A 
HETATM   30  C   UNK     0      20.817  25.638  69.923  0.00  0.00     0.085 A 
HETATM   31  O   UNK     0      18.507  25.596  71.568  0.00  0.00    -0.284 OA
HETATM   32  C   UNK     0      21.951  25.769  69.121  0.00  0.00     0.074 A 
HETATM   33  C   UNK     0      22.486  27.031  68.861  0.00  0.00     0.071 A 
BRANCH  24  34
HETATM   34  C   UNK     0      18.608  30.413  71.987  0.00  0.00     0.004 A 
HETATM   35  C   UNK     0      17.482  30.994  71.403  0.00  0.00     0.053 A 
HETATM   36  C   UNK     0      17.026  32.234  71.849  0.00  0.00     0.099 A 
HETATM   37  C   UNK     0      17.696  32.894  72.879  0.00  0.00     0.098 A 
HETATM   38  C   UNK     0      18.822  32.313  73.463  0.00  0.00     0.040 A 
HETATM   39  C   UNK     0      19.277  31.073  73.018  0.00  0.00     0.017 A 
BRANCH  36  40
HETATM   40  O   UNK     0      15.927  32.793  71.269  0.00  0.00    -0.358 OA
HETATM   41  H   UNK     0      15.812  33.701  71.594  0.00  0.00     0.217 HD
ENDBRANCH  36  40
BRANCH  37  42
HETATM   42  O   UNK     0      17.260  34.106  73.324  0.00  0.00    -0.358 OA
HETATM   43  H   UNK     0      16.312  34.058  73.528  0.00  0.00     0.217 HD
ENDBRANCH  37  42
ENDBRANCH  24  34
BRANCH  30  44
HETATM   44  O   UNK     0      20.336  24.385  70.145  0.00  0.00    -0.360 OA
HETATM   45  H   UNK     0      19.377  24.427  70.304  0.00  0.00     0.217 HD
ENDBRANCH  30  44
BRANCH  33  46
HETATM   46  O   UNK     0      23.592  27.152  68.078  0.00  0.00    -0.361 OA
HETATM   47  H   UNK     0      23.343  26.989  67.152  0.00  0.00     0.217 HD
ENDBRANCH  33  46
ENDBRANCH  22  23
ENDBRANCH   6  22
BRANCH   3  48
HETATM   48  O   UNK     0      17.421  26.406  77.928  0.00  0.00    -0.390 OA
HETATM   49  H   UNK     0      16.847  25.729  78.326  0.00  0.00     0.210 HD
ENDBRANCH   3  48
BRANCH   5  50
HETATM   50  O   UNK     0      16.520  29.738  74.599  0.00  0.00    -0.388 OA
HETATM   51  H   UNK     0      16.999  29.915  73.772  0.00  0.00     0.210 HD
ENDBRANCH   5  50
BRANCH   4  52
HETATM   52  O   UNK     0      15.519  28.383  77.017  0.00  0.00    -0.390 OA
HETATM   53  H   UNK     0      15.418  27.739  77.739  0.00  0.00     0.210 HD
ENDBRANCH   4  52
TORSDOF 16
ENDMDL
MODEL 2
REMARK VINA RESULT:      -9.8      3.129      5.998
REMARK  16 active torsions:
REMARK  status: ('A' for Active; 'I' for Inactive)
REMARK    1  A    between atoms: O_2  and  C_22 
REMARK    2  A    between atoms: O_2  and  C_26 
REMARK    3  A    between atoms: O_4  and  C_18 
REMARK    4  A    between atoms: O_5  and  C_19 
REMARK    5  A    between atoms: O_6  and  C_25 
REMARK    6  A    between atoms: O_6  and  C_29 
REMARK    7  A    between atoms: O_7  and  C_20 
REMARK    8  A    between atoms: O_8  and  C_21 
REMARK    9  A    between atoms: O_9  and  C_23 
REMARK   10  A    between atoms: O_10  and  C_24 
REMARK   11  A    between atoms: O_13  and  C_35 
REMARK   12  A    between atoms: O_14  and  C_40 
REMARK   13  A    between atoms: O_15  and  C_41 
REMARK   14  A    between atoms: O_16  and  C_43 
REMARK   15  A    between atoms: C_17  and  C_26 
REMARK   16  A    between atoms: C_30  and  C_33 
ROOT
HETATM    1  O   UNK     0      20.847  30.072  71.945  0.00  0.00    -0.348 OA
HETATM    2  C   UNK     0      22.167  29.892  72.462  0.00  0.00     0.180 C 
HETATM    3  C   UNK     0      23.198  30.144  71.360  0.00  0.00     0.180 C 
HETATM    4  C   UNK     0      22.934  29.244  70.153  0.00  0.00     0.183 C 
HETATM    5  C   UNK     0      21.469  29.310  69.723  0.00  0.00     0.205 C 
HETATM    6  C   UNK     0      20.531  29.134  70.918  0.00  0.00     0.298 C 
ENDROOT
BRANCH   2   7
HETATM    7  C   UNK     0      22.338  30.860  73.629  0.00  0.00     0.205 C 
BRANCH   7   8
HETATM    8  O   UNK     0      23.150  30.250  74.621  0.00  0.00    -0.356 OA
BRANCH   8   9
HETATM    9  C   UNK     0      22.543  29.069  75.137  0.00  0.00     0.291 C 
HETATM   10  O   UNK     0      21.632  29.347  76.205  0.00  0.00    -0.351 OA
HETATM   11  C   UNK     0      22.247  29.903  77.371  0.00  0.00     0.152 C 
HETATM   12  C   UNK     0      23.315  28.956  77.936  0.00  0.00     0.178 C 
HETATM   13  C   UNK     0      21.132  30.173  78.379  0.00  0.00     0.042 C 
HETATM   14  C   UNK     0      24.328  28.597  76.849  0.00  0.00     0.183 C 
HETATM   15  C   UNK     0      23.624  28.089  75.590  0.00  0.00     0.204 C 
BRANCH  12  16
HETATM   16  O   UNK     0      24.017  29.584  79.007  0.00  0.00    -0.390 OA
HETATM   17  H   UNK     0      23.789  29.117  79.828  0.00  0.00     0.210 HD
ENDBRANCH  12  16
BRANCH  14  18
HETATM   18  O   UNK     0      25.216  27.598  77.345  0.00  0.00    -0.390 OA
HETATM   19  H   UNK     0      26.084  27.739  76.928  0.00  0.00     0.210 HD
ENDBRANCH  14  18
BRANCH  15  20
HETATM   20  O   UNK     0      22.990  26.837  75.858  0.00  0.00    -0.388 OA
HETATM   21  H   UNK     0      23.672  26.143  75.865  0.00  0.00     0.210 HD
ENDBRANCH  15  20
ENDBRANCH   8   9
ENDBRANCH   7   8
ENDBRANCH   2   7
BRANCH   6  22
HETATM   22  O   UNK     0      19.195  29.350  70.464  0.00  0.00    -0.311 OA
BRANCH  22  23
HETATM   23  C   UNK     0      18.292  28.574  71.157  0.00  0.00     0.157 A 
HETATM   24  C   UNK     0      17.359  29.088  71.978  0.00  0.00     0.124 A 
HETATM   25  O   UNK     0      16.458  28.334  72.714  0.00  0.00    -0.306 OA
HETATM   26  C   UNK     0      16.494  26.969  72.592  0.00  0.00     0.096 A 
HETATM   27  C   UNK     0      17.404  26.308  71.770  0.00  0.00     0.084 A 
HETATM   28  C   UNK     0      15.568  26.238  73.338  0.00  0.00     0.075 A 
HETATM   29  C   UNK     0      18.372  27.102  70.997  0.00  0.00     0.223 A 
HETATM   30  C   UNK     0      17.396  24.913  71.687  0.00  0.00     0.085 A 
HETATM   31  O   UNK     0      19.198  26.576  70.263  0.00  0.00    -0.284 OA
HETATM   32  C   UNK     0      16.468  24.185  72.434  0.00  0.00     0.074 A 
HETATM   33  C   UNK     0      15.556  24.846  73.257  0.00  0.00     0.071 A 
BRANCH  24  34
HETATM   34  C   UNK     0      17.212  30.537  72.201  0.00  0.00     0.004 A 
HETATM   35  C   UNK     0      18.011  31.182  73.146  0.00  0.00     0.053 A 
HETATM   36  C   UNK     0      17.874  32.554  73.356  0.00  0.00     0.099 A 
HETATM   37  C   UNK     0      16.936  33.282  72.623  0.00  0.00     0.098 A 
HETATM   38  C   UNK     0      16.137  32.637  71.679  0.00  0.00     0.040 A 
HETATM   39  C   UNK     0      16.276  31.266  71.468  0.00  0.00     0.017 A 
BRANCH  36  40
HETATM   40  O   UNK     0      18.658  33.172  74.283  0.00  0.00    -0.358 OA
HETATM   41  H   UNK     0      18.724  34.119  74.077  0.00  0.00     0.217 HD
ENDBRANCH  36  40
BRANCH  37  42
HETATM   42  O   UNK     0      16.793  34.622  72.820  0.00  0.00    -0.358 OA
HETATM   43  H   UNK     0      15.874  34.822  73.055  0.00  0.00     0.217 HD
ENDBRANCH  37  42
ENDBRANCH  24  34
BRANCH  30  44
HETATM   44  O   UNK     0      18.263  24.219  70.900  0.00  0.00    -0.360 OA
HETATM   45  H   UNK     0      17.946  23.306  70.793  0.00  0.00     0.217 HD
ENDBRANCH  30  44
BRANCH  33  46
HETATM   46  O   UNK     0      14.654  24.131  73.983  0.00  0.00    -0.361 OA
HETATM   47  H   UNK     0      13.911  24.711  74.222  0.00  0.00     0.217 HD
ENDBRANCH  33  46
ENDBRANCH  22  23
ENDBRANCH   6  22
BRANCH   3  48
HETATM   48  O   UNK     0      24.504  29.880  71.867  0.00  0.00    -0.390 OA
HETATM   49  H   UNK     0      25.015  30.706  71.827  0.00  0.00     0.210 HD
ENDBRANCH   3  48
BRANCH   5  50
HETATM   50  O   UNK     0      21.201  28.266  68.787  0.00  0.00    -0.388 OA
HETATM   51  H   UNK     0      21.612  28.508  67.940  0.00  0.00     0.210 HD
ENDBRANCH   5  50
BRANCH   4  52
HETATM   52  O   UNK     0      23.765  29.690  69.079  0.00  0.00    -0.390 OA
HETATM   53  H   UNK     0      23.432  29.279  68.264  0.00  0.00     0.210 HD
ENDBRANCH   4  52
TORSDOF 16
ENDMDL
MODEL 3
REMARK VINA RESULT:      -9.6      2.412      5.681
REMARK  16 active torsions:
REMARK  status: ('A' for Active; 'I' for Inactive)
REMARK    1  A    between atoms: O_2  and  C_22 
REMARK    2  A    between atoms: O_2  and  C_26 
REMARK    3  A    between atoms: O_4  and  C_18 
REMARK    4  A    between atoms: O_5  and  C_19 
REMARK    5  A    between atoms: O_6  and  C_25 
REMARK    6  A    between atoms: O_6  and  C_29 
REMARK    7  A    between atoms: O_7  and  C_20 
REMARK    8  A    between atoms: O_8  and  C_21 
REMARK    9  A    between atoms: O_9  and  C_23 
REMARK   10  A    between atoms: O_10  and  C_24 
REMARK   11  A    between atoms: O_13  and  C_35 
REMARK   12  A    between atoms: O_14  and  C_40 
REMARK   13  A    between atoms: O_15  and  C_41 
REMARK   14  A    between atoms: O_16  and  C_43 
REMARK   15  A    between atoms: C_17  and  C_26 
REMARK   16  A    between atoms: C_30  and  C_33 
ROOT
HETATM    1  O   UNK     0      19.542  26.548  72.157  0.00  0.00    -0.348 OA
HETATM    2  C   UNK     0      18.643  25.497  72.517  0.00  0.00     0.180 C 
HETATM    3  C   UNK     0      18.868  24.284  71.610  0.00  0.00     0.180 C 
HETATM    4  C   UNK     0      18.726  24.673  70.139  0.00  0.00     0.183 C 
HETATM    5  C   UNK     0      19.557  25.914  69.811  0.00  0.00     0.205 C 
HETATM    6  C   UNK     0      19.319  27.027  70.832  0.00  0.00     0.298 C 
ENDROOT
BRANCH   2   7
HETATM    7  C   UNK     0      18.894  25.160  73.984  0.00  0.00     0.205 C 
BRANCH   7   8
HETATM    8  O   UNK     0      19.995  24.267  74.071  0.00  0.00    -0.356 OA
BRANCH   8   9
HETATM    9  C   UNK     0      21.050  24.817  74.853  0.00  0.00     0.291 C 
HETATM   10  O   UNK     0      22.134  25.293  74.048  0.00  0.00    -0.351 OA
HETATM   11  C   UNK     0      22.808  24.270  73.308  0.00  0.00     0.152 C 
HETATM   12  C   UNK     0      23.390  23.203  74.246  0.00  0.00     0.178 C 
HETATM   13  C   UNK     0      23.893  24.958  72.482  0.00  0.00     0.042 C 
HETATM   14  C   UNK     0      22.293  22.648  75.155  0.00  0.00     0.183 C 
HETATM   15  C   UNK     0      21.541  23.778  75.860  0.00  0.00     0.204 C 
BRANCH  12  16
HETATM   16  O   UNK     0      23.930  22.121  73.490  0.00  0.00    -0.390 OA
HETATM   17  H   UNK     0      23.186  21.600  73.143  0.00  0.00     0.210 HD
ENDBRANCH  12  16
BRANCH  14  18
HETATM   18  O   UNK     0      22.879  21.778  76.121  0.00  0.00    -0.390 OA
HETATM   19  H   UNK     0      23.799  22.064  76.258  0.00  0.00     0.210 HD
ENDBRANCH  14  18
BRANCH  15  20
HETATM   20  O   UNK     0      22.410  24.441  76.780  0.00  0.00    -0.388 OA
HETATM   21  H   UNK     0      23.166  23.857  76.964  0.00  0.00     0.210 HD
ENDBRANCH  15  20
ENDBRANCH   8   9
ENDBRANCH   7   8
ENDBRANCH   2   7
BRANCH   6  22
HETATM   22  O   UNK     0      20.228  28.089  70.545  0.00  0.00    -0.311 OA
BRANCH  22  23
HETATM   23  C   UNK     0      19.859  29.256  71.176  0.00  0.00     0.157 A 
HETATM   24  C   UNK     0      20.690  29.957  71.968  0.00  0.00     0.124 A 
HETATM   25  O   UNK     0      20.342  31.117  72.643  0.00  0.00    -0.306 OA
HETATM   26  C   UNK     0      19.071  31.608  72.487  0.00  0.00     0.096 A 
HETATM   27  C   UNK     0      18.114  30.985  71.689  0.00  0.00     0.084 A 
HETATM   28  C   UNK     0      18.753  32.782  73.171  0.00  0.00     0.075 A 
HETATM   29  C   UNK     0      18.474  29.747  70.981  0.00  0.00     0.223 A 
HETATM   30  C   UNK     0      16.833  31.531  71.568  0.00  0.00     0.085 A 
HETATM   31  O   UNK     0      17.673  29.154  70.271  0.00  0.00    -0.284 OA
HETATM   32  C   UNK     0      16.518  32.705  72.253  0.00  0.00     0.074 A 
HETATM   33  C   UNK     0      17.476  33.330  73.052  0.00  0.00     0.071 A 
BRANCH  24  34
HETATM   34  C   UNK     0      22.081  29.541  72.224  0.00  0.00     0.004 A 
HETATM   35  C   UNK     0      22.387  28.790  73.359  0.00  0.00     0.053 A 
HETATM   36  C   UNK     0      23.702  28.394  73.600  0.00  0.00     0.099 A 
HETATM   37  C   UNK     0      24.712  28.749  72.707  0.00  0.00     0.098 A 
HETATM   38  C   UNK     0      24.407  29.501  71.572  0.00  0.00     0.040 A 
HETATM   39  C   UNK     0      23.091  29.895  71.331  0.00  0.00     0.017 A 
BRANCH  36  40
HETATM   40  O   UNK     0      23.989  27.662  74.714  0.00  0.00    -0.358 OA
HETATM   41  H   UNK     0      24.173  26.743  74.462  0.00  0.00     0.217 HD
ENDBRANCH  36  40
BRANCH  37  42
HETATM   42  O   UNK     0      26.001  28.368  72.932  0.00  0.00    -0.358 OA
HETATM   43  H   UNK     0      26.465  28.270  72.086  0.00  0.00     0.217 HD
ENDBRANCH  37  42
ENDBRANCH  24  34
BRANCH  30  44
HETATM   44  O   UNK     0      15.862  30.962  70.802  0.00  0.00    -0.360 OA
HETATM   45  H   UNK     0      15.939  29.993  70.845  0.00  0.00     0.217 HD
ENDBRANCH  30  44
BRANCH  33  46
HETATM   46  O   UNK     0      17.163  34.475  73.719  0.00  0.00    -0.361 OA
HETATM   47  H   UNK     0      16.196  34.564  73.758  0.00  0.00     0.217 HD
ENDBRANCH  33  46
ENDBRANCH  22  23
ENDBRANCH   6  22
BRANCH   3  48
HETATM   48  O   UNK     0      17.911  23.276  71.925  0.00  0.00    -0.390 OA
HETATM   49  H   UNK     0      18.391  22.449  72.100  0.00  0.00     0.210 HD
ENDBRANCH   3  48
BRANCH   5  50
HETATM   50  O   UNK     0      19.190  26.403  68.522  0.00  0.00    -0.388 OA
HETATM   51  H   UNK     0      18.468  27.044  68.636  0.00  0.00     0.210 HD
ENDBRANCH   5  50
BRANCH   4  52
HETATM   52  O   UNK     0      19.180  23.574  69.346  0.00  0.00    -0.390 OA
HETATM   53  H   UNK     0      20.055  23.315  69.682  0.00  0.00     0.210 HD
ENDBRANCH   4  52
TORSDOF 16
ENDMDL
MODEL 4
REMARK VINA RESULT:      -9.6      2.557      5.783
REMARK  16 active torsions:
REMARK  status: ('A' for Active; 'I' for Inactive)
REMARK    1  A    between atoms: O_2  and  C_22 
REMARK    2  A    between atoms: O_2  and  C_26 
REMARK    3  A    between atoms: O_4  and  C_18 
REMARK    4  A    between atoms: O_5  and  C_19 
REMARK    5  A    between atoms: O_6  and  C_25 
REMARK    6  A    between atoms: O_6  and  C_29 
REMARK    7  A    between atoms: O_7  and  C_20 
REMARK    8  A    between atoms: O_8  and  C_21 
REMARK    9  A    between atoms: O_9  and  C_23 
REMARK   10  A    between atoms: O_10  and  C_24 
REMARK   11  A    between atoms: O_13  and  C_35 
REMARK   12  A    between atoms: O_14  and  C_40 
REMARK   13  A    between atoms: O_15  and  C_41 
REMARK   14  A    between atoms: O_16  and  C_43 
REMARK   15  A    between atoms: C_17  and  C_26 
REMARK   16  A    between atoms: C_30  and  C_33 
ROOT
HETATM    1  O   UNK     0      18.372  30.969  73.348  0.00  0.00    -0.348 OA
HETATM    2  C   UNK     0      19.058  32.222  73.294  0.00  0.00     0.180 C 
HETATM    3  C   UNK     0      18.049  33.372  73.352  0.00  0.00     0.180 C 
HETATM    4  C   UNK     0      17.015  33.243  72.233  0.00  0.00     0.183 C 
HETATM    5  C   UNK     0      16.420  31.835  72.189  0.00  0.00     0.205 C 
HETATM    6  C   UNK     0      17.514  30.768  72.226  0.00  0.00     0.298 C 
ENDROOT
BRANCH   2   7
HETATM    7  C   UNK     0      20.030  32.263  74.470  0.00  0.00     0.205 C 
BRANCH   7   8
HETATM    8  O   UNK     0      21.333  31.949  74.003  0.00  0.00    -0.356 OA
BRANCH   8   9
HETATM    9  C   UNK     0      21.426  30.588  73.595  0.00  0.00     0.291 C 
HETATM   10  O   UNK     0      21.949  29.744  74.625  0.00  0.00    -0.351 OA
HETATM   11  C   UNK     0      23.299  30.039  74.997  0.00  0.00     0.152 C 
HETATM   12  C   UNK     0      24.244  29.905  73.795  0.00  0.00     0.178 C 
HETATM   13  C   UNK     0      23.671  29.081  76.126  0.00  0.00     0.042 C 
HETATM   14  C   UNK     0      23.748  30.773  72.637  0.00  0.00     0.183 C 
HETATM   15  C   UNK     0      22.277  30.486  72.330  0.00  0.00     0.204 C 
BRANCH  12  16
HETATM   16  O   UNK     0      25.555  30.342  74.146  0.00  0.00    -0.390 OA
HETATM   17  H   UNK     0      26.176  29.627  73.929  0.00  0.00     0.210 HD
ENDBRANCH  12  16
BRANCH  14  18
HETATM   18  O   UNK     0      24.545  30.515  71.483  0.00  0.00    -0.390 OA
HETATM   19  H   UNK     0      25.081  31.309  71.309  0.00  0.00     0.210 HD
ENDBRANCH  14  18
BRANCH  15  20
HETATM   20  O   UNK     0      22.136  29.161  71.816  0.00  0.00    -0.388 OA
HETATM   21  H   UNK     0      21.449  28.704  72.331  0.00  0.00     0.210 HD
ENDBRANCH  15  20
ENDBRANCH   8   9
ENDBRANCH   7   8
ENDBRANCH   2   7
BRANCH   6  22
HETATM   22  O   UNK     0      16.881  29.493  72.327  0.00  0.00    -0.311 OA
BRANCH  22  23
HETATM   23  C   UNK     0      17.738  28.473  71.977  0.00  0.00     0.157 A 
HETATM   24  C   UNK     0      18.040  27.452  72.799  0.00  0.00     0.124 A 
HETATM   25  O   UNK     0      18.922  26.427  72.491  0.00  0.00    -0.306 OA
HETATM   26  C   UNK     0      19.522  26.430  71.258  0.00  0.00     0.096 A 
HETATM   27  C   UNK     0      19.291  27.423  70.308  0.00  0.00     0.084 A 
HETATM   28  C   UNK     0      20.397  25.381  70.973  0.00  0.00     0.075 A 
HETATM   29  C   UNK     0      18.367  28.520  70.635  0.00  0.00     0.223 A 
HETATM   30  C   UNK     0      19.933  27.375  69.067  0.00  0.00     0.085 A 
HETATM   31  O   UNK     0      18.130  29.422  69.843  0.00  0.00    -0.284 OA
HETATM   32  C   UNK     0      20.807  26.325  68.785  0.00  0.00     0.074 A 
HETATM   33  C   UNK     0      21.038  25.330  69.735  0.00  0.00     0.071 A 
BRANCH  24  34
HETATM   34  C   UNK     0      17.467  27.328  74.152  0.00  0.00     0.004 A 
HETATM   35  C   UNK     0      18.056  28.001  75.223  0.00  0.00     0.053 A 
HETATM   36  C   UNK     0      17.514  27.886  76.502  0.00  0.00     0.099 A 
HETATM   37  C   UNK     0      16.383  27.097  76.712  0.00  0.00     0.098 A 
HETATM   38  C   UNK     0      15.795  26.423  75.642  0.00  0.00     0.040 A 
HETATM   39  C   UNK     0      16.336  26.539  74.362  0.00  0.00     0.017 A 
BRANCH  36  40
HETATM   40  O   UNK     0      18.099  28.547  77.541  0.00  0.00    -0.358 OA
HETATM   41  H   UNK     0      17.414  28.959  78.093  0.00  0.00     0.217 HD
ENDBRANCH  36  40
BRANCH  37  42
HETATM   42  O   UNK     0      15.844  26.977  77.958  0.00  0.00    -0.358 OA
HETATM   43  H   UNK     0      14.986  26.528  77.901  0.00  0.00     0.217 HD
ENDBRANCH  37  42
ENDBRANCH  24  34
BRANCH  30  44
HETATM   44  O   UNK     0      19.743  28.320  68.106  0.00  0.00    -0.360 OA
HETATM   45  H   UNK     0      19.408  27.897  67.296  0.00  0.00     0.217 HD
ENDBRANCH  30  44
BRANCH  33  46
HETATM   46  O   UNK     0      21.892  24.307  69.456  0.00  0.00    -0.361 OA
HETATM   47  H   UNK     0      21.430  23.651  68.907  0.00  0.00     0.217 HD
ENDBRANCH  33  46
ENDBRANCH  22  23
ENDBRANCH   6  22
BRANCH   3  48
HETATM   48  O   UNK     0      18.740  34.611  73.214  0.00  0.00    -0.390 OA
HETATM   49  H   UNK     0      19.664  34.416  72.985  0.00  0.00     0.210 HD
ENDBRANCH   3  48
BRANCH   5  50
HETATM   50  O   UNK     0      15.677  31.672  70.981  0.00  0.00    -0.388 OA
HETATM   51  H   UNK     0      15.288  30.782  70.985  0.00  0.00     0.210 HD
ENDBRANCH   5  50
BRANCH   4  52
HETATM   52  O   UNK     0      15.975  34.191  72.482  0.00  0.00    -0.390 OA
HETATM   53  H   UNK     0      15.409  34.216  71.692  0.00  0.00     0.210 HD
ENDBRANCH   4  52
TORSDOF 16
ENDMDL
MODEL 5
REMARK VINA RESULT:      -9.5      2.634      7.096
REMARK  16 active torsions:
REMARK  status: ('A' for Active; 'I' for Inactive)
REMARK    1  A    between atoms: O_2  and  C_22 
REMARK    2  A    between atoms: O_2  and  C_26 
REMARK    3  A    between atoms: O_4  and  C_18 
REMARK    4  A    between atoms: O_5  and  C_19 
REMARK    5  A    between atoms: O_6  and  C_25 
REMARK    6  A    between atoms: O_6  and  C_29 
REMARK    7  A    between atoms: O_7  and  C_20 
REMARK    8  A    between atoms: O_8  and  C_21 
REMARK    9  A    between atoms: O_9  and  C_23 
REMARK   10  A    between atoms: O_10  and  C_24 
REMARK   11  A    between atoms: O_13  and  C_35 
REMARK   12  A    between atoms: O_14  and  C_40 
REMARK   13  A    between atoms: O_15  and  C_41 
REMARK   14  A    between atoms: O_16  and  C_43 
REMARK   15  A    between atoms: C_17  and  C_26 
REMARK   16  A    between atoms: C_30  and  C_33 
ROOT
HETATM    1  O   UNK     0      22.328  27.718  74.663  0.00  0.00    -0.348 OA
HETATM    2  C   UNK     0      23.662  28.095  74.317  0.00  0.00     0.180 C 
HETATM    3  C   UNK     0      24.531  28.157  75.575  0.00  0.00     0.180 C 
HETATM    4  C   UNK     0      23.922  29.107  76.608  0.00  0.00     0.183 C 
HETATM    5  C   UNK     0      22.441  28.804  76.833  0.00  0.00     0.205 C 
HETATM    6  C   UNK     0      21.692  28.675  75.507  0.00  0.00     0.298 C 
ENDROOT
BRANCH   2   7
HETATM    7  C   UNK     0      24.185  27.066  73.319  0.00  0.00     0.205 C 
BRANCH   7   8
HETATM    8  O   UNK     0      24.117  27.613  72.011  0.00  0.00    -0.356 OA
BRANCH   8   9
HETATM    9  C   UNK     0      22.786  27.595  71.507  0.00  0.00     0.291 C 
HETATM   10  O   UNK     0      22.628  26.683  70.416  0.00  0.00    -0.351 OA
HETATM   11  C   UNK     0      23.385  27.025  69.251  0.00  0.00     0.152 C 
HETATM   12  C   UNK     0      22.993  28.413  68.726  0.00  0.00     0.178 C 
HETATM   13  C   UNK     0      23.133  25.930  68.217  0.00  0.00     0.042 C 
HETATM   14  C   UNK     0      23.123  29.452  69.840  0.00  0.00     0.183 C 
HETATM   15  C   UNK     0      22.370  29.006  71.095  0.00  0.00     0.204 C 
BRANCH  12  16
HETATM   16  O   UNK     0      23.855  28.799  67.658  0.00  0.00    -0.390 OA
HETATM   17  H   UNK     0      23.436  29.540  67.189  0.00  0.00     0.210 HD
ENDBRANCH  12  16
BRANCH  14  18
HETATM   18  O   UNK     0      22.606  30.699  69.382  0.00  0.00    -0.390 OA
HETATM   19  H   UNK     0      23.224  31.397  69.662  0.00  0.00     0.210 HD
ENDBRANCH  14  18
BRANCH  15  20
HETATM   20  O   UNK     0      20.965  28.989  70.840  0.00  0.00    -0.388 OA
HETATM   21  H   UNK     0      20.504  28.786  71.672  0.00  0.00     0.210 HD
ENDBRANCH  15  20
ENDBRANCH   8   9
ENDBRANCH   7   8
ENDBRANCH   2   7
BRANCH   6  22
HETATM   22  O   UNK     0      20.359  28.254  75.794  0.00  0.00    -0.311 OA
BRANCH  22  23
HETATM   23  C   UNK     0      19.471  28.692  74.836  0.00  0.00     0.157 A 
HETATM   24  C   UNK     0      18.858  27.866  73.969  0.00  0.00     0.124 A 
HETATM   25  O   UNK     0      17.986  28.278  72.973  0.00  0.00    -0.306 OA
HETATM   26  C   UNK     0      17.702  29.615  72.864  0.00  0.00     0.096 A 
HETATM   27  C   UNK     0      18.260  30.576  73.703  0.00  0.00     0.084 A 
HETATM   28  C   UNK     0      16.812  29.997  71.859  0.00  0.00     0.075 A 
HETATM   29  C   UNK     0      19.197  30.147  74.753  0.00  0.00     0.223 A 
HETATM   30  C   UNK     0      17.935  31.926  73.545  0.00  0.00     0.085 A 
HETATM   31  O   UNK     0      19.723  30.947  75.516  0.00  0.00    -0.284 OA
HETATM   32  C   UNK     0      17.045  32.305  72.539  0.00  0.00     0.074 A 
HETATM   33  C   UNK     0      16.485  31.343  71.698  0.00  0.00     0.071 A 
BRANCH  24  34
HETATM   34  C   UNK     0      19.076  26.409  73.974  0.00  0.00     0.004 A 
HETATM   35  C   UNK     0      19.882  25.820  73.000  0.00  0.00     0.053 A 
HETATM   36  C   UNK     0      20.090  24.441  73.006  0.00  0.00     0.099 A 
HETATM   37  C   UNK     0      19.491  23.649  73.986  0.00  0.00     0.098 A 
HETATM   38  C   UNK     0      18.684  24.238  74.960  0.00  0.00     0.040 A 
HETATM   39  C   UNK     0      18.478  25.617  74.955  0.00  0.00     0.017 A 
BRANCH  36  40
HETATM   40  O   UNK     0      20.878  23.877  72.047  0.00  0.00    -0.358 OA
HETATM   41  H   UNK     0      20.342  23.667  71.266  0.00  0.00     0.217 HD
ENDBRANCH  36  40
BRANCH  37  42
HETATM   42  O   UNK     0      19.687  22.301  74.002  0.00  0.00    -0.358 OA
HETATM   43  H   UNK     0      19.633  21.974  74.914  0.00  0.00     0.217 HD
ENDBRANCH  37  42
ENDBRANCH  24  34
BRANCH  30  44
HETATM   44  O   UNK     0      18.453  32.904  74.337  0.00  0.00    -0.360 OA
HETATM   45  H   UNK     0      19.057  32.509  74.989  0.00  0.00     0.217 HD
ENDBRANCH  30  44
BRANCH  33  46
HETATM   46  O   UNK     0      15.617  31.718  70.718  0.00  0.00    -0.361 OA
HETATM   47  H   UNK     0      15.111  30.940  70.430  0.00  0.00     0.217 HD
ENDBRANCH  33  46
ENDBRANCH  22  23
ENDBRANCH   6  22
BRANCH   3  48
HETATM   48  O   UNK     0      25.834  28.614  75.226  0.00  0.00    -0.390 OA
HETATM   49  H   UNK     0      25.812  29.585  75.187  0.00  0.00     0.210 HD
ENDBRANCH   3  48
BRANCH   5  50
HETATM   50  O   UNK     0      21.849  29.865  77.581  0.00  0.00    -0.388 OA
HETATM   51  H   UNK     0      22.442  30.634  77.536  0.00  0.00     0.210 HD
ENDBRANCH   5  50
BRANCH   4  52
HETATM   52  O   UNK     0      24.634  28.939  77.835  0.00  0.00    -0.390 OA
HETATM   53  H   UNK     0      24.928  28.013  77.877  0.00  0.00     0.210 HD
ENDBRANCH   4  52
TORSDOF 16
ENDMDL
MODEL 6
REMARK VINA RESULT:      -9.5      2.766      6.092
REMARK  16 active torsions:
REMARK  status: ('A' for Active; 'I' for Inactive)
REMARK    1  A    between atoms: O_2  and  C_22 
REMARK    2  A    between atoms: O_2  and  C_26 
REMARK    3  A    between atoms: O_4  and  C_18 
REMARK    4  A    between atoms: O_5  and  C_19 
REMARK    5  A    between atoms: O_6  and  C_25 
REMARK    6  A    between atoms: O_6  and  C_29 
REMARK    7  A    between atoms: O_7  and  C_20 
REMARK    8  A    between atoms: O_8  and  C_21 
REMARK    9  A    between atoms: O_9  and  C_23 
REMARK   10  A    between atoms: O_10  and  C_24 
REMARK   11  A    between atoms: O_13  and  C_35 
REMARK   12  A    between atoms: O_14  and  C_40 
REMARK   13  A    between atoms: O_15  and  C_41 
REMARK   14  A    between atoms: O_16  and  C_43 
REMARK   15  A    between atoms: C_17  and  C_26 
REMARK   16  A    between atoms: C_30  and  C_33 
ROOT
HETATM    1  O   UNK     0      20.929  30.071  71.697  0.00  0.00    -0.348 OA
HETATM    2  C   UNK     0      22.284  29.936  72.129  0.00  0.00     0.180 C 
HETATM    3  C   UNK     0      23.233  30.162  70.950  0.00  0.00     0.180 C 
HETATM    4  C   UNK     0      22.906  29.208  69.800  0.00  0.00     0.183 C 
HETATM    5  C   UNK     0      21.413  29.231  69.470  0.00  0.00     0.205 C 
HETATM    6  C   UNK     0      20.563  29.087  70.732  0.00  0.00     0.298 C 
ENDROOT
BRANCH   2   7
HETATM    7  C   UNK     0      22.514  30.954  73.242  0.00  0.00     0.205 C 
BRANCH   7   8
HETATM    8  O   UNK     0      21.471  30.836  74.199  0.00  0.00    -0.356 OA
BRANCH   8   9
HETATM    9  C   UNK     0      21.824  29.937  75.246  0.00  0.00     0.291 C 
HETATM   10  O   UNK     0      21.560  28.573  74.905  0.00  0.00    -0.351 OA
HETATM   11  C   UNK     0      20.174  28.275  74.708  0.00  0.00     0.152 C 
HETATM   12  C   UNK     0      19.359  28.581  75.973  0.00  0.00     0.178 C 
HETATM   13  C   UNK     0      20.085  26.803  74.313  0.00  0.00     0.042 C 
HETATM   14  C   UNK     0      19.596  30.025  76.414  0.00  0.00     0.183 C 
HETATM   15  C   UNK     0      21.091  30.325  76.529  0.00  0.00     0.204 C 
BRANCH  12  16
HETATM   16  O   UNK     0      17.967  28.418  75.715  0.00  0.00    -0.390 OA
HETATM   17  H   UNK     0      17.566  29.303  75.672  0.00  0.00     0.210 HD
ENDBRANCH  12  16
BRANCH  14  18
HETATM   18  O   UNK     0      18.959  30.243  77.672  0.00  0.00    -0.390 OA
HETATM   19  H   UNK     0      18.134  29.728  77.679  0.00  0.00     0.210 HD
ENDBRANCH  14  18
BRANCH  15  20
HETATM   20  O   UNK     0      21.659  29.570  77.600  0.00  0.00    -0.388 OA
HETATM   21  H   UNK     0      22.233  30.158  78.120  0.00  0.00     0.210 HD
ENDBRANCH  15  20
ENDBRANCH   8   9
ENDBRANCH   7   8
ENDBRANCH   2   7
BRANCH   6  22
HETATM   22  O   UNK     0      19.195  29.261  70.362  0.00  0.00    -0.311 OA
BRANCH  22  23
HETATM   23  C   UNK     0      18.358  28.489  71.138  0.00  0.00     0.157 A 
HETATM   24  C   UNK     0      17.500  29.009  72.033  0.00  0.00     0.124 A 
HETATM   25  O   UNK     0      16.668  28.261  72.852  0.00  0.00    -0.306 OA
HETATM   26  C   UNK     0      16.696  26.895  72.739  0.00  0.00     0.096 A 
HETATM   27  C   UNK     0      17.532  26.228  71.846  0.00  0.00     0.084 A 
HETATM   28  C   UNK     0      15.841  26.169  73.569  0.00  0.00     0.075 A 
HETATM   29  C   UNK     0      18.426  27.016  70.984  0.00  0.00     0.223 A 
HETATM   30  C   UNK     0      17.519  24.832  71.775  0.00  0.00     0.085 A 
HETATM   31  O   UNK     0      19.186  26.485  70.185  0.00  0.00    -0.284 OA
HETATM   32  C   UNK     0      16.662  24.109  72.607  0.00  0.00     0.074 A 
HETATM   33  C   UNK     0      15.825  24.776  73.501  0.00  0.00     0.071 A 
BRANCH  24  34
HETATM   34  C   UNK     0      17.370  30.460  72.257  0.00  0.00     0.004 A 
HETATM   35  C   UNK     0      18.190  31.099  73.187  0.00  0.00     0.053 A 
HETATM   36  C   UNK     0      18.069  32.472  73.397  0.00  0.00     0.099 A 
HETATM   37  C   UNK     0      17.127  33.208  72.679  0.00  0.00     0.098 A 
HETATM   38  C   UNK     0      16.306  32.569  71.749  0.00  0.00     0.040 A 
HETATM   39  C   UNK     0      16.428  31.196  71.537  0.00  0.00     0.017 A 
BRANCH  36  40
HETATM   40  O   UNK     0      18.875  33.085  74.310  0.00  0.00    -0.358 OA
HETATM   41  H   UNK     0      19.796  33.052  74.006  0.00  0.00     0.217 HD
ENDBRANCH  36  40
BRANCH  37  42
HETATM   42  O   UNK     0      17.000  34.549  72.875  0.00  0.00    -0.358 OA
HETATM   43  H   UNK     0      17.123  35.017  72.034  0.00  0.00     0.217 HD
ENDBRANCH  37  42
ENDBRANCH  24  34
BRANCH  30  44
HETATM   44  O   UNK     0      18.316  24.132  70.921  0.00  0.00    -0.360 OA
HETATM   45  H   UNK     0      17.914  24.125  70.035  0.00  0.00     0.217 HD
ENDBRANCH  30  44
BRANCH  33  46
HETATM   46  O   UNK     0      14.991  24.066  74.310  0.00  0.00    -0.361 OA
HETATM   47  H   UNK     0      14.139  24.531  74.371  0.00  0.00     0.217 HD
ENDBRANCH  33  46
ENDBRANCH  22  23
ENDBRANCH   6  22
BRANCH   3  48
HETATM   48  O   UNK     0      24.575  29.942  71.376  0.00  0.00    -0.390 OA
HETATM   49  H   UNK     0      24.637  30.192  72.314  0.00  0.00     0.210 HD
ENDBRANCH   3  48
BRANCH   5  50
HETATM   50  O   UNK     0      21.105  28.145  68.596  0.00  0.00    -0.388 OA
HETATM   51  H   UNK     0      21.773  28.127  67.890  0.00  0.00     0.210 HD
ENDBRANCH   5  50
BRANCH   4  52
HETATM   52  O   UNK     0      23.653  29.624  68.655  0.00  0.00    -0.390 OA
HETATM   53  H   UNK     0      23.633  28.894  68.014  0.00  0.00     0.210 HD
ENDBRANCH   4  52
TORSDOF 16
ENDMDL
MODEL 7
REMARK VINA RESULT:      -9.4      2.404      6.411
REMARK  16 active torsions:
REMARK  status: ('A' for Active; 'I' for Inactive)
REMARK    1  A    between atoms: O_2  and  C_22 
REMARK    2  A    between atoms: O_2  and  C_26 
REMARK    3  A    between atoms: O_4  and  C_18 
REMARK    4  A    between atoms: O_5  and  C_19 
REMARK    5  A    between atoms: O_6  and  C_25 
REMARK    6  A    between atoms: O_6  and  C_29 
REMARK    7  A    between atoms: O_7  and  C_20 
REMARK    8  A    between atoms: O_8  and  C_21 
REMARK    9  A    between atoms: O_9  and  C_23 
REMARK   10  A    between atoms: O_10  and  C_24 
REMARK   11  A    between atoms: O_13  and  C_35 
REMARK   12  A    between atoms: O_14  and  C_40 
REMARK   13  A    between atoms: O_15  and  C_41 
REMARK   14  A    between atoms: O_16  and  C_43 
REMARK   15  A    between atoms: C_17  and  C_26 
REMARK   16  A    between atoms: C_30  and  C_33 
ROOT
HETATM    1  O   UNK     0      19.831  26.339  72.374  0.00  0.00    -0.348 OA
HETATM    2  C   UNK     0      19.007  25.281  72.866  0.00  0.00     0.180 C 
HETATM    3  C   UNK     0      19.016  24.111  71.880  0.00  0.00     0.180 C 
HETATM    4  C   UNK     0      18.578  24.571  70.489  0.00  0.00     0.183 C 
HETATM    5  C   UNK     0      19.345  25.819  70.051  0.00  0.00     0.205 C 
HETATM    6  C   UNK     0      19.347  26.884  71.148  0.00  0.00     0.298 C 
ENDROOT
BRANCH   2   7
HETATM    7  C   UNK     0      19.553  24.873  74.232  0.00  0.00     0.205 C 
BRANCH   7   8
HETATM    8  O   UNK     0      18.989  25.716  75.225  0.00  0.00    -0.356 OA
BRANCH   8   9
HETATM    9  C   UNK     0      19.992  26.250  76.085  0.00  0.00     0.291 C 
HETATM   10  O   UNK     0      19.803  25.863  77.449  0.00  0.00    -0.351 OA
HETATM   11  C   UNK     0      18.601  26.367  78.040  0.00  0.00     0.152 C 
HETATM   12  C   UNK     0      18.571  27.902  78.008  0.00  0.00     0.178 C 
HETATM   13  C   UNK     0      18.543  25.825  79.466  0.00  0.00     0.042 C 
HETATM   14  C   UNK     0      18.780  28.401  76.577  0.00  0.00     0.183 C 
HETATM   15  C   UNK     0      20.027  27.771  75.954  0.00  0.00     0.204 C 
BRANCH  12  16
HETATM   16  O   UNK     0      17.309  28.382  78.465  0.00  0.00    -0.390 OA
HETATM   17  H   UNK     0      16.621  28.009  77.888  0.00  0.00     0.210 HD
ENDBRANCH  12  16
BRANCH  14  18
HETATM   18  O   UNK     0      18.907  29.821  76.590  0.00  0.00    -0.390 OA
HETATM   19  H   UNK     0      19.236  30.097  75.716  0.00  0.00     0.210 HD
ENDBRANCH  14  18
BRANCH  15  20
HETATM   20  O   UNK     0      21.197  28.239  76.627  0.00  0.00    -0.388 OA
HETATM   21  H   UNK     0      21.297  29.189  76.444  0.00  0.00     0.210 HD
ENDBRANCH  15  20
ENDBRANCH   8   9
ENDBRANCH   7   8
ENDBRANCH   2   7
BRANCH   6  22
HETATM   22  O   UNK     0      20.196  27.950  70.725  0.00  0.00    -0.311 OA
BRANCH  22  23
HETATM   23  C   UNK     0      19.837  29.146  71.306  0.00  0.00     0.157 A 
HETATM   24  C   UNK     0      20.676  29.877  72.061  0.00  0.00     0.124 A 
HETATM   25  O   UNK     0      20.337  31.068  72.686  0.00  0.00    -0.306 OA
HETATM   26  C   UNK     0      19.067  31.556  72.517  0.00  0.00     0.096 A 
HETATM   27  C   UNK     0      18.102  30.903  71.754  0.00  0.00     0.084 A 
HETATM   28  C   UNK     0      18.759  32.761  73.151  0.00  0.00     0.075 A 
HETATM   29  C   UNK     0      18.452  29.633  71.099  0.00  0.00     0.223 A 
HETATM   30  C   UNK     0      16.822  31.448  71.618  0.00  0.00     0.085 A 
HETATM   31  O   UNK     0      17.644  29.012  70.422  0.00  0.00    -0.284 OA
HETATM   32  C   UNK     0      16.516  32.653  72.252  0.00  0.00     0.074 A 
HETATM   33  C   UNK     0      17.482  33.308  73.017  0.00  0.00     0.071 A 
BRANCH  24  34
HETATM   34  C   UNK     0      22.067  29.467  72.325  0.00  0.00     0.004 A 
HETATM   35  C   UNK     0      23.118  30.084  71.647  0.00  0.00     0.053 A 
HETATM   36  C   UNK     0      24.434  29.697  71.898  0.00  0.00     0.099 A 
HETATM   37  C   UNK     0      24.700  28.691  72.826  0.00  0.00     0.098 A 
HETATM   38  C   UNK     0      23.649  28.072  73.504  0.00  0.00     0.040 A 
HETATM   39  C   UNK     0      22.333  28.461  73.254  0.00  0.00     0.017 A 
BRANCH  36  40
HETATM   40  O   UNK     0      25.452  30.307  71.227  0.00  0.00    -0.358 OA
HETATM   41  H   UNK     0      25.411  31.266  71.374  0.00  0.00     0.217 HD
ENDBRANCH  36  40
BRANCH  37  42
HETATM   42  O   UNK     0      25.981  28.304  73.080  0.00  0.00    -0.358 OA
HETATM   43  H   UNK     0      26.388  27.966  72.267  0.00  0.00     0.217 HD
ENDBRANCH  37  42
ENDBRANCH  24  34
BRANCH  30  44
HETATM   44  O   UNK     0      15.843  30.850  70.885  0.00  0.00    -0.360 OA
HETATM   45  H   UNK     0      15.589  30.010  71.306  0.00  0.00     0.217 HD
ENDBRANCH  30  44
BRANCH  33  46
HETATM   46  O   UNK     0      17.180  34.483  73.634  0.00  0.00    -0.361 OA
HETATM   47  H   UNK     0      17.029  35.165  72.957  0.00  0.00     0.217 HD
ENDBRANCH  33  46
ENDBRANCH  22  23
ENDBRANCH   6  22
BRANCH   3  48
HETATM   48  O   UNK     0      18.126  23.098  72.342  0.00  0.00    -0.390 OA
HETATM   49  H   UNK     0      17.226  23.467  72.345  0.00  0.00     0.210 HD
ENDBRANCH   3  48
BRANCH   5  50
HETATM   50  O   UNK     0      18.728  26.373  68.890  0.00  0.00    -0.388 OA
HETATM   51  H   UNK     0      17.838  26.676  69.138  0.00  0.00     0.210 HD
ENDBRANCH   5  50
BRANCH   4  52
HETATM   52  O   UNK     0      18.836  23.507  69.570  0.00  0.00    -0.390 OA
HETATM   53  H   UNK     0      17.981  23.227  69.203  0.00  0.00     0.210 HD
ENDBRANCH   4  52
TORSDOF 16
ENDMDL
MODEL 8
REMARK VINA RESULT:      -9.4      2.811      4.568
REMARK  16 active torsions:
REMARK  status: ('A' for Active; 'I' for Inactive)
REMARK    1  A    between atoms: O_2  and  C_22 
REMARK    2  A    between atoms: O_2  and  C_26 
REMARK    3  A    between atoms: O_4  and  C_18 
REMARK    4  A    between atoms: O_5  and  C_19 
REMARK    5  A    between atoms: O_6  and  C_25 
REMARK    6  A    between atoms: O_6  and  C_29 
REMARK    7  A    between atoms: O_7  and  C_20 
REMARK    8  A    between atoms: O_8  and  C_21 
REMARK    9  A    between atoms: O_9  and  C_23 
REMARK   10  A    between atoms: O_10  and  C_24 
REMARK   11  A    between atoms: O_13  and  C_35 
REMARK   12  A    between atoms: O_14  and  C_40 
REMARK   13  A    between atoms: O_15  and  C_41 
REMARK   14  A    between atoms: O_16  and  C_43 
REMARK   15  A    between atoms: C_17  and  C_26 
REMARK   16  A    between atoms: C_30  and  C_33 
ROOT
HETATM    1  O   UNK     0      18.787  26.946  74.882  0.00  0.00    -0.348 OA
HETATM    2  C   UNK     0      18.512  25.562  74.663  0.00  0.00     0.180 C 
HETATM    3  C   UNK     0      17.014  25.359  74.422  0.00  0.00     0.180 C 
HETATM    4  C   UNK     0      16.197  25.923  75.584  0.00  0.00     0.183 C 
HETATM    5  C   UNK     0      16.631  27.349  75.926  0.00  0.00     0.205 C 
HETATM    6  C   UNK     0      18.151  27.451  76.054  0.00  0.00     0.298 C 
ENDROOT
BRANCH   2   7
HETATM    7  C   UNK     0      19.343  25.113  73.464  0.00  0.00     0.205 C 
BRANCH   7   8
HETATM    8  O   UNK     0      20.643  25.674  73.567  0.00  0.00    -0.356 OA
BRANCH   8   9
HETATM    9  C   UNK     0      21.612  24.867  72.906  0.00  0.00     0.291 C 
HETATM   10  O   UNK     0      22.010  23.739  73.691  0.00  0.00    -0.351 OA
HETATM   11  C   UNK     0      22.680  24.079  74.909  0.00  0.00     0.152 C 
HETATM   12  C   UNK     0      23.952  24.892  74.629  0.00  0.00     0.178 C 
HETATM   13  C   UNK     0      22.987  22.769  75.630  0.00  0.00     0.042 C 
HETATM   14  C   UNK     0      23.616  26.118  73.779  0.00  0.00     0.183 C 
HETATM   15  C   UNK     0      22.825  25.719  72.533  0.00  0.00     0.204 C 
BRANCH  12  16
HETATM   16  O   UNK     0      24.528  25.345  75.853  0.00  0.00    -0.390 OA
HETATM   17  H   UNK     0      25.382  24.895  75.965  0.00  0.00     0.210 HD
ENDBRANCH  12  16
BRANCH  14  18
HETATM   18  O   UNK     0      24.825  26.771  73.399  0.00  0.00    -0.390 OA
HETATM   19  H   UNK     0      25.549  26.125  73.476  0.00  0.00     0.210 HD
ENDBRANCH  14  18
BRANCH  15  20
HETATM   20  O   UNK     0      23.648  24.944  71.660  0.00  0.00    -0.388 OA
HETATM   21  H   UNK     0      23.402  24.008  71.756  0.00  0.00     0.210 HD
ENDBRANCH  15  20
ENDBRANCH   8   9
ENDBRANCH   7   8
ENDBRANCH   2   7
BRANCH   6  22
HETATM   22  O   UNK     0      18.486  28.827  76.230  0.00  0.00    -0.311 OA
BRANCH  22  23
HETATM   23  C   UNK     0      19.806  29.071  75.922  0.00  0.00     0.157 A 
HETATM   24  C   UNK     0      20.193  29.723  74.811  0.00  0.00     0.124 A 
HETATM   25  O   UNK     0      21.513  29.957  74.456  0.00  0.00    -0.306 OA
HETATM   26  C   UNK     0      22.504  29.515  75.294  0.00  0.00     0.096 A 
HETATM   27  C   UNK     0      22.241  28.834  76.480  0.00  0.00     0.084 A 
HETATM   28  C   UNK     0      23.822  29.774  74.914  0.00  0.00     0.075 A 
HETATM   29  C   UNK     0      20.843  28.572  76.856  0.00  0.00     0.223 A 
HETATM   30  C   UNK     0      23.292  28.406  77.296  0.00  0.00     0.085 A 
HETATM   31  O   UNK     0      20.552  27.973  77.883  0.00  0.00    -0.284 OA
HETATM   32  C   UNK     0      24.609  28.666  76.914  0.00  0.00     0.074 A 
HETATM   33  C   UNK     0      24.873  29.348  75.726  0.00  0.00     0.071 A 
BRANCH  24  34
HETATM   34  C   UNK     0      19.232  30.248  73.825  0.00  0.00     0.004 A 
HETATM   35  C   UNK     0      19.268  29.794  72.506  0.00  0.00     0.053 A 
HETATM   36  C   UNK     0      18.358  30.289  71.573  0.00  0.00     0.099 A 
HETATM   37  C   UNK     0      17.411  31.238  71.957  0.00  0.00     0.098 A 
HETATM   38  C   UNK     0      17.375  31.693  73.275  0.00  0.00     0.040 A 
HETATM   39  C   UNK     0      18.285  31.197  74.209  0.00  0.00     0.017 A 
BRANCH  36  40
HETATM   40  O   UNK     0      18.404  29.839  70.287  0.00  0.00    -0.358 OA
HETATM   41  H   UNK     0      18.729  30.545  69.705  0.00  0.00     0.217 HD
ENDBRANCH  36  40
BRANCH  37  42
HETATM   42  O   UNK     0      16.517  31.729  71.054  0.00  0.00    -0.358 OA
HETATM   43  H   UNK     0      15.613  31.575  71.373  0.00  0.00     0.217 HD
ENDBRANCH  37  42
ENDBRANCH  24  34
BRANCH  30  44
HETATM   44  O   UNK     0      23.090  27.736  78.464  0.00  0.00    -0.360 OA
HETATM   45  H   UNK     0      23.927  27.336  78.758  0.00  0.00     0.217 HD
ENDBRANCH  30  44
BRANCH  33  46
HETATM   46  O   UNK     0      26.159  29.599  75.358  0.00  0.00    -0.361 OA
HETATM   47  H   UNK     0      26.397  29.012  74.620  0.00  0.00     0.217 HD
ENDBRANCH  33  46
ENDBRANCH  22  23
ENDBRANCH   6  22
BRANCH   3  48
HETATM   48  O   UNK     0      16.743  23.966  74.288  0.00  0.00    -0.390 OA
HETATM   49  H   UNK     0      17.590  23.505  74.169  0.00  0.00     0.210 HD
ENDBRANCH   3  48
BRANCH   5  50
HETATM   50  O   UNK     0      16.049  27.736  77.170  0.00  0.00    -0.388 OA
HETATM   51  H   UNK     0      16.502  27.248  77.879  0.00  0.00     0.210 HD
ENDBRANCH   5  50
BRANCH   4  52
HETATM   52  O   UNK     0      14.821  25.925  75.197  0.00  0.00    -0.390 OA
HETATM   53  H   UNK     0      14.354  26.541  75.786  0.00  0.00     0.210 HD
ENDBRANCH   4  52
TORSDOF 16
ENDMDL
MODEL 9
REMARK VINA RESULT:      -9.4     29.592     33.247
REMARK  16 active torsions:
REMARK  status: ('A' for Active; 'I' for Inactive)
REMARK    1  A    between atoms: O_2  and  C_22 
REMARK    2  A    between atoms: O_2  and  C_26 
REMARK    3  A    between atoms: O_4  and  C_18 
REMARK    4  A    between atoms: O_5  and  C_19 
REMARK    5  A    between atoms: O_6  and  C_25 
REMARK    6  A    between atoms: O_6  and  C_29 
REMARK    7  A    between atoms: O_7  and  C_20 
REMARK    8  A    between atoms: O_8  and  C_21 
REMARK    9  A    between atoms: O_9  and  C_23 
REMARK   10  A    between atoms: O_10  and  C_24 
REMARK   11  A    between atoms: O_13  and  C_35 
REMARK   12  A    between atoms: O_14  and  C_40 
REMARK   13  A    between atoms: O_15  and  C_41 
REMARK   14  A    between atoms: O_16  and  C_43 
REMARK   15  A    between atoms: C_17  and  C_26 
REMARK   16  A    between atoms: C_30  and  C_33 
ROOT
HETATM    1  O   UNK     0      19.712  27.147 106.233  0.00  0.00    -0.348 OA
HETATM    2  C   UNK     0      19.898  27.310 107.640  0.00  0.00     0.180 C 
HETATM    3  C   UNK     0      19.271  26.132 108.390  0.00  0.00     0.180 C 
HETATM    4  C   UNK     0      17.794  25.982 108.027  0.00  0.00     0.183 C 
HETATM    5  C   UNK     0      17.592  25.992 106.511  0.00  0.00     0.205 C 
HETATM    6  C   UNK     0      18.335  27.158 105.860  0.00  0.00     0.298 C 
ENDROOT
BRANCH   2   7
HETATM    7  C   UNK     0      21.399  27.408 107.895  0.00  0.00     0.205 C 
BRANCH   7   8
HETATM    8  O   UNK     0      21.770  26.429 108.854  0.00  0.00    -0.356 OA
BRANCH   8   9
HETATM    9  C   UNK     0      23.161  26.132 108.783  0.00  0.00     0.291 C 
HETATM   10  O   UNK     0      23.421  24.725 108.827  0.00  0.00    -0.351 OA
HETATM   11  C   UNK     0      23.041  24.097 110.056  0.00  0.00     0.152 C 
HETATM   12  C   UNK     0      23.783  24.720 111.246  0.00  0.00     0.178 C 
HETATM   13  C   UNK     0      23.347  22.608 109.909  0.00  0.00     0.042 C 
HETATM   14  C   UNK     0      23.566  26.234 111.267  0.00  0.00     0.183 C 
HETATM   15  C   UNK     0      23.901  26.853 109.909  0.00  0.00     0.204 C 
BRANCH  12  16
HETATM   16  O   UNK     0      23.288  24.185 112.472  0.00  0.00    -0.390 OA
HETATM   17  H   UNK     0      22.688  24.842 112.864  0.00  0.00     0.210 HD
ENDBRANCH  12  16
BRANCH  14  18
HETATM   18  O   UNK     0      24.385  26.812 112.280  0.00  0.00    -0.390 OA
HETATM   19  H   UNK     0      24.052  26.507 113.141  0.00  0.00     0.210 HD
ENDBRANCH  14  18
BRANCH  15  20
HETATM   20  O   UNK     0      25.302  26.737 109.653  0.00  0.00    -0.388 OA
HETATM   21  H   UNK     0      25.483  25.832 109.343  0.00  0.00     0.210 HD
ENDBRANCH  15  20
ENDBRANCH   8   9
ENDBRANCH   7   8
ENDBRANCH   2   7
BRANCH   6  22
HETATM   22  O   UNK     0      18.219  27.018 104.444  0.00  0.00    -0.311 OA
BRANCH  22  23
HETATM   23  C   UNK     0      19.448  26.835 103.850  0.00  0.00     0.157 A 
HETATM   24  C   UNK     0      20.197  27.850 103.382  0.00  0.00     0.124 A 
HETATM   25  O   UNK     0      21.422  27.699 102.750  0.00  0.00    -0.306 OA
HETATM   26  C   UNK     0      21.929  26.434 102.602  0.00  0.00     0.096 A 
HETATM   27  C   UNK     0      21.261  25.296 103.049  0.00  0.00     0.084 A 
HETATM   28  C   UNK     0      23.168  26.314 101.972  0.00  0.00     0.075 A 
HETATM   29  C   UNK     0      19.955  25.449 103.708  0.00  0.00     0.223 A 
HETATM   30  C   UNK     0      21.826  24.030 102.870  0.00  0.00     0.085 A 
HETATM   31  O   UNK     0      19.320  24.485 104.116  0.00  0.00    -0.284 OA
HETATM   32  C   UNK     0      23.066  23.913 102.239  0.00  0.00     0.074 A 
HETATM   33  C   UNK     0      23.735  25.053 101.791  0.00  0.00     0.071 A 
BRANCH  24  34
HETATM   34  C   UNK     0      19.769  29.258 103.475  0.00  0.00     0.004 A 
HETATM   35  C   UNK     0      20.018  29.988 104.637  0.00  0.00     0.053 A 
HETATM   36  C   UNK     0      19.616  31.320 104.724  0.00  0.00     0.099 A 
HETATM   37  C   UNK     0      18.961  31.923 103.650  0.00  0.00     0.098 A 
HETATM   38  C   UNK     0      18.711  31.193 102.488  0.00  0.00     0.040 A 
HETATM   39  C   UNK     0      19.115  29.861 102.400  0.00  0.00     0.017 A 
BRANCH  36  40
HETATM   40  O   UNK     0      19.864  32.023 105.865  0.00  0.00    -0.358 OA
HETATM   41  H   UNK     0      19.024  32.298 106.268  0.00  0.00     0.217 HD
ENDBRANCH  36  40
BRANCH  37  42
HETATM   42  O   UNK     0      18.563  33.223 103.723  0.00  0.00    -0.358 OA
HETATM   43  H   UNK     0      19.226  33.793 103.301  0.00  0.00     0.217 HD
ENDBRANCH  37  42
ENDBRANCH  24  34
BRANCH  30  44
HETATM   44  O   UNK     0      21.216  22.887 103.286  0.00  0.00    -0.360 OA
HETATM   45  H   UNK     0      21.412  22.738 104.228  0.00  0.00     0.217 HD
ENDBRANCH  30  44
BRANCH  33  46
HETATM   46  O   UNK     0      24.944  24.934 101.176  0.00  0.00    -0.361 OA
HETATM   47  H   UNK     0      25.327  24.068 101.398  0.00  0.00     0.217 HD
ENDBRANCH  33  46
ENDBRANCH  22  23
ENDBRANCH   6  22
BRANCH   3  48
HETATM   48  O   UNK     0      19.392  26.349 109.793  0.00  0.00    -0.390 OA
HETATM   49  H   UNK     0      19.046  27.236 109.991  0.00  0.00     0.210 HD
ENDBRANCH   3  48
BRANCH   5  50
HETATM   50  O   UNK     0      16.202  26.127 106.219  0.00  0.00    -0.388 OA
HETATM   51  H   UNK     0      15.716  26.139 107.061  0.00  0.00     0.210 HD
ENDBRANCH   5  50
BRANCH   4  52
HETATM   52  O   UNK     0      17.332  24.740 108.560  0.00  0.00    -0.390 OA
HETATM   53  H   UNK     0      16.484  24.910 109.004  0.00  0.00     0.210 HD
ENDBRANCH   4  52
TORSDOF 16
ENDMDL
