MODEL 1
REMARK VINA RESULT:     -10.3      0.000      0.000
REMARK  16 active torsions:
REMARK  status: ('A' for Active; 'I' for Inactive)
REMARK    1  A    between atoms: O_2  and  C_22 
REMARK    2  A    between atoms: O_2  and  C_26 
REMARK    3  A    between atoms: O_4  and  C_18 
REMARK    4  A    between atoms: O_5  and  C_19 
REMARK    5  A    between atoms: O_6  and  C_25 
REMARK    6  A    between atoms: O_6  and  C_29 
REMARK    7  A    between atoms: O_7  and  C_20 
REMARK    8  A    between atoms: O_8  and  C_21 
REMARK    9  A    between atoms: O_9  and  C_23 
REMARK   10  A    between atoms: O_10  and  C_24 
REMARK   11  A    between atoms: O_13  and  C_35 
REMARK   12  A    between atoms: O_14  and  C_40 
REMARK   13  A    between atoms: O_15  and  C_41 
REMARK   14  A    between atoms: O_16  and  C_43 
REMARK   15  A    between atoms: C_17  and  C_26 
REMARK   16  A    between atoms: C_30  and  C_33 
ROOT
HETATM    1  O   UNK     0      24.818  40.199  11.178  0.00  0.00    -0.348 OA
HETATM    2  C   UNK     0      26.156  40.701  11.211  0.00  0.00     0.180 C 
HETATM    3  C   UNK     0      26.635  41.003   9.789  0.00  0.00     0.180 C 
HETATM    4  C   UNK     0      26.515  39.764   8.902  0.00  0.00     0.183 C 
HETATM    5  C   UNK     0      25.128  39.132   9.018  0.00  0.00     0.205 C 
HETATM    6  C   UNK     0      24.717  38.960  10.481  0.00  0.00     0.298 C 
ENDROOT
BRANCH   2   7
HETATM    7  C   UNK     0      26.155  41.951  12.085  0.00  0.00     0.205 C 
BRANCH   7   8
HETATM    8  O   UNK     0      26.246  43.098  11.253  0.00  0.00    -0.356 OA
BRANCH   8   9
HETATM    9  C   UNK     0      25.602  44.222  11.842  0.00  0.00     0.291 C 
HETATM   10  O   UNK     0      24.198  44.255  11.564  0.00  0.00    -0.351 OA
HETATM   11  C   UNK     0      23.879  44.418  10.178  0.00  0.00     0.152 C 
HETATM   12  C   UNK     0      24.470  45.723   9.626  0.00  0.00     0.178 C 
HETATM   13  C   UNK     0      22.357  44.386  10.063  0.00  0.00     0.042 C 
HETATM   14  C   UNK     0      25.974  45.774   9.895  0.00  0.00     0.183 C 
HETATM   15  C   UNK     0      26.276  45.510  11.371  0.00  0.00     0.204 C 
BRANCH  12  16
HETATM   16  O   UNK     0      24.269  45.799   8.216  0.00  0.00    -0.390 OA
HETATM   17  H   UNK     0      25.112  45.586   7.783  0.00  0.00     0.210 HD
ENDBRANCH  12  16
BRANCH  14  18
HETATM   18  O   UNK     0      26.475  47.055   9.519  0.00  0.00    -0.390 OA
HETATM   19  H   UNK     0      27.203  46.916   8.888  0.00  0.00     0.210 HD
ENDBRANCH  14  18
BRANCH  15  20
HETATM   20  O   UNK     0      25.774  46.581  12.171  0.00  0.00    -0.388 OA
HETATM   21  H   UNK     0      25.149  46.214  12.819  0.00  0.00     0.210 HD
ENDBRANCH  15  20
ENDBRANCH   8   9
ENDBRANCH   7   8
ENDBRANCH   2   7
BRANCH   6  22
HETATM   22  O   UNK     0      23.365  38.502  10.507  0.00  0.00    -0.311 OA
BRANCH  22  23
HETATM   23  C   UNK     0      23.230  37.366  11.274  0.00  0.00     0.157 A 
HETATM   24  C   UNK     0      23.048  37.396  12.606  0.00  0.00     0.124 A 
HETATM   25  O   UNK     0      22.940  36.272  13.411  0.00  0.00    -0.306 OA
HETATM   26  C   UNK     0      23.002  35.036  12.820  0.00  0.00     0.096 A 
HETATM   27  C   UNK     0      23.179  34.863  11.450  0.00  0.00     0.084 A 
HETATM   28  C   UNK     0      22.881  33.925  13.655  0.00  0.00     0.075 A 
HETATM   29  C   UNK     0      23.307  36.051  10.592  0.00  0.00     0.223 A 
HETATM   30  C   UNK     0      23.236  33.578  10.902  0.00  0.00     0.085 A 
HETATM   31  O   UNK     0      23.470  35.960   9.383  0.00  0.00    -0.284 OA
HETATM   32  C   UNK     0      23.114  32.468  11.740  0.00  0.00     0.074 A 
HETATM   33  C   UNK     0      22.936  32.641  13.113  0.00  0.00     0.071 A 
BRANCH  24  34
HETATM   34  C   UNK     0      22.966  38.656  13.366  0.00  0.00     0.004 A 
HETATM   35  C   UNK     0      24.042  39.069  14.151  0.00  0.00     0.053 A 
HETATM   36  C   UNK     0      23.966  40.262  14.868  0.00  0.00     0.099 A 
HETATM   37  C   UNK     0      22.812  41.043  14.803  0.00  0.00     0.098 A 
HETATM   38  C   UNK     0      21.735  40.630  14.019  0.00  0.00     0.040 A 
HETATM   39  C   UNK     0      21.812  39.437  13.300  0.00  0.00     0.017 A 
BRANCH  36  40
HETATM   40  O   UNK     0      25.024  40.654  15.633  0.00  0.00    -0.358 OA
HETATM   41  H   UNK     0      24.711  40.911  16.516  0.00  0.00     0.217 HD
ENDBRANCH  36  40
BRANCH  37  42
HETATM   42  O   UNK     0      22.726  42.210  15.499  0.00  0.00    -0.358 OA
HETATM   43  H   UNK     0      21.928  42.693  15.231  0.00  0.00     0.217 HD
ENDBRANCH  37  42
ENDBRANCH  24  34
BRANCH  30  44
HETATM   44  O   UNK     0      23.408  33.353   9.571  0.00  0.00    -0.360 OA
HETATM   45  H   UNK     0      22.541  33.336   9.129  0.00  0.00     0.217 HD
ENDBRANCH  30  44
BRANCH  33  46
HETATM   46  O   UNK     0      22.818  31.555  13.925  0.00  0.00    -0.361 OA
HETATM   47  H   UNK     0      23.637  31.032  13.875  0.00  0.00     0.217 HD
ENDBRANCH  33  46
ENDBRANCH  22  23
ENDBRANCH   6  22
BRANCH   3  48
HETATM   48  O   UNK     0      27.996  41.423   9.830  0.00  0.00    -0.390 OA
HETATM   49  H   UNK     0      28.429  40.968  10.572  0.00  0.00     0.210 HD
ENDBRANCH   3  48
BRANCH   5  50
HETATM   50  O   UNK     0      25.141  37.845   8.402  0.00  0.00    -0.388 OA
HETATM   51  H   UNK     0      25.969  37.400   8.649  0.00  0.00     0.210 HD
ENDBRANCH   5  50
BRANCH   4  52
HETATM   52  O   UNK     0      26.741  40.167   7.549  0.00  0.00    -0.390 OA
HETATM   53  H   UNK     0      25.877  40.391   7.163  0.00  0.00     0.210 HD
ENDBRANCH   4  52
TORSDOF 16
ENDMDL
MODEL 2
REMARK VINA RESULT:     -10.2      1.730      3.029
REMARK  16 active torsions:
REMARK  status: ('A' for Active; 'I' for Inactive)
REMARK    1  A    between atoms: O_2  and  C_22 
REMARK    2  A    between atoms: O_2  and  C_26 
REMARK    3  A    between atoms: O_4  and  C_18 
REMARK    4  A    between atoms: O_5  and  C_19 
REMARK    5  A    between atoms: O_6  and  C_25 
REMARK    6  A    between atoms: O_6  and  C_29 
REMARK    7  A    between atoms: O_7  and  C_20 
REMARK    8  A    between atoms: O_8  and  C_21 
REMARK    9  A    between atoms: O_9  and  C_23 
REMARK   10  A    between atoms: O_10  and  C_24 
REMARK   11  A    between atoms: O_13  and  C_35 
REMARK   12  A    between atoms: O_14  and  C_40 
REMARK   13  A    between atoms: O_15  and  C_41 
REMARK   14  A    between atoms: O_16  and  C_43 
REMARK   15  A    between atoms: C_17  and  C_26 
REMARK   16  A    between atoms: C_30  and  C_33 
ROOT
HETATM    1  O   UNK     0      23.982  40.559  11.077  0.00  0.00    -0.348 OA
HETATM    2  C   UNK     0      25.118  41.352  11.428  0.00  0.00     0.180 C 
HETATM    3  C   UNK     0      26.112  41.382  10.265  0.00  0.00     0.180 C 
HETATM    4  C   UNK     0      26.514  39.964   9.858  0.00  0.00     0.183 C 
HETATM    5  C   UNK     0      25.285  39.075   9.662  0.00  0.00     0.205 C 
HETATM    6  C   UNK     0      24.321  39.194  10.842  0.00  0.00     0.298 C 
ENDROOT
BRANCH   2   7
HETATM    7  C   UNK     0      24.612  42.749  11.776  0.00  0.00     0.205 C 
BRANCH   7   8
HETATM    8  O   UNK     0      25.453  43.310  12.772  0.00  0.00    -0.356 OA
BRANCH   8   9
HETATM    9  C   UNK     0      24.821  44.401  13.433  0.00  0.00     0.291 C 
HETATM   10  O   UNK     0      25.732  45.465  13.724  0.00  0.00    -0.351 OA
HETATM   11  C   UNK     0      26.768  45.114  14.647  0.00  0.00     0.152 C 
HETATM   12  C   UNK     0      26.179  44.658  15.989  0.00  0.00     0.178 C 
HETATM   13  C   UNK     0      27.662  46.342  14.804  0.00  0.00     0.042 C 
HETATM   14  C   UNK     0      25.179  43.523  15.766  0.00  0.00     0.183 C 
HETATM   15  C   UNK     0      24.141  43.908  14.710  0.00  0.00     0.204 C 
BRANCH  12  16
HETATM   16  O   UNK     0      27.213  44.175  16.844  0.00  0.00    -0.390 OA
HETATM   17  H   UNK     0      27.010  43.251  17.066  0.00  0.00     0.210 HD
ENDBRANCH  12  16
BRANCH  14  18
HETATM   18  O   UNK     0      24.528  43.221  16.998  0.00  0.00    -0.390 OA
HETATM   19  H   UNK     0      25.085  42.584  17.479  0.00  0.00     0.210 HD
ENDBRANCH  14  18
BRANCH  15  20
HETATM   20  O   UNK     0      23.316  44.966  15.200  0.00  0.00    -0.388 OA
HETATM   21  H   UNK     0      23.878  45.590  15.692  0.00  0.00     0.210 HD
ENDBRANCH  15  20
ENDBRANCH   8   9
ENDBRANCH   7   8
ENDBRANCH   2   7
BRANCH   6  22
HETATM   22  O   UNK     0      23.143  38.454  10.523  0.00  0.00    -0.311 OA
BRANCH  22  23
HETATM   23  C   UNK     0      23.041  37.310  11.285  0.00  0.00     0.157 A 
HETATM   24  C   UNK     0      22.800  37.328  12.608  0.00  0.00     0.124 A 
HETATM   25  O   UNK     0      22.724  36.198  13.409  0.00  0.00    -0.306 OA
HETATM   26  C   UNK     0      22.883  34.969  12.823  0.00  0.00     0.096 A 
HETATM   27  C   UNK     0      23.128  34.808  11.461  0.00  0.00     0.084 A 
HETATM   28  C   UNK     0      22.791  33.851  13.652  0.00  0.00     0.075 A 
HETATM   29  C   UNK     0      23.224  36.004  10.608  0.00  0.00     0.223 A 
HETATM   30  C   UNK     0      23.283  33.530  10.918  0.00  0.00     0.085 A 
HETATM   31  O   UNK     0      23.443  35.924   9.407  0.00  0.00    -0.284 OA
HETATM   32  C   UNK     0      23.191  32.413  11.750  0.00  0.00     0.074 A 
HETATM   33  C   UNK     0      22.944  32.573  13.114  0.00  0.00     0.071 A 
BRANCH  24  34
HETATM   34  C   UNK     0      22.612  38.580  13.363  0.00  0.00     0.004 A 
HETATM   35  C   UNK     0      23.527  38.943  14.352  0.00  0.00     0.053 A 
HETATM   36  C   UNK     0      23.350  40.128  15.065  0.00  0.00     0.099 A 
HETATM   37  C   UNK     0      22.258  40.951  14.790  0.00  0.00     0.098 A 
HETATM   38  C   UNK     0      21.343  40.588  13.802  0.00  0.00     0.040 A 
HETATM   39  C   UNK     0      21.520  39.404  13.088  0.00  0.00     0.017 A 
BRANCH  36  40
HETATM   40  O   UNK     0      24.250  40.471  16.030  0.00  0.00    -0.358 OA
HETATM   41  H   UNK     0      23.781  40.831  16.800  0.00  0.00     0.217 HD
ENDBRANCH  36  40
BRANCH  37  42
HETATM   42  O   UNK     0      22.076  42.111  15.480  0.00  0.00    -0.358 OA
HETATM   43  H   UNK     0      21.809  42.817  14.869  0.00  0.00     0.217 HD
ENDBRANCH  37  42
ENDBRANCH  24  34
BRANCH  30  44
HETATM   44  O   UNK     0      23.525  33.318   9.595  0.00  0.00    -0.360 OA
HETATM   45  H   UNK     0      24.403  32.912   9.486  0.00  0.00     0.217 HD
ENDBRANCH  30  44
BRANCH  33  46
HETATM   46  O   UNK     0      22.855  31.481  13.922  0.00  0.00    -0.361 OA
HETATM   47  H   UNK     0      23.663  31.420  14.460  0.00  0.00     0.217 HD
ENDBRANCH  33  46
ENDBRANCH  22  23
ENDBRANCH   6  22
BRANCH   3  48
HETATM   48  O   UNK     0      27.275  42.106  10.658  0.00  0.00    -0.390 OA
HETATM   49  H   UNK     0      27.982  41.464  10.840  0.00  0.00     0.210 HD
ENDBRANCH   3  48
BRANCH   5  50
HETATM   50  O   UNK     0      25.698  37.713   9.556  0.00  0.00    -0.388 OA
HETATM   51  H   UNK     0      26.668  37.695   9.505  0.00  0.00     0.210 HD
ENDBRANCH   5  50
BRANCH   4  52
HETATM   52  O   UNK     0      27.241  40.047   8.630  0.00  0.00    -0.390 OA
HETATM   53  H   UNK     0      27.259  40.982   8.365  0.00  0.00     0.210 HD
ENDBRANCH   4  52
TORSDOF 16
ENDMDL
MODEL 3
REMARK VINA RESULT:     -10.2      2.759      6.804
REMARK  16 active torsions:
REMARK  status: ('A' for Active; 'I' for Inactive)
REMARK    1  A    between atoms: O_2  and  C_22 
REMARK    2  A    between atoms: O_2  and  C_26 
REMARK    3  A    between atoms: O_4  and  C_18 
REMARK    4  A    between atoms: O_5  and  C_19 
REMARK    5  A    between atoms: O_6  and  C_25 
REMARK    6  A    between atoms: O_6  and  C_29 
REMARK    7  A    between atoms: O_7  and  C_20 
REMARK    8  A    between atoms: O_8  and  C_21 
REMARK    9  A    between atoms: O_9  and  C_23 
REMARK   10  A    between atoms: O_10  and  C_24 
REMARK   11  A    between atoms: O_13  and  C_35 
REMARK   12  A    between atoms: O_14  and  C_40 
REMARK   13  A    between atoms: O_15  and  C_41 
REMARK   14  A    between atoms: O_16  and  C_43 
REMARK   15  A    between atoms: C_17  and  C_26 
REMARK   16  A    between atoms: C_30  and  C_33 
ROOT
HETATM    1  O   UNK     0      22.770  36.562  12.282  0.00  0.00    -0.348 OA
HETATM    2  C   UNK     0      23.592  35.758  11.434  0.00  0.00     0.180 C 
HETATM    3  C   UNK     0      23.109  34.306  11.464  0.00  0.00     0.180 C 
HETATM    4  C   UNK     0      23.078  33.773  12.896  0.00  0.00     0.183 C 
HETATM    5  C   UNK     0      22.348  34.739  13.830  0.00  0.00     0.205 C 
HETATM    6  C   UNK     0      22.850  36.172  13.651  0.00  0.00     0.298 C 
ENDROOT
BRANCH   2   7
HETATM    7  C   UNK     0      23.520  36.350  10.030  0.00  0.00     0.205 C 
BRANCH   7   8
HETATM    8  O   UNK     0      24.650  37.184   9.821  0.00  0.00    -0.356 OA
BRANCH   8   9
HETATM    9  C   UNK     0      24.345  38.265   8.946  0.00  0.00     0.291 C 
HETATM   10  O   UNK     0      25.501  38.754   8.259  0.00  0.00    -0.351 OA
HETATM   11  C   UNK     0      26.492  39.331   9.115  0.00  0.00     0.152 C 
HETATM   12  C   UNK     0      25.915  40.513   9.907  0.00  0.00     0.178 C 
HETATM   13  C   UNK     0      27.659  39.753   8.226  0.00  0.00     0.042 C 
HETATM   14  C   UNK     0      24.662  40.076  10.666  0.00  0.00     0.183 C 
HETATM   15  C   UNK     0      23.667  39.387   9.729  0.00  0.00     0.204 C 
BRANCH  12  16
HETATM   16  O   UNK     0      26.869  40.982  10.858  0.00  0.00    -0.390 OA
HETATM   17  H   UNK     0      27.058  40.255  11.474  0.00  0.00     0.210 HD
ENDBRANCH  12  16
BRANCH  14  18
HETATM   18  O   UNK     0      24.054  41.218  11.265  0.00  0.00    -0.390 OA
HETATM   19  H   UNK     0      24.542  42.005  10.966  0.00  0.00     0.210 HD
ENDBRANCH  14  18
BRANCH  15  20
HETATM   20  O   UNK     0      23.155  40.329   8.785  0.00  0.00    -0.388 OA
HETATM   21  H   UNK     0      23.905  40.796   8.379  0.00  0.00     0.210 HD
ENDBRANCH  15  20
ENDBRANCH   8   9
ENDBRANCH   7   8
ENDBRANCH   2   7
BRANCH   6  22
HETATM   22  O   UNK     0      22.029  37.028  14.444  0.00  0.00    -0.311 OA
BRANCH  22  23
HETATM   23  C   UNK     0      22.694  38.179  14.803  0.00  0.00     0.157 A 
HETATM   24  C   UNK     0      22.305  39.405  14.409  0.00  0.00     0.124 A 
HETATM   25  O   UNK     0      22.970  40.581  14.724  0.00  0.00    -0.306 OA
HETATM   26  C   UNK     0      24.093  40.507  15.508  0.00  0.00     0.096 A 
HETATM   27  C   UNK     0      24.599  39.302  15.991  0.00  0.00     0.084 A 
HETATM   28  C   UNK     0      24.734  41.707  15.817  0.00  0.00     0.075 A 
HETATM   29  C   UNK     0      23.905  38.050  15.648  0.00  0.00     0.223 A 
HETATM   30  C   UNK     0      25.749  39.287  16.785  0.00  0.00     0.085 A 
HETATM   31  O   UNK     0      24.306  36.962  16.039  0.00  0.00    -0.284 OA
HETATM   32  C   UNK     0      26.388  40.489  17.092  0.00  0.00     0.074 A 
HETATM   33  C   UNK     0      25.882  41.696  16.610  0.00  0.00     0.071 A 
BRANCH  24  34
HETATM   34  C   UNK     0      21.119  39.627  13.563  0.00  0.00     0.004 A 
HETATM   35  C   UNK     0      21.274  39.974  12.221  0.00  0.00     0.053 A 
HETATM   36  C   UNK     0      20.151  40.182  11.420  0.00  0.00     0.099 A 
HETATM   37  C   UNK     0      18.873  40.044  11.960  0.00  0.00     0.098 A 
HETATM   38  C   UNK     0      18.718  39.697  13.302  0.00  0.00     0.040 A 
HETATM   39  C   UNK     0      19.840  39.488  14.103  0.00  0.00     0.017 A 
BRANCH  36  40
HETATM   40  O   UNK     0      20.316  40.523  10.111  0.00  0.00    -0.358 OA
HETATM   41  H   UNK     0      19.479  40.863   9.754  0.00  0.00     0.217 HD
ENDBRANCH  36  40
BRANCH  37  42
HETATM   42  O   UNK     0      17.769  40.244  11.188  0.00  0.00    -0.358 OA
HETATM   43  H   UNK     0      17.459  39.395  10.834  0.00  0.00     0.217 HD
ENDBRANCH  37  42
ENDBRANCH  24  34
BRANCH  30  44
HETATM   44  O   UNK     0      26.284  38.138  17.281  0.00  0.00    -0.360 OA
HETATM   45  H   UNK     0      25.571  37.506  17.481  0.00  0.00     0.217 HD
ENDBRANCH  30  44
BRANCH  33  46
HETATM   46  O   UNK     0      26.509  42.866  16.912  0.00  0.00    -0.361 OA
HETATM   47  H   UNK     0      26.127  43.578  16.371  0.00  0.00     0.217 HD
ENDBRANCH  33  46
ENDBRANCH  22  23
ENDBRANCH   6  22
BRANCH   3  48
HETATM   48  O   UNK     0      23.987  33.502  10.681  0.00  0.00    -0.390 OA
HETATM   49  H   UNK     0      24.860  33.929  10.673  0.00  0.00     0.210 HD
ENDBRANCH   3  48
BRANCH   5  50
HETATM   50  O   UNK     0      22.575  34.351  15.185  0.00  0.00    -0.388 OA
HETATM   51  H   UNK     0      22.789  35.150  15.695  0.00  0.00     0.210 HD
ENDBRANCH   5  50
BRANCH   4  52
HETATM   52  O   UNK     0      22.398  32.517  12.885  0.00  0.00    -0.390 OA
HETATM   53  H   UNK     0      21.811  32.511  12.111  0.00  0.00     0.210 HD
ENDBRANCH   4  52
TORSDOF 16
ENDMDL
MODEL 4
REMARK VINA RESULT:     -10.2      9.638     17.504
REMARK  16 active torsions:
REMARK  status: ('A' for Active; 'I' for Inactive)
REMARK    1  A    between atoms: O_2  and  C_22 
REMARK    2  A    between atoms: O_2  and  C_26 
REMARK    3  A    between atoms: O_4  and  C_18 
REMARK    4  A    between atoms: O_5  and  C_19 
REMARK    5  A    between atoms: O_6  and  C_25 
REMARK    6  A    between atoms: O_6  and  C_29 
REMARK    7  A    between atoms: O_7  and  C_20 
REMARK    8  A    between atoms: O_8  and  C_21 
REMARK    9  A    between atoms: O_9  and  C_23 
REMARK   10  A    between atoms: O_10  and  C_24 
REMARK   11  A    between atoms: O_13  and  C_35 
REMARK   12  A    between atoms: O_14  and  C_40 
REMARK   13  A    between atoms: O_15  and  C_41 
REMARK   14  A    between atoms: O_16  and  C_43 
REMARK   15  A    between atoms: C_17  and  C_26 
REMARK   16  A    between atoms: C_30  and  C_33 
ROOT
HETATM    1  O   UNK     0      21.026  24.600   7.596  0.00  0.00    -0.348 OA
HETATM    2  C   UNK     0      19.733  24.019   7.415  0.00  0.00     0.180 C 
HETATM    3  C   UNK     0      19.126  24.498   6.094  0.00  0.00     0.180 C 
HETATM    4  C   UNK     0      19.075  26.025   6.043  0.00  0.00     0.183 C 
HETATM    5  C   UNK     0      20.425  26.637   6.418  0.00  0.00     0.205 C 
HETATM    6  C   UNK     0      20.976  26.021   7.703  0.00  0.00     0.298 C 
ENDROOT
BRANCH   2   7
HETATM    7  C   UNK     0      19.903  22.503   7.443  0.00  0.00     0.205 C 
BRANCH   7   8
HETATM    8  O   UNK     0      20.948  22.139   6.553  0.00  0.00    -0.356 OA
BRANCH   8   9
HETATM    9  C   UNK     0      20.795  20.801   6.090  0.00  0.00     0.291 C 
HETATM   10  O   UNK     0      21.890  20.378   5.273  0.00  0.00    -0.351 OA
HETATM   11  C   UNK     0      22.025  21.107   4.048  0.00  0.00     0.152 C 
HETATM   12  C   UNK     0      20.759  20.981   3.190  0.00  0.00     0.178 C 
HETATM   13  C   UNK     0      23.257  20.557   3.334  0.00  0.00     0.042 C 
HETATM   14  C   UNK     0      19.531  21.404   3.997  0.00  0.00     0.183 C 
HETATM   15  C   UNK     0      19.474  20.665   5.335  0.00  0.00     0.204 C 
BRANCH  12  16
HETATM   16  O   UNK     0      20.851  21.827   2.046  0.00  0.00    -0.390 OA
HETATM   17  H   UNK     0      20.298  21.442   1.345  0.00  0.00     0.210 HD
ENDBRANCH  12  16
BRANCH  14  18
HETATM   18  O   UNK     0      18.354  21.132   3.240  0.00  0.00    -0.390 OA
HETATM   19  H   UNK     0      17.751  20.618   3.805  0.00  0.00     0.210 HD
ENDBRANCH  14  18
BRANCH  15  20
HETATM   20  O   UNK     0      19.242  19.273   5.112  0.00  0.00    -0.388 OA
HETATM   21  H   UNK     0      19.877  18.767   5.648  0.00  0.00     0.210 HD
ENDBRANCH  15  20
ENDBRANCH   8   9
ENDBRANCH   7   8
ENDBRANCH   2   7
BRANCH   6  22
HETATM   22  O   UNK     0      22.292  26.534   7.908  0.00  0.00    -0.311 OA
BRANCH  22  23
HETATM   23  C   UNK     0      22.381  27.248   9.083  0.00  0.00     0.157 A 
HETATM   24  C   UNK     0      22.445  26.665  10.294  0.00  0.00     0.124 A 
HETATM   25  O   UNK     0      22.502  27.353  11.496  0.00  0.00    -0.306 OA
HETATM   26  C   UNK     0      22.516  28.724  11.464  0.00  0.00     0.096 A 
HETATM   27  C   UNK     0      22.464  29.453  10.278  0.00  0.00     0.084 A 
HETATM   28  C   UNK     0      22.584  29.388  12.690  0.00  0.00     0.075 A 
HETATM   29  C   UNK     0      22.389  28.728   9.000  0.00  0.00     0.223 A 
HETATM   30  C   UNK     0      22.479  30.850  10.307  0.00  0.00     0.085 A 
HETATM   31  O   UNK     0      22.335  29.315   7.928  0.00  0.00    -0.284 OA
HETATM   32  C   UNK     0      22.548  31.512  11.534  0.00  0.00     0.074 A 
HETATM   33  C   UNK     0      22.600  30.783  12.722  0.00  0.00     0.071 A 
BRANCH  24  34
HETATM   34  C   UNK     0      22.436  25.202  10.470  0.00  0.00     0.004 A 
HETATM   35  C   UNK     0      21.306  24.568  10.988  0.00  0.00     0.053 A 
HETATM   36  C   UNK     0      21.296  23.184  11.154  0.00  0.00     0.099 A 
HETATM   37  C   UNK     0      22.417  22.432  10.802  0.00  0.00     0.098 A 
HETATM   38  C   UNK     0      23.547  23.065  10.285  0.00  0.00     0.040 A 
HETATM   39  C   UNK     0      23.556  24.449  10.118  0.00  0.00     0.017 A 
BRANCH  36  40
HETATM   40  O   UNK     0      20.187  22.577  11.663  0.00  0.00    -0.358 OA
HETATM   41  H   UNK     0      20.412  21.679  11.956  0.00  0.00     0.217 HD
ENDBRANCH  36  40
BRANCH  37  42
HETATM   42  O   UNK     0      22.420  21.079  10.959  0.00  0.00    -0.358 OA
HETATM   43  H   UNK     0      23.271  20.717  10.667  0.00  0.00     0.217 HD
ENDBRANCH  37  42
ENDBRANCH  24  34
BRANCH  30  44
HETATM   44  O   UNK     0      22.429  31.609   9.178  0.00  0.00    -0.360 OA
HETATM   45  H   UNK     0      23.085  32.326   9.239  0.00  0.00     0.217 HD
ENDBRANCH  30  44
BRANCH  33  46
HETATM   46  O   UNK     0      22.667  31.433  13.917  0.00  0.00    -0.361 OA
HETATM   47  H   UNK     0      23.520  31.233  14.338  0.00  0.00     0.217 HD
ENDBRANCH  33  46
ENDBRANCH  22  23
ENDBRANCH   6  22
BRANCH   3  48
HETATM   48  O   UNK     0      17.805  23.978   5.967  0.00  0.00    -0.390 OA
HETATM   49  H   UNK     0      17.817  23.290   5.281  0.00  0.00     0.210 HD
ENDBRANCH   3  48
BRANCH   5  50
HETATM   50  O   UNK     0      20.268  28.040   6.626  0.00  0.00    -0.388 OA
HETATM   51  H   UNK     0      19.317  28.232   6.682  0.00  0.00     0.210 HD
ENDBRANCH   5  50
BRANCH   4  52
HETATM   52  O   UNK     0      18.732  26.411   4.710  0.00  0.00    -0.390 OA
HETATM   53  H   UNK     0      19.377  27.080   4.426  0.00  0.00     0.210 HD
ENDBRANCH   4  52
TORSDOF 16
ENDMDL
MODEL 5
REMARK VINA RESULT:      -9.9     12.392     16.181
REMARK  16 active torsions:
REMARK  status: ('A' for Active; 'I' for Inactive)
REMARK    1  A    between atoms: O_2  and  C_22 
REMARK    2  A    between atoms: O_2  and  C_26 
REMARK    3  A    between atoms: O_4  and  C_18 
REMARK    4  A    between atoms: O_5  and  C_19 
REMARK    5  A    between atoms: O_6  and  C_25 
REMARK    6  A    between atoms: O_6  and  C_29 
REMARK    7  A    between atoms: O_7  and  C_20 
REMARK    8  A    between atoms: O_8  and  C_21 
REMARK    9  A    between atoms: O_9  and  C_23 
REMARK   10  A    between atoms: O_10  and  C_24 
REMARK   11  A    between atoms: O_13  and  C_35 
REMARK   12  A    between atoms: O_14  and  C_40 
REMARK   13  A    between atoms: O_15  and  C_41 
REMARK   14  A    between atoms: O_16  and  C_43 
REMARK   15  A    between atoms: C_17  and  C_26 
REMARK   16  A    between atoms: C_30  and  C_33 
ROOT
HETATM    1  O   UNK     0      25.355  24.071  10.315  0.00  0.00    -0.348 OA
HETATM    2  C   UNK     0      26.478  24.246  11.181  0.00  0.00     0.180 C 
HETATM    3  C   UNK     0      27.690  24.719  10.374  0.00  0.00     0.180 C 
HETATM    4  C   UNK     0      27.997  23.746   9.235  0.00  0.00     0.183 C 
HETATM    5  C   UNK     0      26.740  23.426   8.426  0.00  0.00     0.205 C 
HETATM    6  C   UNK     0      25.571  23.054   9.339  0.00  0.00     0.298 C 
ENDROOT
BRANCH   2   7
HETATM    7  C   UNK     0      26.080  25.260  12.249  0.00  0.00     0.205 C 
BRANCH   7   8
HETATM    8  O   UNK     0      24.708  25.587  12.088  0.00  0.00    -0.356 OA
BRANCH   8   9
HETATM    9  C   UNK     0      24.057  25.738  13.345  0.00  0.00     0.291 C 
HETATM   10  O   UNK     0      22.722  25.224  13.333  0.00  0.00    -0.351 OA
HETATM   11  C   UNK     0      21.835  25.918  12.450  0.00  0.00     0.152 C 
HETATM   12  C   UNK     0      21.733  27.403  12.825  0.00  0.00     0.178 C 
HETATM   13  C   UNK     0      20.482  25.214  12.532  0.00  0.00     0.042 C 
HETATM   14  C   UNK     0      23.127  28.030  12.872  0.00  0.00     0.183 C 
HETATM   15  C   UNK     0      24.066  27.209  13.758  0.00  0.00     0.204 C 
BRANCH  12  16
HETATM   16  O   UNK     0      20.963  28.106  11.852  0.00  0.00    -0.390 OA
HETATM   17  H   UNK     0      21.485  28.870  11.553  0.00  0.00     0.210 HD
ENDBRANCH  12  16
BRANCH  14  18
HETATM   18  O   UNK     0      23.026  29.361  13.373  0.00  0.00    -0.390 OA
HETATM   19  H   UNK     0      23.631  29.919  12.854  0.00  0.00     0.210 HD
ENDBRANCH  14  18
BRANCH  15  20
HETATM   20  O   UNK     0      23.639  27.281  15.119  0.00  0.00    -0.388 OA
HETATM   21  H   UNK     0      24.407  27.512  15.670  0.00  0.00     0.210 HD
ENDBRANCH  15  20
ENDBRANCH   8   9
ENDBRANCH   7   8
ENDBRANCH   2   7
BRANCH   6  22
HETATM   22  O   UNK     0      24.406  22.911   8.527  0.00  0.00    -0.311 OA
BRANCH  22  23
HETATM   23  C   UNK     0      23.337  22.436   9.253  0.00  0.00     0.157 A 
HETATM   24  C   UNK     0      22.175  23.103   9.371  0.00  0.00     0.124 A 
HETATM   25  O   UNK     0      21.091  22.669  10.120  0.00  0.00    -0.306 OA
HETATM   26  C   UNK     0      21.188  21.469  10.775  0.00  0.00     0.096 A 
HETATM   27  C   UNK     0      22.331  20.674  10.729  0.00  0.00     0.084 A 
HETATM   28  C   UNK     0      20.078  21.054  11.512  0.00  0.00     0.075 A 
HETATM   29  C   UNK     0      23.489  21.135   9.948  0.00  0.00     0.223 A 
HETATM   30  C   UNK     0      22.374  19.459  11.419  0.00  0.00     0.085 A 
HETATM   31  O   UNK     0      24.521  20.482   9.876  0.00  0.00    -0.284 OA
HETATM   32  C   UNK     0      21.262  19.046  12.155  0.00  0.00     0.074 A 
HETATM   33  C   UNK     0      20.117  19.842  12.201  0.00  0.00     0.071 A 
BRANCH  24  34
HETATM   34  C   UNK     0      21.938  24.404   8.721  0.00  0.00     0.004 A 
HETATM   35  C   UNK     0      22.389  25.578   9.325  0.00  0.00     0.053 A 
HETATM   36  C   UNK     0      22.167  26.810   8.709  0.00  0.00     0.099 A 
HETATM   37  C   UNK     0      21.494  26.868   7.490  0.00  0.00     0.098 A 
HETATM   38  C   UNK     0      21.042  25.695   6.885  0.00  0.00     0.040 A 
HETATM   39  C   UNK     0      21.265  24.464   7.501  0.00  0.00     0.017 A 
BRANCH  36  40
HETATM   40  O   UNK     0      22.611  27.950   9.310  0.00  0.00    -0.358 OA
HETATM   41  H   UNK     0      23.193  28.434   8.703  0.00  0.00     0.217 HD
ENDBRANCH  36  40
BRANCH  37  42
HETATM   42  O   UNK     0      21.271  28.065   6.878  0.00  0.00    -0.358 OA
HETATM   43  H   UNK     0      22.081  28.599   6.899  0.00  0.00     0.217 HD
ENDBRANCH  37  42
ENDBRANCH  24  34
BRANCH  30  44
HETATM   44  O   UNK     0      23.465  18.645  11.408  0.00  0.00    -0.360 OA
HETATM   45  H   UNK     0      23.207  17.751  11.691  0.00  0.00     0.217 HD
ENDBRANCH  30  44
BRANCH  33  46
HETATM   46  O   UNK     0      19.035  19.436  12.921  0.00  0.00    -0.361 OA
HETATM   47  H   UNK     0      18.242  19.499  12.362  0.00  0.00     0.217 HD
ENDBRANCH  33  46
ENDBRANCH  22  23
ENDBRANCH   6  22
BRANCH   3  48
HETATM   48  O   UNK     0      28.823  24.809  11.234  0.00  0.00    -0.390 OA
HETATM   49  H   UNK     0      29.590  24.448  10.760  0.00  0.00     0.210 HD
ENDBRANCH   3  48
BRANCH   5  50
HETATM   50  O   UNK     0      27.001  22.322   7.561  0.00  0.00    -0.388 OA
HETATM   51  H   UNK     0      26.488  21.560   7.880  0.00  0.00     0.210 HD
ENDBRANCH   5  50
BRANCH   4  52
HETATM   52  O   UNK     0      28.968  24.356   8.383  0.00  0.00    -0.390 OA
HETATM   53  H   UNK     0      28.869  25.319   8.471  0.00  0.00     0.210 HD
ENDBRANCH   4  52
TORSDOF 16
ENDMDL
MODEL 6
REMARK VINA RESULT:      -9.5      3.312      9.095
REMARK  16 active torsions:
REMARK  status: ('A' for Active; 'I' for Inactive)
REMARK    1  A    between atoms: O_2  and  C_22 
REMARK    2  A    between atoms: O_2  and  C_26 
REMARK    3  A    between atoms: O_4  and  C_18 
REMARK    4  A    between atoms: O_5  and  C_19 
REMARK    5  A    between atoms: O_6  and  C_25 
REMARK    6  A    between atoms: O_6  and  C_29 
REMARK    7  A    between atoms: O_7  and  C_20 
REMARK    8  A    between atoms: O_8  and  C_21 
REMARK    9  A    between atoms: O_9  and  C_23 
REMARK   10  A    between atoms: O_10  and  C_24 
REMARK   11  A    between atoms: O_13  and  C_35 
REMARK   12  A    between atoms: O_14  and  C_40 
REMARK   13  A    between atoms: O_15  and  C_41 
REMARK   14  A    between atoms: O_16  and  C_43 
REMARK   15  A    between atoms: C_17  and  C_26 
REMARK   16  A    between atoms: C_30  and  C_33 
ROOT
HETATM    1  O   UNK     0      20.084  39.949  13.124  0.00  0.00    -0.348 OA
HETATM    2  C   UNK     0      19.036  39.466  13.966  0.00  0.00     0.180 C 
HETATM    3  C   UNK     0      17.690  39.591  13.247  0.00  0.00     0.180 C 
HETATM    4  C   UNK     0      17.444  41.034  12.806  0.00  0.00     0.183 C 
HETATM    5  C   UNK     0      18.653  41.599  12.061  0.00  0.00     0.205 C 
HETATM    6  C   UNK     0      19.950  41.337  12.827  0.00  0.00     0.298 C 
ENDROOT
BRANCH   2   7
HETATM    7  C   UNK     0      19.358  38.015  14.313  0.00  0.00     0.205 C 
BRANCH   7   8
HETATM    8  O   UNK     0      20.765  37.831  14.267  0.00  0.00    -0.356 OA
BRANCH   8   9
HETATM    9  C   UNK     0      21.253  37.250  15.472  0.00  0.00     0.291 C 
HETATM   10  O   UNK     0      22.562  37.718  15.812  0.00  0.00    -0.351 OA
HETATM   11  C   UNK     0      23.577  37.355  14.870  0.00  0.00     0.152 C 
HETATM   12  C   UNK     0      23.676  35.830  14.727  0.00  0.00     0.178 C 
HETATM   13  C   UNK     0      24.885  37.968  15.365  0.00  0.00     0.042 C 
HETATM   14  C   UNK     0      22.308  35.245  14.375  0.00  0.00     0.183 C 
HETATM   15  C   UNK     0      21.238  35.727  15.355  0.00  0.00     0.204 C 
BRANCH  12  16
HETATM   16  O   UNK     0      24.587  35.489  13.684  0.00  0.00    -0.390 OA
HETATM   17  H   UNK     0      25.346  36.094  13.741  0.00  0.00     0.210 HD
ENDBRANCH  12  16
BRANCH  14  18
HETATM   18  O   UNK     0      22.385  33.821  14.401  0.00  0.00    -0.390 OA
HETATM   19  H   UNK     0      23.326  33.574  14.368  0.00  0.00     0.210 HD
ENDBRANCH  14  18
BRANCH  15  20
HETATM   20  O   UNK     0      21.488  35.188  16.654  0.00  0.00    -0.388 OA
HETATM   21  H   UNK     0      22.123  34.457  16.565  0.00  0.00     0.210 HD
ENDBRANCH  15  20
ENDBRANCH   8   9
ENDBRANCH   7   8
ENDBRANCH   2   7
BRANCH   6  22
HETATM   22  O   UNK     0      21.038  41.762  12.008  0.00  0.00    -0.311 OA
BRANCH  22  23
HETATM   23  C   UNK     0      22.172  41.998  12.753  0.00  0.00     0.157 A 
HETATM   24  C   UNK     0      23.313  41.304  12.595  0.00  0.00     0.124 A 
HETATM   25  O   UNK     0      24.461  41.493  13.350  0.00  0.00    -0.306 OA
HETATM   26  C   UNK     0      24.455  42.466  14.316  0.00  0.00     0.096 A 
HETATM   27  C   UNK     0      23.343  43.263  14.577  0.00  0.00     0.084 A 
HETATM   28  C   UNK     0      25.627  42.640  15.052  0.00  0.00     0.075 A 
HETATM   29  C   UNK     0      22.118  43.058  13.789  0.00  0.00     0.223 A 
HETATM   30  C   UNK     0      23.393  44.240  15.576  0.00  0.00     0.085 A 
HETATM   31  O   UNK     0      21.109  43.724  13.978  0.00  0.00    -0.284 OA
HETATM   32  C   UNK     0      24.568  44.412  16.311  0.00  0.00     0.074 A 
HETATM   33  C   UNK     0      25.682  43.614  16.049  0.00  0.00     0.071 A 
BRANCH  24  34
HETATM   34  C   UNK     0      23.455  40.229  11.596  0.00  0.00     0.004 A 
HETATM   35  C   UNK     0      23.169  38.909  11.945  0.00  0.00     0.053 A 
HETATM   36  C   UNK     0      23.301  37.893  11.000  0.00  0.00     0.099 A 
HETATM   37  C   UNK     0      23.720  38.196   9.704  0.00  0.00     0.098 A 
HETATM   38  C   UNK     0      24.006  39.515   9.355  0.00  0.00     0.040 A 
HETATM   39  C   UNK     0      23.873  40.532  10.300  0.00  0.00     0.017 A 
BRANCH  36  40
HETATM   40  O   UNK     0      23.022  36.607  11.353  0.00  0.00    -0.358 OA
HETATM   41  H   UNK     0      22.408  36.217  10.709  0.00  0.00     0.217 HD
ENDBRANCH  36  40
BRANCH  37  42
HETATM   42  O   UNK     0      23.853  37.211   8.772  0.00  0.00    -0.358 OA
HETATM   43  H   UNK     0      24.677  37.339   8.276  0.00  0.00     0.217 HD
ENDBRANCH  37  42
ENDBRANCH  24  34
BRANCH  30  44
HETATM   44  O   UNK     0      22.336  45.044  15.872  0.00  0.00    -0.360 OA
HETATM   45  H   UNK     0      22.658  45.932  16.106  0.00  0.00     0.217 HD
ENDBRANCH  30  44
BRANCH  33  46
HETATM   46  O   UNK     0      26.825  43.786  16.768  0.00  0.00    -0.361 OA
HETATM   47  H   UNK     0      27.565  43.376  16.288  0.00  0.00     0.217 HD
ENDBRANCH  33  46
ENDBRANCH  22  23
ENDBRANCH   6  22
BRANCH   3  48
HETATM   48  O   UNK     0      16.646  39.184  14.128  0.00  0.00    -0.390 OA
HETATM   49  H   UNK     0      15.803  39.501  13.763  0.00  0.00     0.210 HD
ENDBRANCH   3  48
BRANCH   5  50
HETATM   50  O   UNK     0      18.499  43.010  11.909  0.00  0.00    -0.388 OA
HETATM   51  H   UNK     0      18.735  43.242  10.995  0.00  0.00     0.210 HD
ENDBRANCH   5  50
BRANCH   4  52
HETATM   52  O   UNK     0      16.306  41.042  11.941  0.00  0.00    -0.390 OA
HETATM   53  H   UNK     0      16.465  41.716  11.257  0.00  0.00     0.210 HD
ENDBRANCH   4  52
TORSDOF 16
ENDMDL
MODEL 7
REMARK VINA RESULT:      -9.4      2.360      4.009
REMARK  16 active torsions:
REMARK  status: ('A' for Active; 'I' for Inactive)
REMARK    1  A    between atoms: O_2  and  C_22 
REMARK    2  A    between atoms: O_2  and  C_26 
REMARK    3  A    between atoms: O_4  and  C_18 
REMARK    4  A    between atoms: O_5  and  C_19 
REMARK    5  A    between atoms: O_6  and  C_25 
REMARK    6  A    between atoms: O_6  and  C_29 
REMARK    7  A    between atoms: O_7  and  C_20 
REMARK    8  A    between atoms: O_8  and  C_21 
REMARK    9  A    between atoms: O_9  and  C_23 
REMARK   10  A    between atoms: O_10  and  C_24 
REMARK   11  A    between atoms: O_13  and  C_35 
REMARK   12  A    between atoms: O_14  and  C_40 
REMARK   13  A    between atoms: O_15  and  C_41 
REMARK   14  A    between atoms: O_16  and  C_43 
REMARK   15  A    between atoms: C_17  and  C_26 
REMARK   16  A    between atoms: C_30  and  C_33 
ROOT
HETATM    1  O   UNK     0      24.688  40.904  10.790  0.00  0.00    -0.348 OA
HETATM    2  C   UNK     0      26.019  41.380  11.004  0.00  0.00     0.180 C 
HETATM    3  C   UNK     0      26.854  41.179   9.738  0.00  0.00     0.180 C 
HETATM    4  C   UNK     0      26.838  39.713   9.304  0.00  0.00     0.183 C 
HETATM    5  C   UNK     0      25.411  39.165   9.256  0.00  0.00     0.205 C 
HETATM    6  C   UNK     0      24.644  39.502  10.534  0.00  0.00     0.298 C 
ENDROOT
BRANCH   2   7
HETATM    7  C   UNK     0      25.923  42.853  11.390  0.00  0.00     0.205 C 
BRANCH   7   8
HETATM    8  O   UNK     0      26.160  42.982  12.784  0.00  0.00    -0.356 OA
BRANCH   8   9
HETATM    9  C   UNK     0      25.197  43.830  13.400  0.00  0.00     0.291 C 
HETATM   10  O   UNK     0      25.748  45.094  13.782  0.00  0.00    -0.351 OA
HETATM   11  C   UNK     0      26.763  45.011  14.788  0.00  0.00     0.152 C 
HETATM   12  C   UNK     0      26.219  44.362  16.068  0.00  0.00     0.178 C 
HETATM   13  C   UNK     0      27.262  46.433  15.037  0.00  0.00     0.042 C 
HETATM   14  C   UNK     0      25.597  43.003  15.745  0.00  0.00     0.183 C 
HETATM   15  C   UNK     0      24.582  43.122  14.607  0.00  0.00     0.204 C 
BRANCH  12  16
HETATM   16  O   UNK     0      27.274  44.155  17.004  0.00  0.00    -0.390 OA
HETATM   17  H   UNK     0      27.458  45.005  17.439  0.00  0.00     0.210 HD
ENDBRANCH  12  16
BRANCH  14  18
HETATM   18  O   UNK     0      24.960  42.488  16.912  0.00  0.00    -0.390 OA
HETATM   19  H   UNK     0      24.772  41.546  16.756  0.00  0.00     0.210 HD
ENDBRANCH  14  18
BRANCH  15  20
HETATM   20  O   UNK     0      23.457  43.891  15.035  0.00  0.00    -0.388 OA
HETATM   21  H   UNK     0      23.545  44.058  15.990  0.00  0.00     0.210 HD
ENDBRANCH  15  20
ENDBRANCH   8   9
ENDBRANCH   7   8
ENDBRANCH   2   7
BRANCH   6  22
HETATM   22  O   UNK     0      23.290  39.088  10.356  0.00  0.00    -0.311 OA
BRANCH  22  23
HETATM   23  C   UNK     0      22.766  38.555  11.513  0.00  0.00     0.157 A 
HETATM   24  C   UNK     0      21.848  39.189  12.265  0.00  0.00     0.124 A 
HETATM   25  O   UNK     0      21.325  38.696  13.451  0.00  0.00    -0.306 OA
HETATM   26  C   UNK     0      21.748  37.468  13.891  0.00  0.00     0.096 A 
HETATM   27  C   UNK     0      22.687  36.702  13.204  0.00  0.00     0.084 A 
HETATM   28  C   UNK     0      21.196  36.995  15.082  0.00  0.00     0.075 A 
HETATM   29  C   UNK     0      23.256  37.226  11.953  0.00  0.00     0.223 A 
HETATM   30  C   UNK     0      23.082  35.457  13.702  0.00  0.00     0.085 A 
HETATM   31  O   UNK     0      24.088  36.600  11.310  0.00  0.00    -0.284 OA
HETATM   32  C   UNK     0      22.528  34.985  14.893  0.00  0.00     0.074 A 
HETATM   33  C   UNK     0      21.587  35.752  15.581  0.00  0.00     0.071 A 
BRANCH  24  34
HETATM   34  C   UNK     0      21.311  40.514  11.909  0.00  0.00     0.004 A 
HETATM   35  C   UNK     0      21.720  41.646  12.614  0.00  0.00     0.053 A 
HETATM   36  C   UNK     0      21.213  42.901  12.276  0.00  0.00     0.099 A 
HETATM   37  C   UNK     0      20.296  43.024  11.232  0.00  0.00     0.098 A 
HETATM   38  C   UNK     0      19.887  41.893  10.527  0.00  0.00     0.040 A 
HETATM   39  C   UNK     0      20.395  40.639  10.864  0.00  0.00     0.017 A 
BRANCH  36  40
HETATM   40  O   UNK     0      21.618  43.999  12.975  0.00  0.00    -0.358 OA
HETATM   41  H   UNK     0      20.849  44.427  13.385  0.00  0.00     0.217 HD
ENDBRANCH  36  40
BRANCH  37  42
HETATM   42  O   UNK     0      19.794  44.244  10.893  0.00  0.00    -0.358 OA
HETATM   43  H   UNK     0      18.905  44.140  10.519  0.00  0.00     0.217 HD
ENDBRANCH  37  42
ENDBRANCH  24  34
BRANCH  30  44
HETATM   44  O   UNK     0      23.995  34.670  13.071  0.00  0.00    -0.360 OA
HETATM   45  H   UNK     0      24.175  33.882  13.612  0.00  0.00     0.217 HD
ENDBRANCH  30  44
BRANCH  33  46
HETATM   46  O   UNK     0      21.051  35.288  16.743  0.00  0.00    -0.361 OA
HETATM   47  H   UNK     0      21.530  35.682  17.492  0.00  0.00     0.217 HD
ENDBRANCH  33  46
ENDBRANCH  22  23
ENDBRANCH   6  22
BRANCH   3  48
HETATM   48  O   UNK     0      28.198  41.580   9.992  0.00  0.00    -0.390 OA
HETATM   49  H   UNK     0      28.643  41.702   9.136  0.00  0.00     0.210 HD
ENDBRANCH   3  48
BRANCH   5  50
HETATM   50  O   UNK     0      25.453  37.745   9.120  0.00  0.00    -0.388 OA
HETATM   51  H   UNK     0      25.677  37.537   8.197  0.00  0.00     0.210 HD
ENDBRANCH   5  50
BRANCH   4  52
HETATM   52  O   UNK     0      27.423  39.631   8.003  0.00  0.00    -0.390 OA
HETATM   53  H   UNK     0      26.701  39.487   7.368  0.00  0.00     0.210 HD
ENDBRANCH   4  52
TORSDOF 16
ENDMDL
MODEL 8
REMARK VINA RESULT:      -9.4      3.371      7.184
REMARK  16 active torsions:
REMARK  status: ('A' for Active; 'I' for Inactive)
REMARK    1  A    between atoms: O_2  and  C_22 
REMARK    2  A    between atoms: O_2  and  C_26 
REMARK    3  A    between atoms: O_4  and  C_18 
REMARK    4  A    between atoms: O_5  and  C_19 
REMARK    5  A    between atoms: O_6  and  C_25 
REMARK    6  A    between atoms: O_6  and  C_29 
REMARK    7  A    between atoms: O_7  and  C_20 
REMARK    8  A    between atoms: O_8  and  C_21 
REMARK    9  A    between atoms: O_9  and  C_23 
REMARK   10  A    between atoms: O_10  and  C_24 
REMARK   11  A    between atoms: O_13  and  C_35 
REMARK   12  A    between atoms: O_14  and  C_40 
REMARK   13  A    between atoms: O_15  and  C_41 
REMARK   14  A    between atoms: O_16  and  C_43 
REMARK   15  A    between atoms: C_17  and  C_26 
REMARK   16  A    between atoms: C_30  and  C_33 
ROOT
HETATM    1  O   UNK     0      22.613  41.670  14.236  0.00  0.00    -0.348 OA
HETATM    2  C   UNK     0      21.745  42.782  14.470  0.00  0.00     0.180 C 
HETATM    3  C   UNK     0      22.520  43.915  15.147  0.00  0.00     0.180 C 
HETATM    4  C   UNK     0      23.178  43.427  16.437  0.00  0.00     0.183 C 
HETATM    5  C   UNK     0      23.957  42.132  16.207  0.00  0.00     0.205 C 
HETATM    6  C   UNK     0      23.117  41.107  15.446  0.00  0.00     0.298 C 
ENDROOT
BRANCH   2   7
HETATM    7  C   UNK     0      21.177  43.212  13.121  0.00  0.00     0.205 C 
BRANCH   7   8
HETATM    8  O   UNK     0      19.839  43.649  13.302  0.00  0.00    -0.356 OA
BRANCH   8   9
HETATM    9  C   UNK     0      19.014  43.269  12.205  0.00  0.00     0.291 C 
HETATM   10  O   UNK     0      17.755  43.950  12.207  0.00  0.00    -0.351 OA
HETATM   11  C   UNK     0      16.924  43.641  13.330  0.00  0.00     0.152 C 
HETATM   12  C   UNK     0      16.614  42.138  13.389  0.00  0.00     0.178 C 
HETATM   13  C   UNK     0      15.656  44.480  13.191  0.00  0.00     0.042 C 
HETATM   14  C   UNK     0      17.913  41.333  13.379  0.00  0.00     0.183 C 
HETATM   15  C   UNK     0      18.809  41.755  12.213  0.00  0.00     0.204 C 
BRANCH  12  16
HETATM   16  O   UNK     0      15.908  41.826  14.589  0.00  0.00    -0.390 OA
HETATM   17  H   UNK     0      16.328  41.046  14.988  0.00  0.00     0.210 HD
ENDBRANCH  12  16
BRANCH  14  18
HETATM   18  O   UNK     0      17.604  39.944  13.275  0.00  0.00    -0.390 OA
HETATM   19  H   UNK     0      18.366  39.501  12.863  0.00  0.00     0.210 HD
ENDBRANCH  14  18
BRANCH  15  20
HETATM   20  O   UNK     0      18.200  41.392  10.973  0.00  0.00    -0.388 OA
HETATM   21  H   UNK     0      18.702  41.809  10.252  0.00  0.00     0.210 HD
ENDBRANCH  15  20
ENDBRANCH   8   9
ENDBRANCH   7   8
ENDBRANCH   2   7
BRANCH   6  22
HETATM   22  O   UNK     0      23.952  39.990  15.145  0.00  0.00    -0.311 OA
BRANCH  22  23
HETATM   23  C   UNK     0      23.959  39.710  13.796  0.00  0.00     0.157 A 
HETATM   24  C   UNK     0      23.115  38.834  13.222  0.00  0.00     0.124 A 
HETATM   25  O   UNK     0      23.117  38.506  11.875  0.00  0.00    -0.306 OA
HETATM   26  C   UNK     0      24.024  39.124  11.053  0.00  0.00     0.096 A 
HETATM   27  C   UNK     0      24.948  40.058  11.516  0.00  0.00     0.084 A 
HETATM   28  C   UNK     0      23.994  38.781   9.701  0.00  0.00     0.075 A 
HETATM   29  C   UNK     0      24.960  40.400  12.946  0.00  0.00     0.223 A 
HETATM   30  C   UNK     0      25.851  40.655  10.631  0.00  0.00     0.085 A 
HETATM   31  O   UNK     0      25.753  41.208  13.410  0.00  0.00    -0.284 OA
HETATM   32  C   UNK     0      25.819  40.310   9.279  0.00  0.00     0.074 A 
HETATM   33  C   UNK     0      24.893  39.376   8.815  0.00  0.00     0.071 A 
BRANCH  24  34
HETATM   34  C   UNK     0      22.094  38.099  13.990  0.00  0.00     0.004 A 
HETATM   35  C   UNK     0      22.435  36.922  14.657  0.00  0.00     0.053 A 
HETATM   36  C   UNK     0      21.470  36.227  15.385  0.00  0.00     0.099 A 
HETATM   37  C   UNK     0      20.162  36.709  15.446  0.00  0.00     0.098 A 
HETATM   38  C   UNK     0      19.820  37.885  14.779  0.00  0.00     0.040 A 
HETATM   39  C   UNK     0      20.786  38.581  14.052  0.00  0.00     0.017 A 
BRANCH  36  40
HETATM   40  O   UNK     0      21.815  35.078  16.030  0.00  0.00    -0.358 OA
HETATM   41  H   UNK     0      21.689  35.190  16.986  0.00  0.00     0.217 HD
ENDBRANCH  36  40
BRANCH  37  42
HETATM   42  O   UNK     0      19.211  36.039  16.155  0.00  0.00    -0.358 OA
HETATM   43  H   UNK     0      18.770  36.648  16.768  0.00  0.00     0.217 HD
ENDBRANCH  37  42
ENDBRANCH  24  34
BRANCH  30  44
HETATM   44  O   UNK     0      26.774  41.572  11.031  0.00  0.00    -0.360 OA
HETATM   45  H   UNK     0      26.496  41.966  11.876  0.00  0.00     0.217 HD
ENDBRANCH  30  44
BRANCH  33  46
HETATM   46  O   UNK     0      24.866  39.042   7.496  0.00  0.00    -0.361 OA
HETATM   47  H   UNK     0      24.873  39.856   6.964  0.00  0.00     0.217 HD
ENDBRANCH  33  46
ENDBRANCH  22  23
ENDBRANCH   6  22
BRANCH   3  48
HETATM   48  O   UNK     0      21.625  44.982  15.449  0.00  0.00    -0.390 OA
HETATM   49  H   UNK     0      20.996  45.065  14.713  0.00  0.00     0.210 HD
ENDBRANCH   3  48
BRANCH   5  50
HETATM   50  O   UNK     0      24.321  41.567  17.466  0.00  0.00    -0.388 OA
HETATM   51  H   UNK     0      23.555  41.077  17.809  0.00  0.00     0.210 HD
ENDBRANCH   5  50
BRANCH   4  52
HETATM   52  O   UNK     0      24.073  44.446  16.889  0.00  0.00    -0.390 OA
HETATM   53  H   UNK     0      24.739  44.019  17.454  0.00  0.00     0.210 HD
ENDBRANCH   4  52
TORSDOF 16
ENDMDL
MODEL 9
REMARK VINA RESULT:      -9.3     12.898     18.771
REMARK  16 active torsions:
REMARK  status: ('A' for Active; 'I' for Inactive)
REMARK    1  A    between atoms: O_2  and  C_22 
REMARK    2  A    between atoms: O_2  and  C_26 
REMARK    3  A    between atoms: O_4  and  C_18 
REMARK    4  A    between atoms: O_5  and  C_19 
REMARK    5  A    between atoms: O_6  and  C_25 
REMARK    6  A    between atoms: O_6  and  C_29 
REMARK    7  A    between atoms: O_7  and  C_20 
REMARK    8  A    between atoms: O_8  and  C_21 
REMARK    9  A    between atoms: O_9  and  C_23 
REMARK   10  A    between atoms: O_10  and  C_24 
REMARK   11  A    between atoms: O_13  and  C_35 
REMARK   12  A    between atoms: O_14  and  C_40 
REMARK   13  A    between atoms: O_15  and  C_41 
REMARK   14  A    between atoms: O_16  and  C_43 
REMARK   15  A    between atoms: C_17  and  C_26 
REMARK   16  A    between atoms: C_30  and  C_33 
ROOT
HETATM    1  O   UNK     0      22.436  23.261   7.635  0.00  0.00    -0.348 OA
HETATM    2  C   UNK     0      21.091  22.988   7.236  0.00  0.00     0.180 C 
HETATM    3  C   UNK     0      20.889  23.392   5.774  0.00  0.00     0.180 C 
HETATM    4  C   UNK     0      21.258  24.860   5.561  0.00  0.00     0.183 C 
HETATM    5  C   UNK     0      22.629  25.179   6.157  0.00  0.00     0.205 C 
HETATM    6  C   UNK     0      22.749  24.651   7.587  0.00  0.00     0.298 C 
ENDROOT
BRANCH   2   7
HETATM    7  C   UNK     0      20.842  21.498   7.451  0.00  0.00     0.205 C 
BRANCH   7   8
HETATM    8  O   UNK     0      21.000  21.197   8.830  0.00  0.00    -0.356 OA
BRANCH   8   9
HETATM    9  C   UNK     0      21.492  19.875   9.021  0.00  0.00     0.291 C 
HETATM   10  O   UNK     0      20.502  18.879   8.747  0.00  0.00    -0.351 OA
HETATM   11  C   UNK     0      19.377  18.912   9.631  0.00  0.00     0.152 C 
HETATM   12  C   UNK     0      19.814  18.710  11.088  0.00  0.00     0.178 C 
HETATM   13  C   UNK     0      18.413  17.822   9.167  0.00  0.00     0.042 C 
HETATM   14  C   UNK     0      20.887  19.733  11.461  0.00  0.00     0.183 C 
HETATM   15  C   UNK     0      22.029  19.725  10.443  0.00  0.00     0.204 C 
BRANCH  12  16
HETATM   16  O   UNK     0      18.705  18.890  11.966  0.00  0.00    -0.390 OA
HETATM   17  H   UNK     0      18.571  19.845  12.085  0.00  0.00     0.210 HD
ENDBRANCH  12  16
BRANCH  14  18
HETATM   18  O   UNK     0      21.393  19.431  12.760  0.00  0.00    -0.390 OA
HETATM   19  H   UNK     0      22.322  19.159  12.661  0.00  0.00     0.210 HD
ENDBRANCH  14  18
BRANCH  15  20
HETATM   20  O   UNK     0      22.735  18.485  10.513  0.00  0.00    -0.388 OA
HETATM   21  H   UNK     0      22.084  17.763  10.557  0.00  0.00     0.210 HD
ENDBRANCH  15  20
ENDBRANCH   8   9
ENDBRANCH   7   8
ENDBRANCH   2   7
BRANCH   6  22
HETATM   22  O   UNK     0      24.093  24.858   8.020  0.00  0.00    -0.311 OA
BRANCH  22  23
HETATM   23  C   UNK     0      24.157  25.099   9.375  0.00  0.00     0.157 A 
HETATM   24  C   UNK     0      24.856  24.326  10.226  0.00  0.00     0.124 A 
HETATM   25  O   UNK     0      24.915  24.521  11.598  0.00  0.00    -0.306 OA
HETATM   26  C   UNK     0      24.236  25.583  12.137  0.00  0.00     0.096 A 
HETATM   27  C   UNK     0      23.482  26.466  11.368  0.00  0.00     0.084 A 
HETATM   28  C   UNK     0      24.323  25.759  13.519  0.00  0.00     0.075 A 
HETATM   29  C   UNK     0      23.404  26.257   9.914  0.00  0.00     0.223 A 
HETATM   30  C   UNK     0      22.809  27.532  11.973  0.00  0.00     0.085 A 
HETATM   31  O   UNK     0      22.753  26.996   9.189  0.00  0.00    -0.284 OA
HETATM   32  C   UNK     0      22.898  27.705  13.355  0.00  0.00     0.074 A 
HETATM   33  C   UNK     0      23.654  26.822  14.126  0.00  0.00     0.071 A 
BRANCH  24  34
HETATM   34  C   UNK     0      25.627  23.152   9.780  0.00  0.00     0.004 A 
HETATM   35  C   UNK     0      24.985  21.929   9.581  0.00  0.00     0.053 A 
HETATM   36  C   UNK     0      25.714  20.819   9.157  0.00  0.00     0.099 A 
HETATM   37  C   UNK     0      27.086  20.930   8.932  0.00  0.00     0.098 A 
HETATM   38  C   UNK     0      27.729  22.152   9.131  0.00  0.00     0.040 A 
HETATM   39  C   UNK     0      26.999  23.263   9.554  0.00  0.00     0.017 A 
BRANCH  36  40
HETATM   40  O   UNK     0      25.076  19.629   8.969  0.00  0.00    -0.358 OA
HETATM   41  H   UNK     0      24.737  19.581   8.060  0.00  0.00     0.217 HD
ENDBRANCH  36  40
BRANCH  37  42
HETATM   42  O   UNK     0      27.809  19.852   8.517  0.00  0.00    -0.358 OA
HETATM   43  H   UNK     0      28.729  19.943   8.811  0.00  0.00     0.217 HD
ENDBRANCH  37  42
ENDBRANCH  24  34
BRANCH  30  44
HETATM   44  O   UNK     0      22.059  28.422  11.268  0.00  0.00    -0.360 OA
HETATM   45  H   UNK     0      22.114  29.298  11.688  0.00  0.00     0.217 HD
ENDBRANCH  30  44
BRANCH  33  46
HETATM   46  O   UNK     0      23.737  26.995  15.473  0.00  0.00    -0.361 OA
HETATM   47  H   UNK     0      23.890  27.937  15.662  0.00  0.00     0.217 HD
ENDBRANCH  33  46
ENDBRANCH  22  23
ENDBRANCH   6  22
BRANCH   3  48
HETATM   48  O   UNK     0      19.524  23.192   5.415  0.00  0.00    -0.390 OA
HETATM   49  H   UNK     0      19.253  23.928   4.841  0.00  0.00     0.210 HD
ENDBRANCH   3  48
BRANCH   5  50
HETATM   50  O   UNK     0      22.816  26.593   6.185  0.00  0.00    -0.388 OA
HETATM   51  H   UNK     0      23.603  26.783   6.723  0.00  0.00     0.210 HD
ENDBRANCH   5  50
BRANCH   4  52
HETATM   52  O   UNK     0      21.282  25.109   4.154  0.00  0.00    -0.390 OA
HETATM   53  H   UNK     0      20.595  24.553   3.748  0.00  0.00     0.210 HD
ENDBRANCH   4  52
TORSDOF 16
ENDMDL
