REMARK VINA RESULT:      -5.8      2.523      4.392
REMARK  Name = 2162
REMARK  14 active torsions:
REMARK  status: ('A' for Active; 'I' for Inactive)
REMARK    1  A    between atoms: O_2  and  C_15
REMARK    2  A    between atoms: O_2  and  C_24
REMARK    3  A    between atoms: O_3  and  C_16
REMARK    4  A    between atoms: O_3  and  C_25
REMARK    5  A    between atoms: O_4  and  C_18
REMARK    6  A    between atoms: O_4  and  C_27
REMARK    7  A    between atoms: N_8  and  C_26
REMARK    8  A    between atoms: C_9  and  C_14
REMARK    9  A    between atoms: C_10  and  C_16
REMARK   10  A    between atoms: C_11  and  C_18
REMARK   11  A    between atoms: C_12  and  C_15
REMARK   12  A    between atoms: C_13  and  C_17
REMARK   13  A    between atoms: C_24  and  C_26
REMARK   14  A    between atoms: C_25  and  C_28
REMARK                            x       y       z     vdW  Elec       q    Type
REMARK                         _______ _______ _______ _____ _____    ______ ____
ROOT
ATOM      1  C   UNL     1     177.970 177.558 170.247  0.00  0.00    +0.097 C 
ATOM      2  C   UNL     1     178.433 178.818 169.508  0.00  0.00    +0.065 C 
ATOM      3  C   UNL     1     179.274 178.741 168.452  0.00  0.00    +0.016 C 
ATOM      4  C   UNL     1     179.748 179.906 167.626  0.00  0.00    +0.061 C 
ATOM      5  N   UNL     1     179.772 177.507 168.063  0.00  0.00    -0.319 N 
ATOM      6  H   UNL     1     180.393 177.487 167.262  0.00  0.00    +0.152 HD
ATOM      7  C   UNL     1     179.547 176.316 168.734  0.00  0.00    +0.045 C 
ATOM      8  C   UNL     1     178.706 176.293 169.792  0.00  0.00    +0.068 C 
ENDROOT
BRANCH   1  15
ATOM      9 CL   UNL     1     176.183 177.778 172.754  0.00  0.00    -0.083 Cl
ATOM     10  C   UNL     1     175.611 177.463 171.157  0.00  0.00    +0.045 A 
ATOM     11  C   UNL     1     174.242 177.291 170.958  0.00  0.00    +0.020 A 
ATOM     12  C   UNL     1     173.749 177.035 169.678  0.00  0.00    +0.001 A 
ATOM     13  C   UNL     1     174.627 176.951 168.597  0.00  0.00    +0.000 A 
ATOM     14  C   UNL     1     175.996 177.123 168.796  0.00  0.00    +0.006 A 
ATOM     15  C   UNL     1     176.488 177.379 170.076  0.00  0.00    -0.017 A 
ENDBRANCH   1  15
BRANCH   2  16
ATOM     16  C   UNL     1     177.955 180.106 170.037  0.00  0.00    +0.337 C 
ATOM     17  O   UNL     1     177.063 180.752 169.519  0.00  0.00    -0.245 OA
BRANCH  16  18
ATOM     18  O   UNL     1     178.670 180.403 171.149  0.00  0.00    -0.465 OA
ATOM     19  C   UNL     1     179.504 181.561 171.041  0.00  0.00    +0.280 C 
ENDBRANCH  16  18
ENDBRANCH   2  16
BRANCH   8  20
ATOM     20  C   UNL     1     178.498 175.082 170.602  0.00  0.00    +0.338 C 
ATOM     21  O   UNL     1     177.806 174.147 170.241  0.00  0.00    -0.245 OA
BRANCH  20  22
ATOM     22  O   UNL     1     179.193 175.214 171.757  0.00  0.00    -0.462 OA
BRANCH  22  23
ATOM     23  C   UNL     1     178.458 174.906 172.946  0.00  0.00    +0.229 C 
ATOM     24  C   UNL     1     179.002 175.735 174.089  0.00  0.00    +0.048 C 
ENDBRANCH  22  23
ENDBRANCH  20  22
ENDBRANCH   8  20
BRANCH   7  25
ATOM     25  C   UNL     1     180.288 175.127 168.182  0.00  0.00    +0.211 C 
BRANCH  25  26
ATOM     26  O   UNL     1     181.671 175.272 168.437  0.00  0.00    -0.373 OA
BRANCH  26  27
ATOM     27  C   UNL     1     182.061 174.607 169.635  0.00  0.00    +0.175 C 
BRANCH  27  28
ATOM     28  C   UNL     1     182.697 175.621 170.572  0.00  0.00    +0.106 C 
BRANCH  28  29
ATOM     29  N   UNL     1     182.229 175.424 171.936  0.00  0.00    -0.328 NA
ATOM     30  H   UNL     1     182.485 174.489 172.250  0.00  0.00    +0.118 HD
ATOM     31  H   UNL     1     181.212 175.467 171.960  0.00  0.00    +0.118 HD
ENDBRANCH  28  29
ENDBRANCH  27  28
ENDBRANCH  26  27
ENDBRANCH  25  26
ENDBRANCH   7  25
TORSDOF 11
