REMARK VINA RESULT:      -5.8      3.654      6.580
REMARK  Name = 2162
REMARK  14 active torsions:
REMARK  status: ('A' for Active; 'I' for Inactive)
REMARK    1  A    between atoms: O_2  and  C_15
REMARK    2  A    between atoms: O_2  and  C_24
REMARK    3  A    between atoms: O_3  and  C_16
REMARK    4  A    between atoms: O_3  and  C_25
REMARK    5  A    between atoms: O_4  and  C_18
REMARK    6  A    between atoms: O_4  and  C_27
REMARK    7  A    between atoms: N_8  and  C_26
REMARK    8  A    between atoms: C_9  and  C_14
REMARK    9  A    between atoms: C_10  and  C_16
REMARK   10  A    between atoms: C_11  and  C_18
REMARK   11  A    between atoms: C_12  and  C_15
REMARK   12  A    between atoms: C_13  and  C_17
REMARK   13  A    between atoms: C_24  and  C_26
REMARK   14  A    between atoms: C_25  and  C_28
REMARK                            x       y       z     vdW  Elec       q    Type
REMARK                         _______ _______ _______ _____ _____    ______ ____
ROOT
ATOM      1  C   UNL     1     180.219 177.853 171.347  0.00  0.00    +0.097 C 
ATOM      2  C   UNL     1     181.616 177.300 171.050  0.00  0.00    +0.065 C 
ATOM      3  C   UNL     1     182.729 177.969 171.425  0.00  0.00    +0.016 C 
ATOM      4  C   UNL     1     184.142 177.491 171.229  0.00  0.00    +0.061 C 
ATOM      5  N   UNL     1     182.610 179.205 172.040  0.00  0.00    -0.319 N 
ATOM      6  H   UNL     1     183.466 179.674 172.315  0.00  0.00    +0.152 HD
ATOM      7  C   UNL     1     181.415 179.879 172.235  0.00  0.00    +0.045 C 
ATOM      8  C   UNL     1     180.248 179.281 171.906  0.00  0.00    +0.068 C 
ENDROOT
BRANCH   1  15
ATOM      9 CL   UNL     1     177.433 176.805 170.533  0.00  0.00    -0.083 Cl
ATOM     10  C   UNL     1     178.237 176.427 172.011  0.00  0.00    +0.045 A 
ATOM     11  C   UNL     1     177.602 175.586 172.923  0.00  0.00    +0.020 A 
ATOM     12  C   UNL     1     178.227 175.261 174.127  0.00  0.00    +0.001 A 
ATOM     13  C   UNL     1     179.490 175.779 174.418  0.00  0.00    +0.000 A 
ATOM     14  C   UNL     1     180.125 176.620 173.506  0.00  0.00    +0.006 A 
ATOM     15  C   UNL     1     179.500 176.944 172.303  0.00  0.00    -0.017 A 
ENDBRANCH   1  15
BRANCH   2  16
ATOM     16  C   UNL     1     181.678 176.035 170.298  0.00  0.00    +0.337 C 
ATOM     17  O   UNL     1     181.316 175.926 169.141  0.00  0.00    -0.245 OA
BRANCH  16  18
ATOM     18  O   UNL     1     182.189 175.079 171.111  0.00  0.00    -0.465 OA
ATOM     19  C   UNL     1     182.722 173.934 170.439  0.00  0.00    +0.280 C 
ENDBRANCH  16  18
ENDBRANCH   2  16
BRANCH   8  20
ATOM     20  C   UNL     1     178.956 179.978 172.001  0.00  0.00    +0.338 C 
ATOM     21  O   UNL     1     178.152 179.778 172.894  0.00  0.00    -0.245 OA
BRANCH  20  22
ATOM     22  O   UNL     1     178.853 180.834 170.957  0.00  0.00    -0.462 OA
BRANCH  22  23
ATOM     23  C   UNL     1     178.257 180.285 169.777  0.00  0.00    +0.229 C 
ATOM     24  C   UNL     1     176.789 180.651 169.751  0.00  0.00    +0.048 C 
ENDBRANCH  22  23
ENDBRANCH  20  22
ENDBRANCH   8  20
BRANCH   7  25
ATOM     25  C   UNL     1     181.553 181.257 172.824  0.00  0.00    +0.211 C 
BRANCH  25  26
ATOM     26  O   UNL     1     182.581 181.256 173.795  0.00  0.00    -0.373 OA
BRANCH  26  27
ATOM     27  C   UNL     1     182.542 182.424 174.608  0.00  0.00    +0.175 C 
BRANCH  27  28
ATOM     28  C   UNL     1     183.780 182.446 175.491  0.00  0.00    +0.106 C 
BRANCH  28  29
ATOM     29  N   UNL     1     183.613 181.558 176.632  0.00  0.00    -0.328 NA
ATOM     30  H   UNL     1     183.148 182.060 177.387  0.00  0.00    +0.118 HD
ATOM     31  H   UNL     1     184.526 181.283 176.990  0.00  0.00    +0.118 HD
ENDBRANCH  28  29
ENDBRANCH  27  28
ENDBRANCH  26  27
ENDBRANCH  25  26
ENDBRANCH   7  25
TORSDOF 11
