REMARK VINA RESULT:      -5.6      2.744      4.432
REMARK  Name = 2162
REMARK  14 active torsions:
REMARK  status: ('A' for Active; 'I' for Inactive)
REMARK    1  A    between atoms: O_2  and  C_15
REMARK    2  A    between atoms: O_2  and  C_24
REMARK    3  A    between atoms: O_3  and  C_16
REMARK    4  A    between atoms: O_3  and  C_25
REMARK    5  A    between atoms: O_4  and  C_18
REMARK    6  A    between atoms: O_4  and  C_27
REMARK    7  A    between atoms: N_8  and  C_26
REMARK    8  A    between atoms: C_9  and  C_14
REMARK    9  A    between atoms: C_10  and  C_16
REMARK   10  A    between atoms: C_11  and  C_18
REMARK   11  A    between atoms: C_12  and  C_15
REMARK   12  A    between atoms: C_13  and  C_17
REMARK   13  A    between atoms: C_24  and  C_26
REMARK   14  A    between atoms: C_25  and  C_28
REMARK                            x       y       z     vdW  Elec       q    Type
REMARK                         _______ _______ _______ _____ _____    ______ ____
ROOT
ATOM      1  C   UNL     1     176.863 175.677 169.462  0.00  0.00    +0.097 C 
ATOM      2  C   UNL     1     175.518 176.278 169.043  0.00  0.00    +0.065 C 
ATOM      3  C   UNL     1     174.384 175.543 169.068  0.00  0.00    +0.016 C 
ATOM      4  C   UNL     1     173.008 176.049 168.729  0.00  0.00    +0.061 C 
ATOM      5  N   UNL     1     174.443 174.206 169.425  0.00  0.00    -0.319 N 
ATOM      6  H   UNL     1     173.571 173.688 169.442  0.00  0.00    +0.152 HD
ATOM      7  C   UNL     1     175.611 173.507 169.685  0.00  0.00    +0.045 C 
ATOM      8  C   UNL     1     176.794 174.164 169.699  0.00  0.00    +0.068 C 
ENDROOT
BRANCH   1  15
ATOM      9 CL   UNL     1     179.592 177.110 169.306  0.00  0.00    -0.083 Cl
ATOM     10  C   UNL     1     178.594 177.036 170.711  0.00  0.00    +0.045 A 
ATOM     11  C   UNL     1     179.031 177.664 171.877  0.00  0.00    +0.020 A 
ATOM     12  C   UNL     1     178.245 177.621 173.029  0.00  0.00    +0.001 A 
ATOM     13  C   UNL     1     177.022 176.951 173.014  0.00  0.00    +0.000 A 
ATOM     14  C   UNL     1     176.585 176.323 171.849  0.00  0.00    +0.006 A 
ATOM     15  C   UNL     1     177.371 176.365 170.697  0.00  0.00    -0.017 A 
ENDBRANCH   1  15
BRANCH   2  16
ATOM     16  C   UNL     1     175.538 177.673 168.570  0.00  0.00    +0.337 C 
ATOM     17  O   UNL     1     175.935 178.000 167.467  0.00  0.00    -0.245 OA
BRANCH  16  18
ATOM     18  O   UNL     1     175.054 178.465 169.557  0.00  0.00    -0.465 OA
ATOM     19  C   UNL     1     175.828 179.637 169.828  0.00  0.00    +0.280 C 
ENDBRANCH  16  18
ENDBRANCH   2  16
BRANCH   8  20
ATOM     20  C   UNL     1     178.076 173.464 169.875  0.00  0.00    +0.338 C 
ATOM     21  O   UNL     1     178.817 173.182 168.951  0.00  0.00    -0.245 OA
BRANCH  20  22
ATOM     22  O   UNL     1     178.251 173.216 171.195  0.00  0.00    -0.462 OA
BRANCH  22  23
ATOM     23  C   UNL     1     179.556 173.514 171.701  0.00  0.00    +0.229 C 
ATOM     24  C   UNL     1     179.430 174.032 173.117  0.00  0.00    +0.048 C 
ENDBRANCH  22  23
ENDBRANCH  20  22
ENDBRANCH   8  20
BRANCH   7  25
ATOM     25  C   UNL     1     175.428 172.036 169.942  0.00  0.00    +0.211 C 
BRANCH  25  26
ATOM     26  O   UNL     1     175.234 171.818 171.326  0.00  0.00    -0.373 OA
BRANCH  26  27
ATOM     27  C   UNL     1     174.595 170.571 171.581  0.00  0.00    +0.175 C 
BRANCH  27  28
ATOM     28  C   UNL     1     175.487 169.744 172.494  0.00  0.00    +0.106 C 
BRANCH  28  29
ATOM     29  N   UNL     1     175.373 168.328 172.178  0.00  0.00    -0.328 NA
ATOM     30  H   UNL     1     174.683 168.201 171.438  0.00  0.00    +0.118 HD
ATOM     31  H   UNL     1     175.022 167.822 172.988  0.00  0.00    +0.118 HD
ENDBRANCH  28  29
ENDBRANCH  27  28
ENDBRANCH  26  27
ENDBRANCH  25  26
ENDBRANCH   7  25
TORSDOF 11
