REMARK VINA RESULT:      -5.7      2.632      5.130
REMARK  Name = 2162
REMARK  14 active torsions:
REMARK  status: ('A' for Active; 'I' for Inactive)
REMARK    1  A    between atoms: O_2  and  C_15
REMARK    2  A    between atoms: O_2  and  C_24
REMARK    3  A    between atoms: O_3  and  C_16
REMARK    4  A    between atoms: O_3  and  C_25
REMARK    5  A    between atoms: O_4  and  C_18
REMARK    6  A    between atoms: O_4  and  C_27
REMARK    7  A    between atoms: N_8  and  C_26
REMARK    8  A    between atoms: C_9  and  C_14
REMARK    9  A    between atoms: C_10  and  C_16
REMARK   10  A    between atoms: C_11  and  C_18
REMARK   11  A    between atoms: C_12  and  C_15
REMARK   12  A    between atoms: C_13  and  C_17
REMARK   13  A    between atoms: C_24  and  C_26
REMARK   14  A    between atoms: C_25  and  C_28
REMARK                            x       y       z     vdW  Elec       q    Type
REMARK                         _______ _______ _______ _____ _____    ______ ____
ROOT
ATOM      1  C   UNL     1     178.490 176.655 170.604  0.00  0.00    +0.097 C 
ATOM      2  C   UNL     1     177.339 177.652 170.772  0.00  0.00    +0.065 C 
ATOM      3  C   UNL     1     176.059 177.292 170.524  0.00  0.00    +0.016 C 
ATOM      4  C   UNL     1     174.854 178.174 170.707  0.00  0.00    +0.061 C 
ATOM      5  N   UNL     1     175.786 176.017 170.055  0.00  0.00    -0.319 N 
ATOM      6  H   UNL     1     174.814 175.780 169.888  0.00  0.00    +0.152 HD
ATOM      7  C   UNL     1     176.744 175.073 169.725  0.00  0.00    +0.045 C 
ATOM      8  C   UNL     1     178.050 175.338 169.955  0.00  0.00    +0.068 C 
ENDROOT
BRANCH   1  15
ATOM      9 CL   UNL     1     181.524 177.146 170.883  0.00  0.00    -0.083 Cl
ATOM     10  C   UNL     1     180.495 176.577 172.145  0.00  0.00    +0.045 A 
ATOM     11  C   UNL     1     181.052 176.312 173.396  0.00  0.00    +0.020 A 
ATOM     12  C   UNL     1     180.245 175.852 174.436  0.00  0.00    +0.001 A 
ATOM     13  C   UNL     1     178.880 175.656 174.226  0.00  0.00    +0.000 A 
ATOM     14  C   UNL     1     178.323 175.921 172.976  0.00  0.00    +0.006 A 
ATOM     15  C   UNL     1     179.130 176.381 171.935  0.00  0.00    -0.017 A 
ENDBRANCH   1  15
BRANCH   2  16
ATOM     16  C   UNL     1     177.705 179.022 171.168  0.00  0.00    +0.337 C 
ATOM     17  O   UNL     1     177.695 179.410 172.321  0.00  0.00    -0.245 OA
BRANCH  16  18
ATOM     18  O   UNL     1     178.034 179.716 170.051  0.00  0.00    -0.465 OA
ATOM     19  C   UNL     1     177.265 180.901 169.826  0.00  0.00    +0.280 C 
ENDBRANCH  16  18
ENDBRANCH   2  16
BRANCH   8  20
ATOM     20  C   UNL     1     179.121 174.417 169.541  0.00  0.00    +0.338 C 
ATOM     21  O   UNL     1     179.829 174.609 168.569  0.00  0.00    -0.245 OA
BRANCH  20  22
ATOM     22  O   UNL     1     179.154 173.380 170.411  0.00  0.00    -0.462 OA
BRANCH  22  23
ATOM     23  C   UNL     1     180.451 173.057 170.923  0.00  0.00    +0.229 C 
ATOM     24  C   UNL     1     180.333 172.732 172.396  0.00  0.00    +0.048 C 
ENDBRANCH  22  23
ENDBRANCH  20  22
ENDBRANCH   8  20
BRANCH   7  25
ATOM     25  C   UNL     1     176.204 173.800 169.130  0.00  0.00    +0.211 C 
BRANCH  25  26
ATOM     26  O   UNL     1     174.854 173.635 169.515  0.00  0.00    -0.373 OA
BRANCH  26  27
ATOM     27  C   UNL     1     174.019 173.332 168.401  0.00  0.00    +0.175 C 
BRANCH  27  28
ATOM     28  C   UNL     1     172.816 174.261 168.426  0.00  0.00    +0.106 C 
BRANCH  28  29
ATOM     29  N   UNL     1     173.233 175.647 168.281  0.00  0.00    -0.328 NA
ATOM     30  H   UNL     1     173.398 176.049 169.203  0.00  0.00    +0.118 HD
ATOM     31  H   UNL     1     172.480 176.191 167.862  0.00  0.00    +0.118 HD
ENDBRANCH  28  29
ENDBRANCH  27  28
ENDBRANCH  26  27
ENDBRANCH  25  26
ENDBRANCH   7  25
TORSDOF 11
