REMARK VINA RESULT:      -5.8      0.000      0.000
REMARK  Name = 2162
REMARK  14 active torsions:
REMARK  status: ('A' for Active; 'I' for Inactive)
REMARK    1  A    between atoms: O_2  and  C_15
REMARK    2  A    between atoms: O_2  and  C_24
REMARK    3  A    between atoms: O_3  and  C_16
REMARK    4  A    between atoms: O_3  and  C_25
REMARK    5  A    between atoms: O_4  and  C_18
REMARK    6  A    between atoms: O_4  and  C_27
REMARK    7  A    between atoms: N_8  and  C_26
REMARK    8  A    between atoms: C_9  and  C_14
REMARK    9  A    between atoms: C_10  and  C_16
REMARK   10  A    between atoms: C_11  and  C_18
REMARK   11  A    between atoms: C_12  and  C_15
REMARK   12  A    between atoms: C_13  and  C_17
REMARK   13  A    between atoms: C_24  and  C_26
REMARK   14  A    between atoms: C_25  and  C_28
REMARK                            x       y       z     vdW  Elec       q    Type
REMARK                         _______ _______ _______ _____ _____    ______ ____
ROOT
ATOM      1  C   UNL     1     177.021 175.904 169.574  0.00  0.00    +0.097 C 
ATOM      2  C   UNL     1     176.032 174.737 169.653  0.00  0.00    +0.065 C 
ATOM      3  C   UNL     1     176.461 173.455 169.666  0.00  0.00    +0.016 C 
ATOM      4  C   UNL     1     175.582 172.241 169.793  0.00  0.00    +0.061 C 
ATOM      5  N   UNL     1     177.816 173.186 169.550  0.00  0.00    -0.319 N 
ATOM      6  H   UNL     1     178.102 172.213 169.573  0.00  0.00    +0.152 HD
ATOM      7  C   UNL     1     178.796 174.140 169.329  0.00  0.00    +0.045 C 
ATOM      8  C   UNL     1     178.462 175.450 169.316  0.00  0.00    +0.068 C 
ENDROOT
BRANCH   1  15
ATOM      9 CL   UNL     1     176.273 178.890 169.343  0.00  0.00    -0.083 Cl
ATOM     10  C   UNL     1     176.628 178.071 170.820  0.00  0.00    +0.045 A 
ATOM     11  C   UNL     1     176.578 178.791 172.013  0.00  0.00    +0.020 A 
ATOM     12  C   UNL     1     176.860 178.156 173.223  0.00  0.00    +0.001 A 
ATOM     13  C   UNL     1     177.190 176.801 173.240  0.00  0.00    +0.000 A 
ATOM     14  C   UNL     1     177.239 176.081 172.047  0.00  0.00    +0.006 A 
ATOM     15  C   UNL     1     176.958 176.716 170.837  0.00  0.00    -0.017 A 
ENDBRANCH   1  15
BRANCH   2  16
ATOM     16  C   UNL     1     174.601 175.084 169.664  0.00  0.00    +0.337 C 
ATOM     17  O   UNL     1     173.901 175.007 170.657  0.00  0.00    -0.245 OA
BRANCH  16  18
ATOM     18  O   UNL     1     174.248 175.482 168.417  0.00  0.00    -0.465 OA
ATOM     19  C   UNL     1     173.551 176.729 168.353  0.00  0.00    +0.280 C 
ENDBRANCH  16  18
ENDBRANCH   2  16
BRANCH   8  20
ATOM     20  C   UNL     1     179.438 176.504 168.994  0.00  0.00    +0.338 C 
ATOM     21  O   UNL     1     179.520 177.026 167.897  0.00  0.00    -0.245 OA
BRANCH  20  22
ATOM     22  O   UNL     1     180.176 176.757 170.101  0.00  0.00    -0.462 OA
BRANCH  22  23
ATOM     23  C   UNL     1     180.388 178.144 170.385  0.00  0.00    +0.229 C 
ATOM     24  C   UNL     1     180.368 178.349 171.884  0.00  0.00    +0.048 C 
ENDBRANCH  22  23
ENDBRANCH  20  22
ENDBRANCH   8  20
BRANCH   7  25
ATOM     25  C   UNL     1     180.182 173.591 169.126  0.00  0.00    +0.211 C 
BRANCH  25  26
ATOM     26  O   UNL     1     180.843 173.502 170.373  0.00  0.00    -0.373 OA
BRANCH  26  27
ATOM     27  C   UNL     1     182.244 173.306 170.218  0.00  0.00    +0.175 C 
BRANCH  27  28
ATOM     28  C   UNL     1     182.959 174.609 170.539  0.00  0.00    +0.106 C 
BRANCH  28  29
ATOM     29  N   UNL     1     182.352 175.259 171.690  0.00  0.00    -0.328 NA
ATOM     30  H   UNL     1     182.391 176.270 171.568  0.00  0.00    +0.118 HD
ATOM     31  H   UNL     1     182.893 175.050 172.528  0.00  0.00    +0.118 HD
ENDBRANCH  28  29
ENDBRANCH  27  28
ENDBRANCH  26  27
ENDBRANCH  25  26
ENDBRANCH   7  25
TORSDOF 11
