REMARK VINA RESULT:      -5.6      3.125      5.555
REMARK  Name = 2162
REMARK  14 active torsions:
REMARK  status: ('A' for Active; 'I' for Inactive)
REMARK    1  A    between atoms: O_2  and  C_15
REMARK    2  A    between atoms: O_2  and  C_24
REMARK    3  A    between atoms: O_3  and  C_16
REMARK    4  A    between atoms: O_3  and  C_25
REMARK    5  A    between atoms: O_4  and  C_18
REMARK    6  A    between atoms: O_4  and  C_27
REMARK    7  A    between atoms: N_8  and  C_26
REMARK    8  A    between atoms: C_9  and  C_14
REMARK    9  A    between atoms: C_10  and  C_16
REMARK   10  A    between atoms: C_11  and  C_18
REMARK   11  A    between atoms: C_12  and  C_15
REMARK   12  A    between atoms: C_13  and  C_17
REMARK   13  A    between atoms: C_24  and  C_26
REMARK   14  A    between atoms: C_25  and  C_28
REMARK                            x       y       z     vdW  Elec       q    Type
REMARK                         _______ _______ _______ _____ _____    ______ ____
ROOT
ATOM      1  C   UNL     1     177.251 174.142 172.154  0.00  0.00    +0.097 C 
ATOM      2  C   UNL     1     176.010 173.589 171.447  0.00  0.00    +0.065 C 
ATOM      3  C   UNL     1     175.044 174.412 170.980  0.00  0.00    +0.016 C 
ATOM      4  C   UNL     1     173.815 173.978 170.229  0.00  0.00    +0.061 C 
ATOM      5  N   UNL     1     175.147 175.777 171.193  0.00  0.00    -0.319 N 
ATOM      6  H   UNL     1     174.409 176.364 170.821  0.00  0.00    +0.152 HD
ATOM      7  C   UNL     1     176.142 176.389 171.939  0.00  0.00    +0.045 C 
ATOM      8  C   UNL     1     177.160 175.647 172.432  0.00  0.00    +0.068 C 
ENDROOT
BRANCH   1  15
ATOM      9 CL   UNL     1     179.598 172.699 173.544  0.00  0.00    -0.083 Cl
ATOM     10  C   UNL     1     179.583 173.197 171.892  0.00  0.00    +0.045 A 
ATOM     11  C   UNL     1     180.705 172.938 171.105  0.00  0.00    +0.020 A 
ATOM     12  C   UNL     1     180.723 173.329 169.767  0.00  0.00    +0.001 A 
ATOM     13  C   UNL     1     179.618 173.978 169.215  0.00  0.00    +0.000 A 
ATOM     14  C   UNL     1     178.497 174.236 170.002  0.00  0.00    +0.006 A 
ATOM     15  C   UNL     1     178.479 173.846 171.340  0.00  0.00    -0.017 A 
ENDBRANCH   1  15
BRANCH   2  16
ATOM     16  C   UNL     1     175.905 172.123 171.349  0.00  0.00    +0.337 C 
ATOM     17  O   UNL     1     175.757 171.532 170.295  0.00  0.00    -0.245 OA
BRANCH  16  18
ATOM     18  O   UNL     1     176.002 171.604 172.597  0.00  0.00    -0.465 OA
ATOM     19  C   UNL     1     174.770 171.527 173.319  0.00  0.00    +0.280 C 
ENDBRANCH  16  18
ENDBRANCH   2  16
BRANCH   8  20
ATOM     20  C   UNL     1     178.193 176.220 173.309  0.00  0.00    +0.338 C 
ATOM     21  O   UNL     1     178.246 176.009 174.507  0.00  0.00    -0.245 OA
BRANCH  20  22
ATOM     22  O   UNL     1     179.022 176.981 172.554  0.00  0.00    -0.462 OA
BRANCH  22  23
ATOM     23  C   UNL     1     180.418 176.767 172.782  0.00  0.00    +0.229 C 
ATOM     24  C   UNL     1     181.125 176.662 171.448  0.00  0.00    +0.048 C 
ENDBRANCH  22  23
ENDBRANCH  20  22
ENDBRANCH   8  20
BRANCH   7  25
ATOM     25  C   UNL     1     175.978 177.874 172.120  0.00  0.00    +0.211 C 
BRANCH  25  26
ATOM     26  O   UNL     1     175.024 178.360 171.196  0.00  0.00    -0.373 OA
BRANCH  26  27
ATOM     27  C   UNL     1     175.625 179.175 170.194  0.00  0.00    +0.175 C 
BRANCH  27  28
ATOM     28  C   UNL     1     175.429 178.509 168.841  0.00  0.00    +0.106 C 
BRANCH  28  29
ATOM     29  N   UNL     1     174.237 177.675 168.846  0.00  0.00    -0.328 NA
ATOM     30  H   UNL     1     173.993 177.439 169.807  0.00  0.00    +0.118 HD
ATOM     31  H   UNL     1     174.433 176.793 168.375  0.00  0.00    +0.118 HD
ENDBRANCH  28  29
ENDBRANCH  27  28
ENDBRANCH  26  27
ENDBRANCH  25  26
ENDBRANCH   7  25
TORSDOF 11
