MODEL 1
REMARK VINA RESULT:      -7.0      0.000      0.000
REMARK  Name = 4485
REMARK  10 active torsions:
REMARK  status: ('A' for Active; 'I' for Inactive)
REMARK    1  A    between atoms: O_1  and  C_17
REMARK    2  A    between atoms: O_1  and  C_24
REMARK    3  A    between atoms: O_2  and  C_18
REMARK    4  A    between atoms: O_2  and  C_25
REMARK    5  A    between atoms: N_8  and  C_15
REMARK    6  A    between atoms: C_9  and  C_12
REMARK    7  A    between atoms: C_10  and  C_17
REMARK    8  A    between atoms: C_11  and  C_18
REMARK    9  A    between atoms: C_13  and  C_19
REMARK   10  A    between atoms: C_14  and  C_20
REMARK                            x       y       z     vdW  Elec       q    Type
REMARK                         _______ _______ _______ _____ _____    ______ ____
ROOT
ATOM      1  C   UNL     1     148.193 148.648 142.913  0.00  0.00    +0.065 C 
ATOM      2  C   UNL     1     147.501 148.478 141.763  0.00  0.00    +0.016 C 
ATOM      3  C   UNL     1     146.127 149.023 141.481  0.00  0.00    +0.061 C 
ATOM      4  N   UNL     1     148.066 147.752 140.726  0.00  0.00    -0.321 N 
ATOM      5  H   UNL     1     147.522 147.650 139.876  0.00  0.00    +0.152 HD
ATOM      6  C   UNL     1     149.274 147.077 140.797  0.00  0.00    +0.016 C 
ATOM      7  C   UNL     1     149.621 146.265 139.577  0.00  0.00    +0.061 C 
ATOM      8  C   UNL     1     150.032 147.181 141.911  0.00  0.00    +0.065 C 
ATOM      9  C   UNL     1     149.609 148.081 143.076  0.00  0.00    +0.102 C 
ENDROOT
BRANCH   9  10
ATOM     10  C   UNL     1     150.594 149.204 143.239  0.00  0.00    +0.042 A 
ATOM     11  C   UNL     1     150.769 150.091 142.180  0.00  0.00    +0.011 A 
ATOM     12  C   UNL     1     151.675 151.144 142.301  0.00  0.00    +0.001 A 
ATOM     13  C   UNL     1     152.404 151.304 143.480  0.00  0.00    +0.007 A 
ATOM     14  C   UNL     1     152.225 150.412 144.538  0.00  0.00    +0.084 A 
ATOM     15  C   UNL     1     151.317 149.359 144.417  0.00  0.00    +0.277 A 
BRANCH  15  16
ATOM     16  N   UNL     1     151.151 148.464 145.508  0.00  0.00    +0.080 N 
ATOM     17  O   UNL     1     150.218 148.668 146.322  0.00  0.00    +0.041 OA
ATOM     18  O   UNL     1     151.941 147.497 145.626  0.00  0.00    -0.576 OA
ENDBRANCH  15  16
ENDBRANCH   9  10
BRANCH   1  19
ATOM     19  C   UNL     1     147.616 149.324 144.085  0.00  0.00    +0.337 C 
ATOM     20  O   UNL     1     147.052 148.735 144.988  0.00  0.00    -0.245 OA
BRANCH  19  21
ATOM     21  O   UNL     1     147.829 150.656 143.957  0.00  0.00    -0.465 OA
ATOM     22  C   UNL     1     148.240 151.323 145.156  0.00  0.00    +0.280 C 
ENDBRANCH  19  21
ENDBRANCH   1  19
BRANCH   8  23
ATOM     23  C   UNL     1     151.271 146.408 142.092  0.00  0.00    +0.337 C 
ATOM     24  O   UNL     1     152.374 146.833 141.802  0.00  0.00    -0.245 OA
BRANCH  23  25
ATOM     25  O   UNL     1     150.949 145.201 142.619  0.00  0.00    -0.465 OA
ATOM     26  C   UNL     1     151.939 144.632 143.482  0.00  0.00    +0.280 C 
ENDBRANCH  23  25
ENDBRANCH   8  23
TORSDOF 6
ENDMDL
MODEL 2
REMARK VINA RESULT:      -6.9      1.291      1.507
REMARK  Name = 4485
REMARK  10 active torsions:
REMARK  status: ('A' for Active; 'I' for Inactive)
REMARK    1  A    between atoms: O_1  and  C_17
REMARK    2  A    between atoms: O_1  and  C_24
REMARK    3  A    between atoms: O_2  and  C_18
REMARK    4  A    between atoms: O_2  and  C_25
REMARK    5  A    between atoms: N_8  and  C_15
REMARK    6  A    between atoms: C_9  and  C_12
REMARK    7  A    between atoms: C_10  and  C_17
REMARK    8  A    between atoms: C_11  and  C_18
REMARK    9  A    between atoms: C_13  and  C_19
REMARK   10  A    between atoms: C_14  and  C_20
REMARK                            x       y       z     vdW  Elec       q    Type
REMARK                         _______ _______ _______ _____ _____    ______ ____
ROOT
ATOM      1  C   UNL     1     147.678 148.691 142.994  0.00  0.00    +0.065 C 
ATOM      2  C   UNL     1     146.855 148.926 141.947  0.00  0.00    +0.016 C 
ATOM      3  C   UNL     1     145.662 149.843 141.961  0.00  0.00    +0.061 C 
ATOM      4  N   UNL     1     147.095 148.298 140.734  0.00  0.00    -0.321 N 
ATOM      5  H   UNL     1     146.462 148.503 139.969  0.00  0.00    +0.152 HD
ATOM      6  C   UNL     1     148.073 147.342 140.517  0.00  0.00    +0.016 C 
ATOM      7  C   UNL     1     148.062 146.722 139.145  0.00  0.00    +0.061 C 
ATOM      8  C   UNL     1     148.937 147.034 141.509  0.00  0.00    +0.065 C 
ATOM      9  C   UNL     1     148.894 147.767 142.853  0.00  0.00    +0.102 C 
ENDROOT
BRANCH   9  10
ATOM     10  C   UNL     1     150.160 148.553 143.049  0.00  0.00    +0.042 A 
ATOM     11  C   UNL     1     150.400 149.640 142.212  0.00  0.00    +0.011 A 
ATOM     12  C   UNL     1     151.565 150.390 142.369  0.00  0.00    +0.001 A 
ATOM     13  C   UNL     1     152.486 150.049 143.360  0.00  0.00    +0.007 A 
ATOM     14  C   UNL     1     152.240 148.958 144.196  0.00  0.00    +0.084 A 
ATOM     15  C   UNL     1     151.074 148.209 144.039  0.00  0.00    +0.277 A 
BRANCH  15  16
ATOM     16  N   UNL     1     150.844 147.103 144.902  0.00  0.00    +0.080 N 
ATOM     17  O   UNL     1     151.418 146.014 144.658  0.00  0.00    +0.041 OA
ATOM     18  O   UNL     1     150.074 147.247 145.881  0.00  0.00    -0.576 OA
ENDBRANCH  15  16
ENDBRANCH   9  10
BRANCH   1  19
ATOM     19  C   UNL     1     147.427 149.249 144.332  0.00  0.00    +0.337 C 
ATOM     20  O   UNL     1     147.038 148.584 145.274  0.00  0.00    -0.245 OA
BRANCH  19  21
ATOM     21  O   UNL     1     147.701 150.576 144.299  0.00  0.00    -0.465 OA
ATOM     22  C   UNL     1     148.643 151.026 145.280  0.00  0.00    +0.280 C 
ENDBRANCH  19  21
ENDBRANCH   1  19
BRANCH   8  23
ATOM     23  C   UNL     1     149.930 145.954 141.379  0.00  0.00    +0.337 C 
ATOM     24  O   UNL     1     150.927 146.042 140.687  0.00  0.00    -0.245 OA
BRANCH  23  25
ATOM     25  O   UNL     1     149.529 144.910 142.144  0.00  0.00    -0.465 OA
ATOM     26  C   UNL     1     149.015 143.788 141.419  0.00  0.00    +0.280 C 
ENDBRANCH  23  25
ENDBRANCH   8  23
TORSDOF 6
ENDMDL
MODEL 3
REMARK VINA RESULT:      -6.8      2.786      6.441
REMARK  Name = 4485
REMARK  10 active torsions:
REMARK  status: ('A' for Active; 'I' for Inactive)
REMARK    1  A    between atoms: O_1  and  C_17
REMARK    2  A    between atoms: O_1  and  C_24
REMARK    3  A    between atoms: O_2  and  C_18
REMARK    4  A    between atoms: O_2  and  C_25
REMARK    5  A    between atoms: N_8  and  C_15
REMARK    6  A    between atoms: C_9  and  C_12
REMARK    7  A    between atoms: C_10  and  C_17
REMARK    8  A    between atoms: C_11  and  C_18
REMARK    9  A    between atoms: C_13  and  C_19
REMARK   10  A    between atoms: C_14  and  C_20
REMARK                            x       y       z     vdW  Elec       q    Type
REMARK                         _______ _______ _______ _____ _____    ______ ____
ROOT
ATOM      1  C   UNL     1     150.417 143.626 142.487  0.00  0.00    +0.065 C 
ATOM      2  C   UNL     1     151.696 143.574 142.924  0.00  0.00    +0.016 C 
ATOM      3  C   UNL     1     152.648 142.429 142.706  0.00  0.00    +0.061 C 
ATOM      4  N   UNL     1     152.221 144.644 143.631  0.00  0.00    -0.321 N 
ATOM      5  H   UNL     1     153.185 144.575 143.937  0.00  0.00    +0.152 HD
ATOM      6  C   UNL     1     151.502 145.759 144.032  0.00  0.00    +0.016 C 
ATOM      7  C   UNL     1     152.266 146.733 144.888  0.00  0.00    +0.061 C 
ATOM      8  C   UNL     1     150.213 145.893 143.651  0.00  0.00    +0.065 C 
ATOM      9  C   UNL     1     149.547 144.866 142.730  0.00  0.00    +0.102 C 
ENDROOT
BRANCH   9  10
ATOM     10  C   UNL     1     149.191 145.507 141.419  0.00  0.00    +0.042 A 
ATOM     11  C   UNL     1     150.222 145.992 140.618  0.00  0.00    +0.011 A 
ATOM     12  C   UNL     1     149.924 146.592 139.395  0.00  0.00    +0.001 A 
ATOM     13  C   UNL     1     148.597 146.706 138.979  0.00  0.00    +0.007 A 
ATOM     14  C   UNL     1     147.568 146.218 139.786  0.00  0.00    +0.084 A 
ATOM     15  C   UNL     1     147.867 145.617 141.009  0.00  0.00    +0.277 A 
BRANCH  15  16
ATOM     16  N   UNL     1     146.803 145.127 141.814  0.00  0.00    +0.080 N 
ATOM     17  O   UNL     1     146.426 143.940 141.662  0.00  0.00    +0.041 OA
ATOM     18  O   UNL     1     146.271 145.895 142.651  0.00  0.00    -0.576 OA
ENDBRANCH  15  16
ENDBRANCH   9  10
BRANCH   1  19
ATOM     19  C   UNL     1     149.769 142.489 141.815  0.00  0.00    +0.337 C 
ATOM     20  O   UNL     1     150.029 142.147 140.676  0.00  0.00    -0.245 OA
BRANCH  19  21
ATOM     21  O   UNL     1     148.878 141.936 142.673  0.00  0.00    -0.465 OA
ATOM     22  C   UNL     1     149.022 140.525 142.873  0.00  0.00    +0.280 C 
ENDBRANCH  19  21
ENDBRANCH   1  19
BRANCH   8  23
ATOM     23  C   UNL     1     149.364 146.997 144.129  0.00  0.00    +0.337 C 
ATOM     24  O   UNL     1     148.518 146.864 144.993  0.00  0.00    -0.245 OA
BRANCH  23  25
ATOM     25  O   UNL     1     149.702 148.121 143.452  0.00  0.00    -0.465 OA
ATOM     26  C   UNL     1     148.609 148.808 142.833  0.00  0.00    +0.280 C 
ENDBRANCH  23  25
ENDBRANCH   8  23
TORSDOF 6
ENDMDL
MODEL 4
REMARK VINA RESULT:      -6.7      2.337      4.799
REMARK  Name = 4485
REMARK  10 active torsions:
REMARK  status: ('A' for Active; 'I' for Inactive)
REMARK    1  A    between atoms: O_1  and  C_17
REMARK    2  A    between atoms: O_1  and  C_24
REMARK    3  A    between atoms: O_2  and  C_18
REMARK    4  A    between atoms: O_2  and  C_25
REMARK    5  A    between atoms: N_8  and  C_15
REMARK    6  A    between atoms: C_9  and  C_12
REMARK    7  A    between atoms: C_10  and  C_17
REMARK    8  A    between atoms: C_11  and  C_18
REMARK    9  A    between atoms: C_13  and  C_19
REMARK   10  A    between atoms: C_14  and  C_20
REMARK                            x       y       z     vdW  Elec       q    Type
REMARK                         _______ _______ _______ _____ _____    ______ ____
ROOT
ATOM      1  C   UNL     1     150.050 148.556 142.190  0.00  0.00    +0.065 C 
ATOM      2  C   UNL     1     148.807 149.083 142.279  0.00  0.00    +0.016 C 
ATOM      3  C   UNL     1     147.589 148.580 141.552  0.00  0.00    +0.061 C 
ATOM      4  N   UNL     1     148.586 150.177 143.102  0.00  0.00    -0.321 N 
ATOM      5  H   UNL     1     147.641 150.542 143.151  0.00  0.00    +0.152 HD
ATOM      6  C   UNL     1     149.574 150.865 143.788  0.00  0.00    +0.016 C 
ATOM      7  C   UNL     1     149.099 152.089 144.525  0.00  0.00    +0.061 C 
ATOM      8  C   UNL     1     150.848 150.417 143.750  0.00  0.00    +0.065 C 
ATOM      9  C   UNL     1     151.212 149.125 143.012  0.00  0.00    +0.102 C 
ENDROOT
BRANCH   9  10
ATOM     10  C   UNL     1     151.700 148.096 143.992  0.00  0.00    +0.042 A 
ATOM     11  C   UNL     1     150.797 147.589 144.922  0.00  0.00    +0.011 A 
ATOM     12  C   UNL     1     151.219 146.631 145.845  0.00  0.00    +0.001 A 
ATOM     13  C   UNL     1     152.541 146.186 145.833  0.00  0.00    +0.007 A 
ATOM     14  C   UNL     1     153.442 146.698 144.898  0.00  0.00    +0.084 A 
ATOM     15  C   UNL     1     153.019 147.656 143.975  0.00  0.00    +0.277 A 
BRANCH  15  16
ATOM     16  N   UNL     1     153.953 148.163 143.031  0.00  0.00    +0.080 N 
ATOM     17  O   UNL     1     154.056 147.597 141.916  0.00  0.00    +0.041 OA
ATOM     18  O   UNL     1     154.649 149.160 143.340  0.00  0.00    -0.576 OA
ENDBRANCH  15  16
ENDBRANCH   9  10
BRANCH   1  19
ATOM     19  C   UNL     1     150.373 147.458 141.265  0.00  0.00    +0.337 C 
ATOM     20  O   UNL     1     150.861 147.631 140.164  0.00  0.00    -0.245 OA
BRANCH  19  21
ATOM     21  O   UNL     1     150.035 146.287 141.858  0.00  0.00    -0.465 OA
ATOM     22  C   UNL     1     151.038 145.266 141.801  0.00  0.00    +0.280 C 
ENDBRANCH  19  21
ENDBRANCH   1  19
BRANCH   8  23
ATOM     23  C   UNL     1     151.959 151.159 144.368  0.00  0.00    +0.337 C 
ATOM     24  O   UNL     1     152.759 151.820 143.731  0.00  0.00    -0.245 OA
BRANCH  23  25
ATOM     25  O   UNL     1     151.908 150.968 145.708  0.00  0.00    -0.465 OA
ATOM     26  C   UNL     1     153.139 150.553 146.309  0.00  0.00    +0.280 C 
ENDBRANCH  23  25
ENDBRANCH   8  23
TORSDOF 6
ENDMDL
MODEL 5
REMARK VINA RESULT:      -6.6      2.330      3.871
REMARK  Name = 4485
REMARK  10 active torsions:
REMARK  status: ('A' for Active; 'I' for Inactive)
REMARK    1  A    between atoms: O_1  and  C_17
REMARK    2  A    between atoms: O_1  and  C_24
REMARK    3  A    between atoms: O_2  and  C_18
REMARK    4  A    between atoms: O_2  and  C_25
REMARK    5  A    between atoms: N_8  and  C_15
REMARK    6  A    between atoms: C_9  and  C_12
REMARK    7  A    between atoms: C_10  and  C_17
REMARK    8  A    between atoms: C_11  and  C_18
REMARK    9  A    between atoms: C_13  and  C_19
REMARK   10  A    between atoms: C_14  and  C_20
REMARK                            x       y       z     vdW  Elec       q    Type
REMARK                         _______ _______ _______ _____ _____    ______ ____
ROOT
ATOM      1  C   UNL     1     149.722 151.286 146.051  0.00  0.00    +0.065 C 
ATOM      2  C   UNL     1     148.451 151.659 145.778  0.00  0.00    +0.016 C 
ATOM      3  C   UNL     1     147.797 152.937 146.231  0.00  0.00    +0.061 C 
ATOM      4  N   UNL     1     147.644 150.829 145.014  0.00  0.00    -0.321 N 
ATOM      5  H   UNL     1     146.699 151.143 144.823  0.00  0.00    +0.152 HD
ATOM      6  C   UNL     1     148.000 149.565 144.574  0.00  0.00    +0.016 C 
ATOM      7  C   UNL     1     146.911 148.812 143.858  0.00  0.00    +0.061 C 
ATOM      8  C   UNL     1     149.248 149.103 144.809  0.00  0.00    +0.065 C 
ATOM      9  C   UNL     1     150.299 149.977 145.500  0.00  0.00    +0.102 C 
ENDROOT
BRANCH   9  10
ATOM     10  C   UNL     1     151.425 150.274 144.550  0.00  0.00    +0.042 A 
ATOM     11  C   UNL     1     151.132 150.946 143.367  0.00  0.00    +0.011 A 
ATOM     12  C   UNL     1     152.155 151.236 142.464  0.00  0.00    +0.001 A 
ATOM     13  C   UNL     1     153.466 150.851 142.749  0.00  0.00    +0.007 A 
ATOM     14  C   UNL     1     153.753 150.178 143.937  0.00  0.00    +0.084 A 
ATOM     15  C   UNL     1     152.729 149.888 144.839  0.00  0.00    +0.277 A 
BRANCH  15  16
ATOM     16  N   UNL     1     153.046 149.202 146.044  0.00  0.00    +0.080 N 
ATOM     17  O   UNL     1     153.039 147.948 146.046  0.00  0.00    +0.041 OA
ATOM     18  O   UNL     1     153.322 149.870 147.068  0.00  0.00    -0.576 OA
ENDBRANCH  15  16
ENDBRANCH   9  10
BRANCH   1  19
ATOM     19  C   UNL     1     150.599 152.073 146.933  0.00  0.00    +0.337 C 
ATOM     20  O   UNL     1     150.794 151.798 148.103  0.00  0.00    -0.245 OA
BRANCH  19  21
ATOM     21  O   UNL     1     151.112 153.103 146.217  0.00  0.00    -0.465 OA
ATOM     22  C   UNL     1     152.522 153.302 146.366  0.00  0.00    +0.280 C 
ENDBRANCH  19  21
ENDBRANCH   1  19
BRANCH   8  23
ATOM     23  C   UNL     1     149.656 147.732 144.462  0.00  0.00    +0.337 C 
ATOM     24  O   UNL     1     149.740 146.833 145.277  0.00  0.00    -0.245 OA
BRANCH  23  25
ATOM     25  O   UNL     1     149.900 147.682 143.130  0.00  0.00    -0.465 OA
ATOM     26  C   UNL     1     151.161 147.110 142.765  0.00  0.00    +0.280 C 
ENDBRANCH  23  25
ENDBRANCH   8  23
TORSDOF 6
ENDMDL
MODEL 6
REMARK VINA RESULT:      -6.6      1.995      3.604
REMARK  Name = 4485
REMARK  10 active torsions:
REMARK  status: ('A' for Active; 'I' for Inactive)
REMARK    1  A    between atoms: O_1  and  C_17
REMARK    2  A    between atoms: O_1  and  C_24
REMARK    3  A    between atoms: O_2  and  C_18
REMARK    4  A    between atoms: O_2  and  C_25
REMARK    5  A    between atoms: N_8  and  C_15
REMARK    6  A    between atoms: C_9  and  C_12
REMARK    7  A    between atoms: C_10  and  C_17
REMARK    8  A    between atoms: C_11  and  C_18
REMARK    9  A    between atoms: C_13  and  C_19
REMARK   10  A    between atoms: C_14  and  C_20
REMARK                            x       y       z     vdW  Elec       q    Type
REMARK                         _______ _______ _______ _____ _____    ______ ____
ROOT
ATOM      1  C   UNL     1     149.600 147.231 142.052  0.00  0.00    +0.065 C 
ATOM      2  C   UNL     1     150.476 146.868 141.087  0.00  0.00    +0.016 C 
ATOM      3  C   UNL     1     150.109 146.395 139.706  0.00  0.00    +0.061 C 
ATOM      4  N   UNL     1     151.837 146.925 141.343  0.00  0.00    -0.321 N 
ATOM      5  H   UNL     1     152.465 146.652 140.595  0.00  0.00    +0.152 HD
ATOM      6  C   UNL     1     152.400 147.236 142.570  0.00  0.00    +0.016 C 
ATOM      7  C   UNL     1     153.900 147.120 142.628  0.00  0.00    +0.061 C 
ATOM      8  C   UNL     1     151.602 147.602 143.597  0.00  0.00    +0.065 C 
ATOM      9  C   UNL     1     150.088 147.741 143.413  0.00  0.00    +0.102 C 
ENDROOT
BRANCH   9  10
ATOM     10  C   UNL     1     149.678 149.174 143.601  0.00  0.00    +0.042 A 
ATOM     11  C   UNL     1     150.223 150.135 142.754  0.00  0.00    +0.011 A 
ATOM     12  C   UNL     1     149.862 151.474 142.902  0.00  0.00    +0.001 A 
ATOM     13  C   UNL     1     148.959 151.846 143.898  0.00  0.00    +0.007 A 
ATOM     14  C   UNL     1     148.415 150.879 144.744  0.00  0.00    +0.084 A 
ATOM     15  C   UNL     1     148.776 149.539 144.595  0.00  0.00    +0.277 A 
BRANCH  15  16
ATOM     16  N   UNL     1     148.209 148.571 145.468  0.00  0.00    +0.080 N 
ATOM     17  O   UNL     1     148.896 148.141 146.425  0.00  0.00    +0.041 OA
ATOM     18  O   UNL     1     147.038 148.174 145.255  0.00  0.00    -0.576 OA
ENDBRANCH  15  16
ENDBRANCH   9  10
BRANCH   1  19
ATOM     19  C   UNL     1     148.144 147.105 141.879  0.00  0.00    +0.337 C 
ATOM     20  O   UNL     1     147.488 146.200 142.362  0.00  0.00    -0.245 OA
BRANCH  19  21
ATOM     21  O   UNL     1     147.712 148.139 141.119  0.00  0.00    -0.465 OA
ATOM     22  C   UNL     1     146.556 148.820 141.621  0.00  0.00    +0.280 C 
ENDBRANCH  19  21
ENDBRANCH   1  19
BRANCH   8  23
ATOM     23  C   UNL     1     152.126 147.841 144.952  0.00  0.00    +0.337 C 
ATOM     24  O   UNL     1     152.069 147.018 145.846  0.00  0.00    -0.245 OA
BRANCH  23  25
ATOM     25  O   UNL     1     152.653 149.089 144.992  0.00  0.00    -0.465 OA
ATOM     26  C   UNL     1     152.233 149.889 146.102  0.00  0.00    +0.280 C 
ENDBRANCH  23  25
ENDBRANCH   8  23
TORSDOF 6
ENDMDL
MODEL 7
REMARK VINA RESULT:      -6.6      1.848      2.565
REMARK  Name = 4485
REMARK  10 active torsions:
REMARK  status: ('A' for Active; 'I' for Inactive)
REMARK    1  A    between atoms: O_1  and  C_17
REMARK    2  A    between atoms: O_1  and  C_24
REMARK    3  A    between atoms: O_2  and  C_18
REMARK    4  A    between atoms: O_2  and  C_25
REMARK    5  A    between atoms: N_8  and  C_15
REMARK    6  A    between atoms: C_9  and  C_12
REMARK    7  A    between atoms: C_10  and  C_17
REMARK    8  A    between atoms: C_11  and  C_18
REMARK    9  A    between atoms: C_13  and  C_19
REMARK   10  A    between atoms: C_14  and  C_20
REMARK                            x       y       z     vdW  Elec       q    Type
REMARK                         _______ _______ _______ _____ _____    ______ ____
ROOT
ATOM      1  C   UNL     1     148.713 147.558 143.816  0.00  0.00    +0.065 C 
ATOM      2  C   UNL     1     148.418 146.463 143.079  0.00  0.00    +0.016 C 
ATOM      3  C   UNL     1     147.083 146.164 142.451  0.00  0.00    +0.061 C 
ATOM      4  N   UNL     1     149.397 145.508 142.850  0.00  0.00    -0.321 N 
ATOM      5  H   UNL     1     149.144 144.704 142.287  0.00  0.00    +0.152 HD
ATOM      6  C   UNL     1     150.665 145.525 143.408  0.00  0.00    +0.016 C 
ATOM      7  C   UNL     1     151.510 144.318 143.099  0.00  0.00    +0.061 C 
ATOM      8  C   UNL     1     151.046 146.575 144.167  0.00  0.00    +0.065 C 
ATOM      9  C   UNL     1     150.124 147.781 144.373  0.00  0.00    +0.102 C 
ENDROOT
BRANCH   9  10
ATOM     10  C   UNL     1     150.733 149.005 143.750  0.00  0.00    +0.042 A 
ATOM     11  C   UNL     1     150.844 149.056 142.363  0.00  0.00    +0.011 A 
ATOM     12  C   UNL     1     151.404 150.179 141.754  0.00  0.00    +0.001 A 
ATOM     13  C   UNL     1     151.853 151.244 142.535  0.00  0.00    +0.007 A 
ATOM     14  C   UNL     1     151.740 151.187 143.925  0.00  0.00    +0.084 A 
ATOM     15  C   UNL     1     151.179 150.064 144.533  0.00  0.00    +0.277 A 
BRANCH  15  16
ATOM     16  N   UNL     1     151.072 150.028 145.951  0.00  0.00    +0.080 N 
ATOM     17  O   UNL     1     152.102 149.797 146.629  0.00  0.00    +0.041 OA
ATOM     18  O   UNL     1     149.953 150.228 146.480  0.00  0.00    -0.576 OA
ENDBRANCH  15  16
ENDBRANCH   9  10
BRANCH   1  19
ATOM     19  C   UNL     1     147.697 148.560 144.176  0.00  0.00    +0.337 C 
ATOM     20  O   UNL     1     147.074 148.536 145.222  0.00  0.00    -0.245 OA
BRANCH  19  21
ATOM     21  O   UNL     1     147.604 149.457 143.165  0.00  0.00    -0.465 OA
ATOM     22  C   UNL     1     146.283 149.659 142.651  0.00  0.00    +0.280 C 
ENDBRANCH  19  21
ENDBRANCH   1  19
BRANCH   8  23
ATOM     23  C   UNL     1     152.337 146.605 144.875  0.00  0.00    +0.337 C 
ATOM     24  O   UNL     1     152.444 146.462 146.078  0.00  0.00    -0.245 OA
BRANCH  23  25
ATOM     25  O   UNL     1     153.320 146.810 143.964  0.00  0.00    -0.465 OA
ATOM     26  C   UNL     1     154.194 147.907 144.250  0.00  0.00    +0.280 C 
ENDBRANCH  23  25
ENDBRANCH   8  23
TORSDOF 6
ENDMDL
MODEL 8
REMARK VINA RESULT:      -6.5      2.344      4.522
REMARK  Name = 4485
REMARK  10 active torsions:
REMARK  status: ('A' for Active; 'I' for Inactive)
REMARK    1  A    between atoms: O_1  and  C_17
REMARK    2  A    between atoms: O_1  and  C_24
REMARK    3  A    between atoms: O_2  and  C_18
REMARK    4  A    between atoms: O_2  and  C_25
REMARK    5  A    between atoms: N_8  and  C_15
REMARK    6  A    between atoms: C_9  and  C_12
REMARK    7  A    between atoms: C_10  and  C_17
REMARK    8  A    between atoms: C_11  and  C_18
REMARK    9  A    between atoms: C_13  and  C_19
REMARK   10  A    between atoms: C_14  and  C_20
REMARK                            x       y       z     vdW  Elec       q    Type
REMARK                         _______ _______ _______ _____ _____    ______ ____
ROOT
ATOM      1  C   UNL     1     151.777 148.468 142.683  0.00  0.00    +0.065 C 
ATOM      2  C   UNL     1     152.711 147.526 142.422  0.00  0.00    +0.016 C 
ATOM      3  C   UNL     1     154.194 147.682 142.630  0.00  0.00    +0.061 C 
ATOM      4  N   UNL     1     152.318 146.293 141.924  0.00  0.00    -0.321 N 
ATOM      5  H   UNL     1     153.043 145.608 141.746  0.00  0.00    +0.152 HD
ATOM      6  C   UNL     1     151.022 145.961 141.563  0.00  0.00    +0.016 C 
ATOM      7  C   UNL     1     150.865 144.600 140.940  0.00  0.00    +0.061 C 
ATOM      8  C   UNL     1     150.022 146.845 141.779  0.00  0.00    +0.065 C 
ATOM      9  C   UNL     1     150.285 148.185 142.473  0.00  0.00    +0.102 C 
ENDROOT
BRANCH   9  10
ATOM     10  C   UNL     1     149.564 148.230 143.790  0.00  0.00    +0.042 A 
ATOM     11  C   UNL     1     149.932 147.320 144.777  0.00  0.00    +0.011 A 
ATOM     12  C   UNL     1     149.282 147.337 146.011  0.00  0.00    +0.001 A 
ATOM     13  C   UNL     1     148.266 148.262 146.251  0.00  0.00    +0.007 A 
ATOM     14  C   UNL     1     147.901 149.172 145.258  0.00  0.00    +0.084 A 
ATOM     15  C   UNL     1     148.552 149.155 144.024  0.00  0.00    +0.277 A 
BRANCH  15  16
ATOM     16  N   UNL     1     148.165 150.092 143.027  0.00  0.00    +0.080 N 
ATOM     17  O   UNL     1     148.785 151.179 142.944  0.00  0.00    +0.041 OA
ATOM     18  O   UNL     1     147.214 149.805 142.261  0.00  0.00    -0.576 OA
ENDBRANCH  15  16
ENDBRANCH   9  10
BRANCH   1  19
ATOM     19  C   UNL     1     152.134 149.827 143.122  0.00  0.00    +0.337 C 
ATOM     20  O   UNL     1     152.106 150.797 142.388  0.00  0.00    -0.245 OA
BRANCH  19  21
ATOM     21  O   UNL     1     152.477 149.776 144.432  0.00  0.00    -0.465 OA
ATOM     22  C   UNL     1     151.757 150.675 145.284  0.00  0.00    +0.280 C 
ENDBRANCH  19  21
ENDBRANCH   1  19
BRANCH   8  23
ATOM     23  C   UNL     1     148.644 146.598 141.323  0.00  0.00    +0.337 C 
ATOM     24  O   UNL     1     147.873 145.852 141.898  0.00  0.00    -0.245 OA
BRANCH  23  25
ATOM     25  O   UNL     1     148.426 147.329 140.204  0.00  0.00    -0.465 OA
ATOM     26  C   UNL     1     148.082 146.570 139.040  0.00  0.00    +0.280 C 
ENDBRANCH  23  25
ENDBRANCH   8  23
TORSDOF 6
ENDMDL
MODEL 9
REMARK VINA RESULT:      -6.4     14.706     17.184
REMARK  Name = 4485
REMARK  10 active torsions:
REMARK  status: ('A' for Active; 'I' for Inactive)
REMARK    1  A    between atoms: O_1  and  C_17
REMARK    2  A    between atoms: O_1  and  C_24
REMARK    3  A    between atoms: O_2  and  C_18
REMARK    4  A    between atoms: O_2  and  C_25
REMARK    5  A    between atoms: N_8  and  C_15
REMARK    6  A    between atoms: C_9  and  C_12
REMARK    7  A    between atoms: C_10  and  C_17
REMARK    8  A    between atoms: C_11  and  C_18
REMARK    9  A    between atoms: C_13  and  C_19
REMARK   10  A    between atoms: C_14  and  C_20
REMARK                            x       y       z     vdW  Elec       q    Type
REMARK                         _______ _______ _______ _____ _____    ______ ____
ROOT
ATOM      1  C   UNL     1     161.611 159.071 138.627  0.00  0.00    +0.065 C 
ATOM      2  C   UNL     1     160.333 159.278 139.018  0.00  0.00    +0.016 C 
ATOM      3  C   UNL     1     159.897 160.189 140.134  0.00  0.00    +0.061 C 
ATOM      4  N   UNL     1     159.303 158.623 138.362  0.00  0.00    -0.321 N 
ATOM      5  H   UNL     1     158.357 158.808 138.676  0.00  0.00    +0.152 HD
ATOM      6  C   UNL     1     159.473 157.667 137.374  0.00  0.00    +0.016 C 
ATOM      7  C   UNL     1     158.204 157.016 136.894  0.00  0.00    +0.061 C 
ATOM      8  C   UNL     1     160.716 157.386 136.925  0.00  0.00    +0.065 C 
ATOM      9  C   UNL     1     161.938 158.150 137.445  0.00  0.00    +0.102 C 
ENDROOT
BRANCH   9  10
ATOM     10  C   UNL     1     162.557 158.946 136.331  0.00  0.00    +0.042 A 
ATOM     11  C   UNL     1     161.801 159.953 135.739  0.00  0.00    +0.011 A 
ATOM     12  C   UNL     1     162.347 160.711 134.702  0.00  0.00    +0.001 A 
ATOM     13  C   UNL     1     163.646 160.456 134.263  0.00  0.00    +0.007 A 
ATOM     14  C   UNL     1     164.400 159.445 134.860  0.00  0.00    +0.084 A 
ATOM     15  C   UNL     1     163.853 158.688 135.897  0.00  0.00    +0.277 A 
BRANCH  15  16
ATOM     16  N   UNL     1     164.639 157.664 136.492  0.00  0.00    +0.080 N 
ATOM     17  O   UNL     1     164.624 156.517 135.985  0.00  0.00    +0.041 OA
ATOM     18  O   UNL     1     165.324 157.937 137.506  0.00  0.00    -0.576 OA
ENDBRANCH  15  16
ENDBRANCH   9  10
BRANCH   1  19
ATOM     19  C   UNL     1     162.757 159.659 139.340  0.00  0.00    +0.337 C 
ATOM     20  O   UNL     1     163.182 160.777 139.116  0.00  0.00    -0.245 OA
BRANCH  19  21
ATOM     21  O   UNL     1     163.210 158.754 140.240  0.00  0.00    -0.465 OA
ATOM     22  C   UNL     1     163.197 159.193 141.603  0.00  0.00    +0.280 C 
ENDBRANCH  19  21
ENDBRANCH   1  19
BRANCH   8  23
ATOM     23  C   UNL     1     160.976 156.308 135.956  0.00  0.00    +0.337 C 
ATOM     24  O   UNL     1     161.401 155.213 136.272  0.00  0.00    -0.245 OA
BRANCH  23  25
ATOM     25  O   UNL     1     160.662 156.761 134.718  0.00  0.00    -0.465 OA
ATOM     26  C   UNL     1     161.635 156.486 133.706  0.00  0.00    +0.280 C 
ENDBRANCH  23  25
ENDBRANCH   8  23
TORSDOF 6
ENDMDL
MODEL 10
REMARK VINA RESULT:      -6.4     15.842     18.652
REMARK  Name = 4485
REMARK  10 active torsions:
REMARK  status: ('A' for Active; 'I' for Inactive)
REMARK    1  A    between atoms: O_1  and  C_17
REMARK    2  A    between atoms: O_1  and  C_24
REMARK    3  A    between atoms: O_2  and  C_18
REMARK    4  A    between atoms: O_2  and  C_25
REMARK    5  A    between atoms: N_8  and  C_15
REMARK    6  A    between atoms: C_9  and  C_12
REMARK    7  A    between atoms: C_10  and  C_17
REMARK    8  A    between atoms: C_11  and  C_18
REMARK    9  A    between atoms: C_13  and  C_19
REMARK   10  A    between atoms: C_14  and  C_20
REMARK                            x       y       z     vdW  Elec       q    Type
REMARK                         _______ _______ _______ _____ _____    ______ ____
ROOT
ATOM      1  C   UNL     1     163.716 160.247 141.668  0.00  0.00    +0.065 C 
ATOM      2  C   UNL     1     162.745 160.637 142.525  0.00  0.00    +0.016 C 
ATOM      3  C   UNL     1     162.968 161.152 143.922  0.00  0.00    +0.061 C 
ATOM      4  N   UNL     1     161.418 160.582 142.128  0.00  0.00    -0.321 N 
ATOM      5  H   UNL     1     160.718 160.889 142.793  0.00  0.00    +0.152 HD
ATOM      6  C   UNL     1     160.973 160.053 140.927  0.00  0.00    +0.016 C 
ATOM      7  C   UNL     1     159.476 160.001 140.773  0.00  0.00    +0.061 C 
ATOM      8  C   UNL     1     161.870 159.629 140.011  0.00  0.00    +0.065 C 
ATOM      9  C   UNL     1     163.376 159.779 140.247  0.00  0.00    +0.102 C 
ENDROOT
BRANCH   9  10
ATOM     10  C   UNL     1     163.961 160.728 139.241  0.00  0.00    +0.042 A 
ATOM     11  C   UNL     1     163.477 162.033 139.203  0.00  0.00    +0.011 A 
ATOM     12  C   UNL     1     164.000 162.939 138.280  0.00  0.00    +0.001 A 
ATOM     13  C   UNL     1     165.003 162.535 137.399  0.00  0.00    +0.007 A 
ATOM     14  C   UNL     1     165.485 161.226 137.442  0.00  0.00    +0.084 A 
ATOM     15  C   UNL     1     164.962 160.321 138.365  0.00  0.00    +0.277 A 
BRANCH  15  16
ATOM     16  N   UNL     1     165.468 158.992 138.392  0.00  0.00    +0.080 N 
ATOM     17  O   UNL     1     166.564 158.773 138.961  0.00  0.00    +0.041 OA
ATOM     18  O   UNL     1     164.805 158.079 137.844  0.00  0.00    -0.576 OA
ENDBRANCH  15  16
ENDBRANCH   9  10
BRANCH   1  19
ATOM     19  C   UNL     1     165.134 160.191 142.058  0.00  0.00    +0.337 C 
ATOM     20  O   UNL     1     165.752 159.151 142.188  0.00  0.00    -0.245 OA
BRANCH  19  21
ATOM     21  O   UNL     1     165.579 161.458 142.233  0.00  0.00    -0.465 OA
ATOM     22  C   UNL     1     166.891 161.568 142.798  0.00  0.00    +0.280 C 
ENDBRANCH  19  21
ENDBRANCH   1  19
BRANCH   8  23
ATOM     23  C   UNL     1     161.463 158.960 138.764  0.00  0.00    +0.337 C 
ATOM     24  O   UNL     1     161.294 159.550 137.713  0.00  0.00    -0.245 OA
BRANCH  23  25
ATOM     25  O   UNL     1     161.327 157.635 139.013  0.00  0.00    -0.465 OA
ATOM     26  C   UNL     1     160.547 156.914 138.054  0.00  0.00    +0.280 C 
ENDBRANCH  23  25
ENDBRANCH   8  23
TORSDOF 6
ENDMDL
