REMARK  6 active torsions:
REMARK  status: ('A' for Active; 'I' for Inactive)
REMARK    1  A    between atoms: O_2  and  C_9 
REMARK    2  A    between atoms: O_4  and  C_14 
REMARK    3  A    between atoms: O_5  and  C_19 
REMARK    4  A    between atoms: O_6  and  C_20 
REMARK    5  A    between atoms: O_7  and  C_22 
REMARK    6  A    between atoms: C_8  and  C_10 
ROOT
HETATM    1  O   UNK     0       0.279  -0.874   0.093  0.00  0.00    -0.337 OA
HETATM    2  O   UNK     0       2.040   2.823  -0.180  0.00  0.00    -0.289 OA
HETATM    3  C   UNK     0      -0.404   0.311   0.531  0.00  0.00     0.198 C 
HETATM    4  C   UNK     0       0.007   1.527  -0.300  0.00  0.00     0.227 C 
HETATM    5  C   UNK     0       1.502   1.722  -0.170  0.00  0.00     0.196 C 
HETATM    6  C   UNK     0       2.299   0.484  -0.065  0.00  0.00     0.079 A 
HETATM    7  C   UNK     0       1.641  -0.743   0.044  0.00  0.00     0.089 A 
HETATM    8  C   UNK     0       3.695   0.536  -0.104  0.00  0.00     0.085 A 
HETATM    9  C   UNK     0       2.383  -1.925   0.079  0.00  0.00     0.074 A 
HETATM   10  C   UNK     0       4.431  -0.647  -0.049  0.00  0.00     0.074 A 
HETATM   11  C   UNK     0       3.777  -1.876   0.037  0.00  0.00     0.071 A 
ENDROOT
BRANCH   3  12
HETATM   12  C   UNK     0      -1.892   0.036   0.428  0.00  0.00    -0.023 A 
HETATM   13  C   UNK     0      -2.468  -0.207  -0.817  0.00  0.00     0.049 A 
HETATM   14  C   UNK     0      -3.837  -0.460  -0.913  0.00  0.00     0.099 A 
HETATM   15  C   UNK     0      -4.626  -0.468   0.237  0.00  0.00     0.098 A 
HETATM   16  C   UNK     0      -4.047  -0.225   1.483  0.00  0.00     0.040 A 
HETATM   17  C   UNK     0      -2.679   0.028   1.578  0.00  0.00     0.013 A 
BRANCH  14  18
HETATM   18  O   UNK     0      -4.391  -0.697  -2.134  0.00  0.00    -0.358 OA
HETATM   19  H   UNK     0      -5.344  -0.851  -2.013  0.00  0.00     0.217 HD
ENDBRANCH  14  18
BRANCH  15  20
HETATM   20  O   UNK     0      -5.964  -0.715   0.157  0.00  0.00    -0.358 OA
HETATM   21  H   UNK     0      -6.346  -0.681   1.051  0.00  0.00     0.217 HD
ENDBRANCH  15  20
ENDBRANCH   3  12
BRANCH   4  22
HETATM   22  O   UNK     0      -0.634   2.693   0.189  0.00  0.00    -0.385 OA
HETATM   23  H   UNK     0      -0.407   3.425  -0.409  0.00  0.00     0.210 HD
ENDBRANCH   4  22
BRANCH   8  24
HETATM   24  O   UNK     0       4.386   1.706  -0.206  0.00  0.00    -0.360 OA
HETATM   25  H   UNK     0       3.779   2.461  -0.232  0.00  0.00     0.217 HD
ENDBRANCH   8  24
BRANCH  11  26
HETATM   26  O   UNK     0       4.499  -3.029   0.082  0.00  0.00    -0.361 OA
HETATM   27  H   UNK     0       3.887  -3.783   0.141  0.00  0.00     0.217 HD
ENDBRANCH  11  26
TORSDOF 6
