MODEL 1
REMARK VINA RESULT:      -8.1      0.000      0.000
REMARK  16 active torsions:
REMARK  status: ('A' for Active; 'I' for Inactive)
REMARK    1  A    between atoms: O_2  and  C_22 
REMARK    2  A    between atoms: O_2  and  C_26 
REMARK    3  A    between atoms: O_4  and  C_18 
REMARK    4  A    between atoms: O_5  and  C_19 
REMARK    5  A    between atoms: O_6  and  C_25 
REMARK    6  A    between atoms: O_6  and  C_29 
REMARK    7  A    between atoms: O_7  and  C_20 
REMARK    8  A    between atoms: O_8  and  C_21 
REMARK    9  A    between atoms: O_9  and  C_23 
REMARK   10  A    between atoms: O_10  and  C_24 
REMARK   11  A    between atoms: O_13  and  C_35 
REMARK   12  A    between atoms: O_14  and  C_40 
REMARK   13  A    between atoms: O_15  and  C_41 
REMARK   14  A    between atoms: O_16  and  C_43 
REMARK   15  A    between atoms: C_17  and  C_26 
REMARK   16  A    between atoms: C_30  and  C_33 
ROOT
HETATM    1  O   UNK     0      14.250  21.815   0.732  0.00  0.00    -0.348 OA
HETATM    2  C   UNK     0      14.722  22.766   1.687  0.00  0.00     0.180 C 
HETATM    3  C   UNK     0      16.252  22.749   1.728  0.00  0.00     0.180 C 
HETATM    4  C   UNK     0      16.772  21.342   2.023  0.00  0.00     0.183 C 
HETATM    5  C   UNK     0      16.117  20.307   1.108  0.00  0.00     0.205 C 
HETATM    6  C   UNK     0      14.598  20.475   1.076  0.00  0.00     0.298 C 
ENDROOT
BRANCH   2   7
HETATM    7  C   UNK     0      14.183  24.133   1.279  0.00  0.00     0.205 C 
BRANCH   7   8
HETATM    8  O   UNK     0      15.087  24.733   0.363  0.00  0.00    -0.356 OA
BRANCH   8   9
HETATM    9  C   UNK     0      14.508  24.859  -0.932  0.00  0.00     0.291 C 
HETATM   10  O   UNK     0      15.129  24.000  -1.893  0.00  0.00    -0.351 OA
HETATM   11  C   UNK     0      16.505  24.301  -2.148  0.00  0.00     0.152 C 
HETATM   12  C   UNK     0      16.667  25.736  -2.668  0.00  0.00     0.178 C 
HETATM   13  C   UNK     0      17.010  23.269  -3.152  0.00  0.00     0.042 C 
HETATM   14  C   UNK     0      16.017  26.724  -1.699  0.00  0.00     0.183 C 
HETATM   15  C   UNK     0      14.576  26.316  -1.387  0.00  0.00     0.204 C 
BRANCH  12  16
HETATM   16  O   UNK     0      18.050  26.068  -2.778  0.00  0.00    -0.390 OA
HETATM   17  H   UNK     0      18.401  25.626  -3.569  0.00  0.00     0.210 HD
ENDBRANCH  12  16
BRANCH  14  18
HETATM   18  O   UNK     0      16.039  28.029  -2.273  0.00  0.00    -0.390 OA
HETATM   19  H   UNK     0      16.768  28.523  -1.859  0.00  0.00     0.210 HD
ENDBRANCH  14  18
BRANCH  15  20
HETATM   20  O   UNK     0      13.769  26.443  -2.559  0.00  0.00    -0.388 OA
HETATM   21  H   UNK     0      12.994  25.863  -2.463  0.00  0.00     0.210 HD
ENDBRANCH  15  20
ENDBRANCH   8   9
ENDBRANCH   7   8
ENDBRANCH   2   7
BRANCH   6  22
HETATM   22  O   UNK     0      14.077  19.576   0.099  0.00  0.00    -0.311 OA
BRANCH  22  23
HETATM   23  C   UNK     0      12.967  18.907   0.566  0.00  0.00     0.157 A 
HETATM   24  C   UNK     0      11.719  19.402   0.478  0.00  0.00     0.124 A 
HETATM   25  O   UNK     0      10.586  18.770   0.967  0.00  0.00    -0.306 OA
HETATM   26  C   UNK     0      10.727  17.546   1.567  0.00  0.00     0.096 A 
HETATM   27  C   UNK     0      11.961  16.916   1.716  0.00  0.00     0.084 A 
HETATM   28  C   UNK     0       9.568  16.930   2.040  0.00  0.00     0.075 A 
HETATM   29  C   UNK     0      13.169  17.587   1.211  0.00  0.00     0.223 A 
HETATM   30  C   UNK     0      12.045  15.667   2.338  0.00  0.00     0.085 A 
HETATM   31  O   UNK     0      14.279  17.085   1.319  0.00  0.00    -0.284 OA
HETATM   32  C   UNK     0      10.883  15.054   2.810  0.00  0.00     0.074 A 
HETATM   33  C   UNK     0       9.648  15.684   2.661  0.00  0.00     0.071 A 
BRANCH  24  34
HETATM   34  C   UNK     0      11.427  20.707  -0.141  0.00  0.00     0.004 A 
HETATM   35  C   UNK     0      11.618  20.888  -1.511  0.00  0.00     0.053 A 
HETATM   36  C   UNK     0      11.339  22.123  -2.097  0.00  0.00     0.099 A 
HETATM   37  C   UNK     0      10.871  23.177  -1.313  0.00  0.00     0.098 A 
HETATM   38  C   UNK     0      10.681  22.997   0.056  0.00  0.00     0.040 A 
HETATM   39  C   UNK     0      10.958  21.762   0.642  0.00  0.00     0.017 A 
BRANCH  36  40
HETATM   40  O   UNK     0      11.532  22.288  -3.436  0.00  0.00    -0.358 OA
HETATM   41  H   UNK     0      12.480  22.240  -3.638  0.00  0.00     0.217 HD
ENDBRANCH  36  40
BRANCH  37  42
HETATM   42  O   UNK     0      10.596  24.387  -1.875  0.00  0.00    -0.358 OA
HETATM   43  H   UNK     0       9.909  24.839  -1.359  0.00  0.00     0.217 HD
ENDBRANCH  37  42
ENDBRANCH  24  34
BRANCH  30  44
HETATM   44  O   UNK     0      13.225  15.010   2.509  0.00  0.00    -0.360 OA
HETATM   45  H   UNK     0      13.897  15.629   2.842  0.00  0.00     0.217 HD
ENDBRANCH  30  44
BRANCH  33  46
HETATM   46  O   UNK     0       8.518  15.082   3.123  0.00  0.00    -0.361 OA
HETATM   47  H   UNK     0       8.521  15.109   4.095  0.00  0.00     0.217 HD
ENDBRANCH  33  46
ENDBRANCH  22  23
ENDBRANCH   6  22
BRANCH   3  48
HETATM   48  O   UNK     0      16.706  23.641   2.743  0.00  0.00    -0.390 OA
HETATM   49  H   UNK     0      16.726  24.538   2.368  0.00  0.00     0.210 HD
ENDBRANCH   3  48
BRANCH   5  50
HETATM   50  O   UNK     0      16.412  18.996   1.588  0.00  0.00    -0.388 OA
HETATM   51  H   UNK     0      17.368  18.847   1.491  0.00  0.00     0.210 HD
ENDBRANCH   5  50
BRANCH   4  52
HETATM   52  O   UNK     0      18.185  21.340   1.810  0.00  0.00    -0.390 OA
HETATM   53  H   UNK     0      18.392  22.088   1.224  0.00  0.00     0.210 HD
ENDBRANCH   4  52
TORSDOF 16
ENDMDL
MODEL 2
REMARK VINA RESULT:      -8.0     23.666     27.794
REMARK  16 active torsions:
REMARK  status: ('A' for Active; 'I' for Inactive)
REMARK    1  A    between atoms: O_2  and  C_22 
REMARK    2  A    between atoms: O_2  and  C_26 
REMARK    3  A    between atoms: O_4  and  C_18 
REMARK    4  A    between atoms: O_5  and  C_19 
REMARK    5  A    between atoms: O_6  and  C_25 
REMARK    6  A    between atoms: O_6  and  C_29 
REMARK    7  A    between atoms: O_7  and  C_20 
REMARK    8  A    between atoms: O_8  and  C_21 
REMARK    9  A    between atoms: O_9  and  C_23 
REMARK   10  A    between atoms: O_10  and  C_24 
REMARK   11  A    between atoms: O_13  and  C_35 
REMARK   12  A    between atoms: O_14  and  C_40 
REMARK   13  A    between atoms: O_15  and  C_41 
REMARK   14  A    between atoms: O_16  and  C_43 
REMARK   15  A    between atoms: C_17  and  C_26 
REMARK   16  A    between atoms: C_30  and  C_33 
ROOT
HETATM    1  O   UNK     0      28.463  37.899  14.079  0.00  0.00    -0.348 OA
HETATM    2  C   UNK     0      29.118  36.716  13.619  0.00  0.00     0.180 C 
HETATM    3  C   UNK     0      28.114  35.806  12.907  0.00  0.00     0.180 C 
HETATM    4  C   UNK     0      26.932  35.482  13.821  0.00  0.00     0.183 C 
HETATM    5  C   UNK     0      26.355  36.750  14.450  0.00  0.00     0.205 C 
HETATM    6  C   UNK     0      27.456  37.624  15.050  0.00  0.00     0.298 C 
ENDROOT
BRANCH   2   7
HETATM    7  C   UNK     0      30.248  37.148  12.689  0.00  0.00     0.205 C 
BRANCH   7   8
HETATM    8  O   UNK     0      29.746  37.241  11.364  0.00  0.00    -0.356 OA
BRANCH   8   9
HETATM    9  C   UNK     0      29.852  38.568  10.858  0.00  0.00     0.291 C 
HETATM   10  O   UNK     0      28.923  39.463  11.477  0.00  0.00    -0.351 OA
HETATM   11  C   UNK     0      27.550  39.153  11.221  0.00  0.00     0.152 C 
HETATM   12  C   UNK     0      27.251  39.177   9.715  0.00  0.00     0.178 C 
HETATM   13  C   UNK     0      26.711  40.174  11.986  0.00  0.00     0.042 C 
HETATM   14  C   UNK     0      28.213  38.249   8.973  0.00  0.00     0.183 C 
HETATM   15  C   UNK     0      29.665  38.559   9.342  0.00  0.00     0.204 C 
BRANCH  12  16
HETATM   16  O   UNK     0      25.921  38.725   9.469  0.00  0.00    -0.390 OA
HETATM   17  H   UNK     0      25.863  37.798   9.754  0.00  0.00     0.210 HD
ENDBRANCH  12  16
BRANCH  14  18
HETATM   18  O   UNK     0      28.026  38.404   7.568  0.00  0.00    -0.390 OA
HETATM   19  H   UNK     0      28.228  37.551   7.146  0.00  0.00     0.210 HD
ENDBRANCH  14  18
BRANCH  15  20
HETATM   20  O   UNK     0      30.028  39.850   8.852  0.00  0.00    -0.388 OA
HETATM   21  H   UNK     0      30.996  39.886   8.767  0.00  0.00     0.210 HD
ENDBRANCH  15  20
ENDBRANCH   8   9
ENDBRANCH   7   8
ENDBRANCH   2   7
BRANCH   6  22
HETATM   22  O   UNK     0      26.861  38.845  15.486  0.00  0.00    -0.311 OA
BRANCH  22  23
HETATM   23  C   UNK     0      27.462  39.323  16.629  0.00  0.00     0.157 A 
HETATM   24  C   UNK     0      28.088  40.512  16.688  0.00  0.00     0.124 A 
HETATM   25  O   UNK     0      28.731  41.009  17.812  0.00  0.00    -0.306 OA
HETATM   26  C   UNK     0      28.719  40.255  18.958  0.00  0.00     0.096 A 
HETATM   27  C   UNK     0      28.099  39.010  19.036  0.00  0.00     0.084 A 
HETATM   28  C   UNK     0      29.365  40.786  20.075  0.00  0.00     0.075 A 
HETATM   29  C   UNK     0      27.428  38.473  17.843  0.00  0.00     0.223 A 
HETATM   30  C   UNK     0      28.121  38.286  20.232  0.00  0.00     0.085 A 
HETATM   31  O   UNK     0      26.872  37.383  17.851  0.00  0.00    -0.284 OA
HETATM   32  C   UNK     0      28.768  38.819  21.348  0.00  0.00     0.074 A 
HETATM   33  C   UNK     0      29.388  40.066  21.270  0.00  0.00     0.071 A 
BRANCH  24  34
HETATM   34  C   UNK     0      28.177  41.419  15.530  0.00  0.00     0.004 A 
HETATM   35  C   UNK     0      27.190  42.383  15.321  0.00  0.00     0.053 A 
HETATM   36  C   UNK     0      27.275  43.242  14.225  0.00  0.00     0.099 A 
HETATM   37  C   UNK     0      28.345  43.137  13.338  0.00  0.00     0.098 A 
HETATM   38  C   UNK     0      29.331  42.173  13.546  0.00  0.00     0.040 A 
HETATM   39  C   UNK     0      29.247  41.315  14.641  0.00  0.00     0.017 A 
BRANCH  36  40
HETATM   40  O   UNK     0      26.304  44.179  14.031  0.00  0.00    -0.358 OA
HETATM   41  H   UNK     0      25.531  43.967  14.580  0.00  0.00     0.217 HD
ENDBRANCH  36  40
BRANCH  37  42
HETATM   42  O   UNK     0      28.438  43.971  12.264  0.00  0.00    -0.358 OA
HETATM   43  H   UNK     0      27.592  44.425  12.128  0.00  0.00     0.217 HD
ENDBRANCH  37  42
ENDBRANCH  24  34
BRANCH  30  44
HETATM   44  O   UNK     0      27.532  37.065  20.361  0.00  0.00    -0.360 OA
HETATM   45  H   UNK     0      27.946  36.437  19.745  0.00  0.00     0.217 HD
ENDBRANCH  30  44
BRANCH  33  46
HETATM   46  O   UNK     0      30.018  40.581  22.361  0.00  0.00    -0.361 OA
HETATM   47  H   UNK     0      29.360  41.015  22.930  0.00  0.00     0.217 HD
ENDBRANCH  33  46
ENDBRANCH  22  23
ENDBRANCH   6  22
BRANCH   3  48
HETATM   48  O   UNK     0      28.762  34.595  12.528  0.00  0.00    -0.390 OA
HETATM   49  H   UNK     0      28.136  33.864  12.662  0.00  0.00     0.210 HD
ENDBRANCH   3  48
BRANCH   5  50
HETATM   50  O   UNK     0      25.449  36.392  15.493  0.00  0.00    -0.388 OA
HETATM   51  H   UNK     0      25.392  37.138  16.113  0.00  0.00     0.210 HD
ENDBRANCH   5  50
BRANCH   4  52
HETATM   52  O   UNK     0      25.927  34.842  13.032  0.00  0.00    -0.390 OA
HETATM   53  H   UNK     0      25.463  34.212  13.609  0.00  0.00     0.210 HD
ENDBRANCH   4  52
TORSDOF 16
ENDMDL
MODEL 3
REMARK VINA RESULT:      -7.8     21.708     25.878
REMARK  16 active torsions:
REMARK  status: ('A' for Active; 'I' for Inactive)
REMARK    1  A    between atoms: O_2  and  C_22 
REMARK    2  A    between atoms: O_2  and  C_26 
REMARK    3  A    between atoms: O_4  and  C_18 
REMARK    4  A    between atoms: O_5  and  C_19 
REMARK    5  A    between atoms: O_6  and  C_25 
REMARK    6  A    between atoms: O_6  and  C_29 
REMARK    7  A    between atoms: O_7  and  C_20 
REMARK    8  A    between atoms: O_8  and  C_21 
REMARK    9  A    between atoms: O_9  and  C_23 
REMARK   10  A    between atoms: O_10  and  C_24 
REMARK   11  A    between atoms: O_13  and  C_35 
REMARK   12  A    between atoms: O_14  and  C_40 
REMARK   13  A    between atoms: O_15  and  C_41 
REMARK   14  A    between atoms: O_16  and  C_43 
REMARK   15  A    between atoms: C_17  and  C_26 
REMARK   16  A    between atoms: C_30  and  C_33 
ROOT
HETATM    1  O   UNK     0      30.358  30.894  16.990  0.00  0.00    -0.348 OA
HETATM    2  C   UNK     0      30.986  32.119  16.606  0.00  0.00     0.180 C 
HETATM    3  C   UNK     0      29.925  33.194  16.357  0.00  0.00     0.180 C 
HETATM    4  C   UNK     0      28.911  32.724  15.314  0.00  0.00     0.183 C 
HETATM    5  C   UNK     0      28.383  31.328  15.645  0.00  0.00     0.205 C 
HETATM    6  C   UNK     0      29.524  30.363  15.963  0.00  0.00     0.298 C 
ENDROOT
BRANCH   2   7
HETATM    7  C   UNK     0      31.941  32.517  17.728  0.00  0.00     0.205 C 
BRANCH   7   8
HETATM    8  O   UNK     0      31.665  31.724  18.873  0.00  0.00    -0.356 OA
BRANCH   8   9
HETATM    9  C   UNK     0      31.268  32.527  19.979  0.00  0.00     0.291 C 
HETATM   10  O   UNK     0      31.836  32.077  21.213  0.00  0.00    -0.351 OA
HETATM   11  C   UNK     0      31.403  30.774  21.616  0.00  0.00     0.152 C 
HETATM   12  C   UNK     0      29.879  30.728  21.790  0.00  0.00     0.178 C 
HETATM   13  C   UNK     0      32.136  30.442  22.914  0.00  0.00     0.042 C 
HETATM   14  C   UNK     0      29.190  31.209  20.513  0.00  0.00     0.183 C 
HETATM   15  C   UNK     0      29.743  32.565  20.069  0.00  0.00     0.204 C 
BRANCH  12  16
HETATM   16  O   UNK     0      29.451  29.393  22.050  0.00  0.00    -0.390 OA
HETATM   17  H   UNK     0      28.652  29.228  21.521  0.00  0.00     0.210 HD
ENDBRANCH  12  16
BRANCH  14  18
HETATM   18  O   UNK     0      27.787  31.310  20.746  0.00  0.00    -0.390 OA
HETATM   19  H   UNK     0      27.364  31.564  19.907  0.00  0.00     0.210 HD
ENDBRANCH  14  18
BRANCH  15  20
HETATM   20  O   UNK     0      29.388  33.570  21.019  0.00  0.00    -0.388 OA
HETATM   21  H   UNK     0      29.974  33.485  21.791  0.00  0.00     0.210 HD
ENDBRANCH  15  20
ENDBRANCH   8   9
ENDBRANCH   7   8
ENDBRANCH   2   7
BRANCH   6  22
HETATM   22  O   UNK     0      28.950  29.131  16.398  0.00  0.00    -0.311 OA
BRANCH  22  23
HETATM   23  C   UNK     0      29.406  28.067  15.652  0.00  0.00     0.157 A 
HETATM   24  C   UNK     0      30.570  27.440  15.900  0.00  0.00     0.124 A 
HETATM   25  O   UNK     0      31.074  26.389  15.149  0.00  0.00    -0.306 OA
HETATM   26  C   UNK     0      30.336  25.931  14.088  0.00  0.00     0.096 A 
HETATM   27  C   UNK     0      29.109  26.484  13.727  0.00  0.00     0.084 A 
HETATM   28  C   UNK     0      30.864  24.865  13.358  0.00  0.00     0.075 A 
HETATM   29  C   UNK     0      28.577  27.609  14.511  0.00  0.00     0.223 A 
HETATM   30  C   UNK     0      28.401  25.977  12.634  0.00  0.00     0.085 A 
HETATM   31  O   UNK     0      27.508  28.138  14.238  0.00  0.00    -0.284 OA
HETATM   32  C   UNK     0      28.931  24.911  11.905  0.00  0.00     0.074 A 
HETATM   33  C   UNK     0      30.159  24.356  12.267  0.00  0.00     0.071 A 
BRANCH  24  34
HETATM   34  C   UNK     0      31.461  27.832  17.007  0.00  0.00     0.004 A 
HETATM   35  C   UNK     0      31.105  27.544  18.325  0.00  0.00     0.053 A 
HETATM   36  C   UNK     0      31.948  27.913  19.373  0.00  0.00     0.099 A 
HETATM   37  C   UNK     0      33.147  28.573  19.104  0.00  0.00     0.098 A 
HETATM   38  C   UNK     0      33.503  28.862  17.786  0.00  0.00     0.040 A 
HETATM   39  C   UNK     0      32.660  28.492  16.739  0.00  0.00     0.017 A 
BRANCH  36  40
HETATM   40  O   UNK     0      31.588  27.627  20.656  0.00  0.00    -0.358 OA
HETATM   41  H   UNK     0      30.914  28.259  20.954  0.00  0.00     0.217 HD
ENDBRANCH  36  40
BRANCH  37  42
HETATM   42  O   UNK     0      33.979  28.938  20.118  0.00  0.00    -0.358 OA
HETATM   43  H   UNK     0      33.706  28.499  20.939  0.00  0.00     0.217 HD
ENDBRANCH  37  42
ENDBRANCH  24  34
BRANCH  30  44
HETATM   44  O   UNK     0      27.200  26.481  12.239  0.00  0.00    -0.360 OA
HETATM   45  H   UNK     0      27.314  27.402  11.947  0.00  0.00     0.217 HD
ENDBRANCH  30  44
BRANCH  33  46
HETATM   46  O   UNK     0      30.672  23.317  11.553  0.00  0.00    -0.361 OA
HETATM   47  H   UNK     0      29.954  22.698  11.335  0.00  0.00     0.217 HD
ENDBRANCH  33  46
ENDBRANCH  22  23
ENDBRANCH   6  22
BRANCH   3  48
HETATM   48  O   UNK     0      30.559  34.384  15.895  0.00  0.00    -0.390 OA
HETATM   49  H   UNK     0      30.445  35.069  16.576  0.00  0.00     0.210 HD
ENDBRANCH   3  48
BRANCH   5  50
HETATM   50  O   UNK     0      27.662  30.816  14.524  0.00  0.00    -0.388 OA
HETATM   51  H   UNK     0      26.824  31.304  14.456  0.00  0.00     0.210 HD
ENDBRANCH   5  50
BRANCH   4  52
HETATM   52  O   UNK     0      27.826  33.653  15.303  0.00  0.00    -0.390 OA
HETATM   53  H   UNK     0      27.658  33.895  14.376  0.00  0.00     0.210 HD
ENDBRANCH   4  52
TORSDOF 16
ENDMDL
MODEL 4
REMARK VINA RESULT:      -7.7      1.885      2.666
REMARK  16 active torsions:
REMARK  status: ('A' for Active; 'I' for Inactive)
REMARK    1  A    between atoms: O_2  and  C_22 
REMARK    2  A    between atoms: O_2  and  C_26 
REMARK    3  A    between atoms: O_4  and  C_18 
REMARK    4  A    between atoms: O_5  and  C_19 
REMARK    5  A    between atoms: O_6  and  C_25 
REMARK    6  A    between atoms: O_6  and  C_29 
REMARK    7  A    between atoms: O_7  and  C_20 
REMARK    8  A    between atoms: O_8  and  C_21 
REMARK    9  A    between atoms: O_9  and  C_23 
REMARK   10  A    between atoms: O_10  and  C_24 
REMARK   11  A    between atoms: O_13  and  C_35 
REMARK   12  A    between atoms: O_14  and  C_40 
REMARK   13  A    between atoms: O_15  and  C_41 
REMARK   14  A    between atoms: O_16  and  C_43 
REMARK   15  A    between atoms: C_17  and  C_26 
REMARK   16  A    between atoms: C_30  and  C_33 
ROOT
HETATM    1  O   UNK     0      12.903  21.009   1.396  0.00  0.00    -0.348 OA
HETATM    2  C   UNK     0      13.739  21.864   2.179  0.00  0.00     0.180 C 
HETATM    3  C   UNK     0      15.203  21.678   1.771  0.00  0.00     0.180 C 
HETATM    4  C   UNK     0      15.618  20.212   1.892  0.00  0.00     0.183 C 
HETATM    5  C   UNK     0      14.611  19.292   1.201  0.00  0.00     0.205 C 
HETATM    6  C   UNK     0      13.177  19.627   1.614  0.00  0.00     0.298 C 
ENDROOT
BRANCH   2   7
HETATM    7  C   UNK     0      13.267  23.297   1.955  0.00  0.00     0.205 C 
BRANCH   7   8
HETATM    8  O   UNK     0      14.195  23.963   1.111  0.00  0.00    -0.356 OA
BRANCH   8   9
HETATM    9  C   UNK     0      13.762  23.958  -0.246  0.00  0.00     0.291 C 
HETATM   10  O   UNK     0      14.854  24.016  -1.168  0.00  0.00    -0.351 OA
HETATM   11  C   UNK     0      15.615  25.226  -1.100  0.00  0.00     0.152 C 
HETATM   12  C   UNK     0      14.732  26.450  -1.383  0.00  0.00     0.178 C 
HETATM   13  C   UNK     0      16.752  25.096  -2.110  0.00  0.00     0.042 C 
HETATM   14  C   UNK     0      13.526  26.457  -0.443  0.00  0.00     0.183 C 
HETATM   15  C   UNK     0      12.793  25.115  -0.482  0.00  0.00     0.204 C 
BRANCH  12  16
HETATM   16  O   UNK     0      15.469  27.651  -1.169  0.00  0.00    -0.390 OA
HETATM   17  H   UNK     0      15.690  28.025  -2.039  0.00  0.00     0.210 HD
ENDBRANCH  12  16
BRANCH  14  18
HETATM   18  O   UNK     0      12.640  27.507  -0.824  0.00  0.00    -0.390 OA
HETATM   19  H   UNK     0      12.210  27.840  -0.017  0.00  0.00     0.210 HD
ENDBRANCH  14  18
BRANCH  15  20
HETATM   20  O   UNK     0      12.193  24.925  -1.765  0.00  0.00    -0.388 OA
HETATM   21  H   UNK     0      11.576  25.659  -1.927  0.00  0.00     0.210 HD
ENDBRANCH  15  20
ENDBRANCH   8   9
ENDBRANCH   7   8
ENDBRANCH   2   7
BRANCH   6  22
HETATM   22  O   UNK     0      12.294  18.830   0.826  0.00  0.00    -0.311 OA
BRANCH  22  23
HETATM   23  C   UNK     0      11.479  18.046   1.612  0.00  0.00     0.157 A 
HETATM   24  C   UNK     0      10.360  18.508   2.198  0.00  0.00     0.124 A 
HETATM   25  O   UNK     0       9.536  17.755   3.021  0.00  0.00    -0.306 OA
HETATM   26  C   UNK     0       9.860  16.443   3.248  0.00  0.00     0.096 A 
HETATM   27  C   UNK     0      10.986  15.837   2.696  0.00  0.00     0.084 A 
HETATM   28  C   UNK     0       9.006  15.709   4.072  0.00  0.00     0.075 A 
HETATM   29  C   UNK     0      11.872  16.633   1.832  0.00  0.00     0.223 A 
HETATM   30  C   UNK     0      11.268  14.494   2.962  0.00  0.00     0.085 A 
HETATM   31  O   UNK     0      12.878  16.157   1.324  0.00  0.00    -0.284 OA
HETATM   32  C   UNK     0      10.412  13.762   3.787  0.00  0.00     0.074 A 
HETATM   33  C   UNK     0       9.283  14.368   4.340  0.00  0.00     0.071 A 
BRANCH  24  34
HETATM   34  C   UNK     0       9.898  19.898   2.040  0.00  0.00     0.004 A 
HETATM   35  C   UNK     0      10.018  20.798   3.100  0.00  0.00     0.053 A 
HETATM   36  C   UNK     0       9.583  22.114   2.950  0.00  0.00     0.099 A 
HETATM   37  C   UNK     0       9.026  22.532   1.741  0.00  0.00     0.098 A 
HETATM   38  C   UNK     0       8.906  21.632   0.682  0.00  0.00     0.040 A 
HETATM   39  C   UNK     0       9.342  20.316   0.831  0.00  0.00     0.017 A 
BRANCH  36  40
HETATM   40  O   UNK     0       9.703  22.984   3.993  0.00  0.00    -0.358 OA
HETATM   41  H   UNK     0       9.550  22.514   4.829  0.00  0.00     0.217 HD
ENDBRANCH  36  40
BRANCH  37  42
HETATM   42  O   UNK     0       8.598  23.815   1.583  0.00  0.00    -0.358 OA
HETATM   43  H   UNK     0       8.872  24.348   2.345  0.00  0.00     0.217 HD
ENDBRANCH  37  42
ENDBRANCH  24  34
BRANCH  30  44
HETATM   44  O   UNK     0      12.354  13.855   2.449  0.00  0.00    -0.360 OA
HETATM   45  H   UNK     0      12.497  14.143   1.530  0.00  0.00     0.217 HD
ENDBRANCH  30  44
BRANCH  33  46
HETATM   46  O   UNK     0       8.452  13.651   5.144  0.00  0.00    -0.361 OA
HETATM   47  H   UNK     0       8.152  14.218   5.875  0.00  0.00     0.217 HD
ENDBRANCH  33  46
ENDBRANCH  22  23
ENDBRANCH   6  22
BRANCH   3  48
HETATM   48  O   UNK     0      16.031  22.473   2.615  0.00  0.00    -0.390 OA
HETATM   49  H   UNK     0      15.579  22.576   3.470  0.00  0.00     0.210 HD
ENDBRANCH   3  48
BRANCH   5  50
HETATM   50  O   UNK     0      14.877  17.938   1.565  0.00  0.00    -0.388 OA
HETATM   51  H   UNK     0      14.539  17.364   0.858  0.00  0.00     0.210 HD
ENDBRANCH   5  50
BRANCH   4  52
HETATM   52  O   UNK     0      16.898  20.063   1.276  0.00  0.00    -0.390 OA
HETATM   53  H   UNK     0      16.825  20.401   0.367  0.00  0.00     0.210 HD
ENDBRANCH   4  52
TORSDOF 16
ENDMDL
MODEL 5
REMARK VINA RESULT:      -7.6      3.367      5.743
REMARK  16 active torsions:
REMARK  status: ('A' for Active; 'I' for Inactive)
REMARK    1  A    between atoms: O_2  and  C_22 
REMARK    2  A    between atoms: O_2  and  C_26 
REMARK    3  A    between atoms: O_4  and  C_18 
REMARK    4  A    between atoms: O_5  and  C_19 
REMARK    5  A    between atoms: O_6  and  C_25 
REMARK    6  A    between atoms: O_6  and  C_29 
REMARK    7  A    between atoms: O_7  and  C_20 
REMARK    8  A    between atoms: O_8  and  C_21 
REMARK    9  A    between atoms: O_9  and  C_23 
REMARK   10  A    between atoms: O_10  and  C_24 
REMARK   11  A    between atoms: O_13  and  C_35 
REMARK   12  A    between atoms: O_14  and  C_40 
REMARK   13  A    between atoms: O_15  and  C_41 
REMARK   14  A    between atoms: O_16  and  C_43 
REMARK   15  A    between atoms: C_17  and  C_26 
REMARK   16  A    between atoms: C_30  and  C_33 
ROOT
HETATM    1  O   UNK     0      11.796  18.890   1.777  0.00  0.00    -0.348 OA
HETATM    2  C   UNK     0      13.205  18.662   1.844  0.00  0.00     0.180 C 
HETATM    3  C   UNK     0      13.514  17.203   1.497  0.00  0.00     0.180 C 
HETATM    4  C   UNK     0      12.740  16.253   2.411  0.00  0.00     0.183 C 
HETATM    5  C   UNK     0      11.258  16.625   2.470  0.00  0.00     0.205 C 
HETATM    6  C   UNK     0      11.071  18.119   2.733  0.00  0.00     0.298 C 
ENDROOT
BRANCH   2   7
HETATM    7  C   UNK     0      13.873  19.628   0.871  0.00  0.00     0.205 C 
BRANCH   7   8
HETATM    8  O   UNK     0      14.877  20.358   1.560  0.00  0.00    -0.356 OA
BRANCH   8   9
HETATM    9  C   UNK     0      16.072  20.454   0.792  0.00  0.00     0.291 C 
HETATM   10  O   UNK     0      17.244  20.210   1.575  0.00  0.00    -0.351 OA
HETATM   11  C   UNK     0      17.472  21.175   2.606  0.00  0.00     0.152 C 
HETATM   12  C   UNK     0      17.619  22.586   2.019  0.00  0.00     0.178 C 
HETATM   13  C   UNK     0      18.726  20.737   3.359  0.00  0.00     0.042 C 
HETATM   14  C   UNK     0      16.405  22.923   1.153  0.00  0.00     0.183 C 
HETATM   15  C   UNK     0      16.146  21.824   0.121  0.00  0.00     0.204 C 
BRANCH  12  16
HETATM   16  O   UNK     0      17.699  23.551   3.065  0.00  0.00    -0.390 OA
HETATM   17  H   UNK     0      18.493  23.356   3.591  0.00  0.00     0.210 HD
ENDBRANCH  12  16
BRANCH  14  18
HETATM   18  O   UNK     0      16.630  24.166   0.492  0.00  0.00    -0.390 OA
HETATM   19  H   UNK     0      15.842  24.366  -0.043  0.00  0.00     0.210 HD
ENDBRANCH  14  18
BRANCH  15  20
HETATM   20  O   UNK     0      17.212  21.786  -0.829  0.00  0.00    -0.388 OA
HETATM   21  H   UNK     0      17.705  20.957  -0.704  0.00  0.00     0.210 HD
ENDBRANCH  15  20
ENDBRANCH   8   9
ENDBRANCH   7   8
ENDBRANCH   2   7
BRANCH   6  22
HETATM   22  O   UNK     0       9.678  18.412   2.632  0.00  0.00    -0.311 OA
BRANCH  22  23
HETATM   23  C   UNK     0       9.235  19.147   3.709  0.00  0.00     0.157 A 
HETATM   24  C   UNK     0       9.412  20.476   3.816  0.00  0.00     0.124 A 
HETATM   25  O   UNK     0       9.007  21.239   4.900  0.00  0.00    -0.306 OA
HETATM   26  C   UNK     0       8.363  20.614   5.936  0.00  0.00     0.096 A 
HETATM   27  C   UNK     0       8.107  19.244   5.949  0.00  0.00     0.084 A 
HETATM   28  C   UNK     0       7.959  21.410   7.009  0.00  0.00     0.075 A 
HETATM   29  C   UNK     0       8.546  18.427   4.808  0.00  0.00     0.223 A 
HETATM   30  C   UNK     0       7.446  18.660   7.034  0.00  0.00     0.085 A 
HETATM   31  O   UNK     0       8.354  17.219   4.766  0.00  0.00    -0.284 OA
HETATM   32  C   UNK     0       7.043  19.459   8.105  0.00  0.00     0.074 A 
HETATM   33  C   UNK     0       7.299  20.830   8.092  0.00  0.00     0.071 A 
BRANCH  24  34
HETATM   34  C   UNK     0      10.091  21.270   2.777  0.00  0.00     0.004 A 
HETATM   35  C   UNK     0      11.359  21.798   3.019  0.00  0.00     0.053 A 
HETATM   36  C   UNK     0      12.003  22.548   2.036  0.00  0.00     0.099 A 
HETATM   37  C   UNK     0      11.379  22.772   0.809  0.00  0.00     0.098 A 
HETATM   38  C   UNK     0      10.110  22.245   0.566  0.00  0.00     0.040 A 
HETATM   39  C   UNK     0       9.467  21.494   1.549  0.00  0.00     0.017 A 
BRANCH  36  40
HETATM   40  O   UNK     0      13.241  23.060   2.285  0.00  0.00    -0.358 OA
HETATM   41  H   UNK     0      13.167  23.808   2.901  0.00  0.00     0.217 HD
ENDBRANCH  36  40
BRANCH  37  42
HETATM   42  O   UNK     0      11.997  23.503  -0.160  0.00  0.00    -0.358 OA
HETATM   43  H   UNK     0      11.413  24.220  -0.453  0.00  0.00     0.217 HD
ENDBRANCH  37  42
ENDBRANCH  24  34
BRANCH  30  44
HETATM   44  O   UNK     0       7.173  17.328   7.096  0.00  0.00    -0.360 OA
HETATM   45  H   UNK     0       7.186  17.037   8.025  0.00  0.00     0.217 HD
ENDBRANCH  30  44
BRANCH  33  46
HETATM   46  O   UNK     0       6.904  21.605   9.140  0.00  0.00    -0.361 OA
HETATM   47  H   UNK     0       6.108  21.215   9.539  0.00  0.00     0.217 HD
ENDBRANCH  33  46
ENDBRANCH  22  23
ENDBRANCH   6  22
BRANCH   3  48
HETATM   48  O   UNK     0      14.911  16.969   1.649  0.00  0.00    -0.390 OA
HETATM   49  H   UNK     0      15.268  16.707   0.784  0.00  0.00     0.210 HD
ENDBRANCH   3  48
BRANCH   5  50
HETATM   50  O   UNK     0      10.630  15.902   3.528  0.00  0.00    -0.388 OA
HETATM   51  H   UNK     0       9.807  16.364   3.761  0.00  0.00     0.210 HD
ENDBRANCH   5  50
BRANCH   4  52
HETATM   52  O   UNK     0      12.877  14.930   1.889  0.00  0.00    -0.390 OA
HETATM   53  H   UNK     0      12.977  15.006   0.925  0.00  0.00     0.210 HD
ENDBRANCH   4  52
TORSDOF 16
ENDMDL
MODEL 6
REMARK VINA RESULT:      -7.6     33.519     37.674
REMARK  16 active torsions:
REMARK  status: ('A' for Active; 'I' for Inactive)
REMARK    1  A    between atoms: O_2  and  C_22 
REMARK    2  A    between atoms: O_2  and  C_26 
REMARK    3  A    between atoms: O_4  and  C_18 
REMARK    4  A    between atoms: O_5  and  C_19 
REMARK    5  A    between atoms: O_6  and  C_25 
REMARK    6  A    between atoms: O_6  and  C_29 
REMARK    7  A    between atoms: O_7  and  C_20 
REMARK    8  A    between atoms: O_8  and  C_21 
REMARK    9  A    between atoms: O_9  and  C_23 
REMARK   10  A    between atoms: O_10  and  C_24 
REMARK   11  A    between atoms: O_13  and  C_35 
REMARK   12  A    between atoms: O_14  and  C_40 
REMARK   13  A    between atoms: O_15  and  C_41 
REMARK   14  A    between atoms: O_16  and  C_43 
REMARK   15  A    between atoms: C_17  and  C_26 
REMARK   16  A    between atoms: C_30  and  C_33 
ROOT
HETATM    1  O   UNK     0      34.423  27.322  28.782  0.00  0.00    -0.348 OA
HETATM    2  C   UNK     0      34.056  26.333  27.819  0.00  0.00     0.180 C 
HETATM    3  C   UNK     0      32.614  25.881  28.059  0.00  0.00     0.180 C 
HETATM    4  C   UNK     0      32.435  25.373  29.489  0.00  0.00     0.183 C 
HETATM    5  C   UNK     0      33.001  26.367  30.504  0.00  0.00     0.205 C 
HETATM    6  C   UNK     0      34.409  26.817  30.116  0.00  0.00     0.298 C 
ENDROOT
BRANCH   2   7
HETATM    7  C   UNK     0      34.232  26.952  26.435  0.00  0.00     0.205 C 
BRANCH   7   8
HETATM    8  O   UNK     0      34.963  26.053  25.615  0.00  0.00    -0.356 OA
BRANCH   8   9
HETATM    9  C   UNK     0      34.181  25.597  24.517  0.00  0.00     0.291 C 
HETATM   10  O   UNK     0      33.770  24.235  24.668  0.00  0.00    -0.351 OA
HETATM   11  C   UNK     0      34.849  23.294  24.680  0.00  0.00     0.152 C 
HETATM   12  C   UNK     0      35.659  23.369  23.379  0.00  0.00     0.178 C 
HETATM   13  C   UNK     0      34.235  21.913  24.892  0.00  0.00     0.042 C 
HETATM   14  C   UNK     0      36.129  24.803  23.134  0.00  0.00     0.183 C 
HETATM   15  C   UNK     0      34.959  25.785  23.215  0.00  0.00     0.204 C 
BRANCH  12  16
HETATM   16  O   UNK     0      36.812  22.534  23.466  0.00  0.00    -0.390 OA
HETATM   17  H   UNK     0      37.100  22.327  22.561  0.00  0.00     0.210 HD
ENDBRANCH  12  16
BRANCH  14  18
HETATM   18  O   UNK     0      36.742  24.884  21.849  0.00  0.00    -0.390 OA
HETATM   19  H   UNK     0      36.361  24.181  21.294  0.00  0.00     0.210 HD
ENDBRANCH  14  18
BRANCH  15  20
HETATM   20  O   UNK     0      34.056  25.557  22.132  0.00  0.00    -0.388 OA
HETATM   21  H   UNK     0      33.655  26.408  21.883  0.00  0.00     0.210 HD
ENDBRANCH  15  20
ENDBRANCH   8   9
ENDBRANCH   7   8
ENDBRANCH   2   7
BRANCH   6  22
HETATM   22  O   UNK     0      34.809  27.843  31.023  0.00  0.00    -0.311 OA
BRANCH  22  23
HETATM   23  C   UNK     0      36.177  28.006  31.034  0.00  0.00     0.157 A 
HETATM   24  C   UNK     0      37.005  27.227  31.752  0.00  0.00     0.124 A 
HETATM   25  O   UNK     0      38.381  27.385  31.810  0.00  0.00    -0.306 OA
HETATM   26  C   UNK     0      38.955  28.388  31.074  0.00  0.00     0.096 A 
HETATM   27  C   UNK     0      38.215  29.261  30.280  0.00  0.00     0.084 A 
HETATM   28  C   UNK     0      40.343  28.516  31.144  0.00  0.00     0.075 A 
HETATM   29  C   UNK     0      36.753  29.107  30.225  0.00  0.00     0.223 A 
HETATM   30  C   UNK     0      38.855  30.268  29.551  0.00  0.00     0.085 A 
HETATM   31  O   UNK     0      36.051  29.848  29.550  0.00  0.00    -0.284 OA
HETATM   32  C   UNK     0      40.243  30.393  29.623  0.00  0.00     0.074 A 
HETATM   33  C   UNK     0      40.986  29.519  30.418  0.00  0.00     0.071 A 
BRANCH  24  34
HETATM   34  C   UNK     0      36.519  26.115  32.589  0.00  0.00     0.004 A 
HETATM   35  C   UNK     0      35.779  26.380  33.741  0.00  0.00     0.053 A 
HETATM   36  C   UNK     0      35.318  25.329  34.532  0.00  0.00     0.099 A 
HETATM   37  C   UNK     0      35.597  24.011  34.172  0.00  0.00     0.098 A 
HETATM   38  C   UNK     0      36.337  23.745  33.020  0.00  0.00     0.040 A 
HETATM   39  C   UNK     0      36.797  24.797  32.228  0.00  0.00     0.017 A 
BRANCH  36  40
HETATM   40  O   UNK     0      34.598  25.601  35.657  0.00  0.00    -0.358 OA
HETATM   41  H   UNK     0      33.810  25.033  35.686  0.00  0.00     0.217 HD
ENDBRANCH  36  40
BRANCH  37  42
HETATM   42  O   UNK     0      35.151  22.975  34.936  0.00  0.00    -0.358 OA
HETATM   43  H   UNK     0      35.166  22.155  34.418  0.00  0.00     0.217 HD
ENDBRANCH  37  42
ENDBRANCH  24  34
BRANCH  30  44
HETATM   44  O   UNK     0      38.179  31.146  28.761  0.00  0.00    -0.360 OA
HETATM   45  H   UNK     0      38.022  30.746  27.889  0.00  0.00     0.217 HD
ENDBRANCH  30  44
BRANCH  33  46
HETATM   46  O   UNK     0      42.339  29.645  30.486  0.00  0.00    -0.361 OA
HETATM   47  H   UNK     0      42.742  29.116  29.775  0.00  0.00     0.217 HD
ENDBRANCH  33  46
ENDBRANCH  22  23
ENDBRANCH   6  22
BRANCH   3  48
HETATM   48  O   UNK     0      32.289  24.836  27.145  0.00  0.00    -0.390 OA
HETATM   49  H   UNK     0      31.741  25.215  26.437  0.00  0.00     0.210 HD
ENDBRANCH   3  48
BRANCH   5  50
HETATM   50  O   UNK     0      33.066  25.747  31.788  0.00  0.00    -0.388 OA
HETATM   51  H   UNK     0      33.604  26.312  32.368  0.00  0.00     0.210 HD
ENDBRANCH   5  50
BRANCH   4  52
HETATM   52  O   UNK     0      31.036  25.197  29.724  0.00  0.00    -0.390 OA
HETATM   53  H   UNK     0      30.919  24.332  30.151  0.00  0.00     0.210 HD
ENDBRANCH   4  52
TORSDOF 16
ENDMDL
MODEL 7
REMARK VINA RESULT:      -7.4     26.388     30.421
REMARK  16 active torsions:
REMARK  status: ('A' for Active; 'I' for Inactive)
REMARK    1  A    between atoms: O_2  and  C_22 
REMARK    2  A    between atoms: O_2  and  C_26 
REMARK    3  A    between atoms: O_4  and  C_18 
REMARK    4  A    between atoms: O_5  and  C_19 
REMARK    5  A    between atoms: O_6  and  C_25 
REMARK    6  A    between atoms: O_6  and  C_29 
REMARK    7  A    between atoms: O_7  and  C_20 
REMARK    8  A    between atoms: O_8  and  C_21 
REMARK    9  A    between atoms: O_9  and  C_23 
REMARK   10  A    between atoms: O_10  and  C_24 
REMARK   11  A    between atoms: O_13  and  C_35 
REMARK   12  A    between atoms: O_14  and  C_40 
REMARK   13  A    between atoms: O_15  and  C_41 
REMARK   14  A    between atoms: O_16  and  C_43 
REMARK   15  A    between atoms: C_17  and  C_26 
REMARK   16  A    between atoms: C_30  and  C_33 
ROOT
HETATM    1  O   UNK     0      33.019  28.545  20.206  0.00  0.00    -0.348 OA
HETATM    2  C   UNK     0      32.929  28.926  18.832  0.00  0.00     0.180 C 
HETATM    3  C   UNK     0      31.783  28.170  18.155  0.00  0.00     0.180 C 
HETATM    4  C   UNK     0      31.960  26.660  18.315  0.00  0.00     0.183 C 
HETATM    5  C   UNK     0      32.237  26.286  19.771  0.00  0.00     0.205 C 
HETATM    6  C   UNK     0      33.335  27.164  20.371  0.00  0.00     0.298 C 
ENDROOT
BRANCH   2   7
HETATM    7  C   UNK     0      32.715  30.436  18.788  0.00  0.00     0.205 C 
BRANCH   7   8
HETATM    8  O   UNK     0      31.322  30.707  18.841  0.00  0.00    -0.356 OA
BRANCH   8   9
HETATM    9  C   UNK     0      31.029  31.743  19.773  0.00  0.00     0.291 C 
HETATM   10  O   UNK     0      31.258  31.340  21.127  0.00  0.00    -0.351 OA
HETATM   11  C   UNK     0      30.407  30.281  21.576  0.00  0.00     0.152 C 
HETATM   12  C   UNK     0      28.929  30.684  21.480  0.00  0.00     0.178 C 
HETATM   13  C   UNK     0      30.818  29.956  23.010  0.00  0.00     0.042 C 
HETATM   14  C   UNK     0      28.600  31.142  20.059  0.00  0.00     0.183 C 
HETATM   15  C   UNK     0      29.587  32.211  19.586  0.00  0.00     0.204 C 
BRANCH  12  16
HETATM   16  O   UNK     0      28.093  29.572  21.792  0.00  0.00    -0.390 OA
HETATM   17  H   UNK     0      27.994  29.535  22.759  0.00  0.00     0.210 HD
ENDBRANCH  12  16
BRANCH  14  18
HETATM   18  O   UNK     0      27.272  31.659  20.027  0.00  0.00    -0.390 OA
HETATM   19  H   UNK     0      27.280  32.525  20.471  0.00  0.00     0.210 HD
ENDBRANCH  14  18
BRANCH  15  20
HETATM   20  O   UNK     0      29.415  33.405  20.352  0.00  0.00    -0.388 OA
HETATM   21  H   UNK     0      29.322  34.153  19.738  0.00  0.00     0.210 HD
ENDBRANCH  15  20
ENDBRANCH   8   9
ENDBRANCH   7   8
ENDBRANCH   2   7
BRANCH   6  22
HETATM   22  O   UNK     0      33.435  26.856  21.761  0.00  0.00    -0.311 OA
BRANCH  22  23
HETATM   23  C   UNK     0      34.721  26.509  22.112  0.00  0.00     0.157 A 
HETATM   24  C   UNK     0      35.724  27.401  22.204  0.00  0.00     0.124 A 
HETATM   25  O   UNK     0      37.035  27.081  22.523  0.00  0.00    -0.306 OA
HETATM   26  C   UNK     0      37.343  25.771  22.785  0.00  0.00     0.096 A 
HETATM   27  C   UNK     0      36.398  24.749  22.734  0.00  0.00     0.084 A 
HETATM   28  C   UNK     0      38.668  25.482  23.113  0.00  0.00     0.075 A 
HETATM   29  C   UNK     0      35.009  25.080  22.383  0.00  0.00     0.223 A 
HETATM   30  C   UNK     0      36.770  23.430  23.010  0.00  0.00     0.085 A 
HETATM   31  O   UNK     0      34.137  24.223  22.317  0.00  0.00    -0.284 OA
HETATM   32  C   UNK     0      38.097  23.143  23.338  0.00  0.00     0.074 A 
HETATM   33  C   UNK     0      39.043  24.167  23.389  0.00  0.00     0.071 A 
BRANCH  24  34
HETATM   34  C   UNK     0      35.530  28.839  21.946  0.00  0.00     0.004 A 
HETATM   35  C   UNK     0      34.663  29.582  22.747  0.00  0.00     0.053 A 
HETATM   36  C   UNK     0      34.481  30.943  22.505  0.00  0.00     0.099 A 
HETATM   37  C   UNK     0      35.166  31.562  21.459  0.00  0.00     0.098 A 
HETATM   38  C   UNK     0      36.032  30.820  20.657  0.00  0.00     0.040 A 
HETATM   39  C   UNK     0      36.215  29.459  20.901  0.00  0.00     0.017 A 
BRANCH  36  40
HETATM   40  O   UNK     0      33.630  31.657  23.293  0.00  0.00    -0.358 OA
HETATM   41  H   UNK     0      32.996  32.139  22.737  0.00  0.00     0.217 HD
ENDBRANCH  36  40
BRANCH  37  42
HETATM   42  O   UNK     0      34.997  32.891  21.212  0.00  0.00    -0.358 OA
HETATM   43  H   UNK     0      34.777  33.025  20.277  0.00  0.00     0.217 HD
ENDBRANCH  37  42
ENDBRANCH  24  34
BRANCH  30  44
HETATM   44  O   UNK     0      35.887  22.394  22.973  0.00  0.00    -0.360 OA
HETATM   45  H   UNK     0      35.447  22.373  22.106  0.00  0.00     0.217 HD
ENDBRANCH  30  44
BRANCH  33  46
HETATM   46  O   UNK     0      40.335  23.883  23.709  0.00  0.00    -0.361 OA
HETATM   47  H   UNK     0      40.771  23.482  22.937  0.00  0.00     0.217 HD
ENDBRANCH  33  46
ENDBRANCH  22  23
ENDBRANCH   6  22
BRANCH   3  48
HETATM   48  O   UNK     0      31.759  28.497  16.768  0.00  0.00    -0.390 OA
HETATM   49  H   UNK     0      32.677  28.526  16.449  0.00  0.00     0.210 HD
ENDBRANCH   3  48
BRANCH   5  50
HETATM   50  O   UNK     0      32.664  24.926  19.839  0.00  0.00    -0.388 OA
HETATM   51  H   UNK     0      33.631  24.918  19.928  0.00  0.00     0.210 HD
ENDBRANCH   5  50
BRANCH   4  52
HETATM   52  O   UNK     0      30.755  26.026  17.882  0.00  0.00    -0.390 OA
HETATM   53  H   UNK     0      30.011  26.542  18.238  0.00  0.00     0.210 HD
ENDBRANCH   4  52
TORSDOF 16
ENDMDL
MODEL 8
REMARK VINA RESULT:      -7.2     33.756     37.810
REMARK  16 active torsions:
REMARK  status: ('A' for Active; 'I' for Inactive)
REMARK    1  A    between atoms: O_2  and  C_22 
REMARK    2  A    between atoms: O_2  and  C_26 
REMARK    3  A    between atoms: O_4  and  C_18 
REMARK    4  A    between atoms: O_5  and  C_19 
REMARK    5  A    between atoms: O_6  and  C_25 
REMARK    6  A    between atoms: O_6  and  C_29 
REMARK    7  A    between atoms: O_7  and  C_20 
REMARK    8  A    between atoms: O_8  and  C_21 
REMARK    9  A    between atoms: O_9  and  C_23 
REMARK   10  A    between atoms: O_10  and  C_24 
REMARK   11  A    between atoms: O_13  and  C_35 
REMARK   12  A    between atoms: O_14  and  C_40 
REMARK   13  A    between atoms: O_15  and  C_41 
REMARK   14  A    between atoms: O_16  and  C_43 
REMARK   15  A    between atoms: C_17  and  C_26 
REMARK   16  A    between atoms: C_30  and  C_33 
ROOT
HETATM    1  O   UNK     0      34.424  25.564  28.876  0.00  0.00    -0.348 OA
HETATM    2  C   UNK     0      34.282  24.220  28.413  0.00  0.00     0.180 C 
HETATM    3  C   UNK     0      32.842  23.744  28.625  0.00  0.00     0.180 C 
HETATM    4  C   UNK     0      32.434  23.886  30.091  0.00  0.00     0.183 C 
HETATM    5  C   UNK     0      32.762  25.280  30.625  0.00  0.00     0.205 C 
HETATM    6  C   UNK     0      34.194  25.686  30.278  0.00  0.00     0.298 C 
ENDROOT
BRANCH   2   7
HETATM    7  C   UNK     0      34.673  24.199  26.939  0.00  0.00     0.205 C 
BRANCH   7   8
HETATM    8  O   UNK     0      35.520  25.305  26.669  0.00  0.00    -0.356 OA
BRANCH   8   9
HETATM    9  C   UNK     0      35.452  25.692  25.301  0.00  0.00     0.291 C 
HETATM   10  O   UNK     0      36.617  26.408  24.877  0.00  0.00    -0.351 OA
HETATM   11  C   UNK     0      36.805  27.664  25.536  0.00  0.00     0.152 C 
HETATM   12  C   UNK     0      35.607  28.594  25.302  0.00  0.00     0.178 C 
HETATM   13  C   UNK     0      38.104  28.260  24.999  0.00  0.00     0.042 C 
HETATM   14  C   UNK     0      34.311  27.897  25.720  0.00  0.00     0.183 C 
HETATM   15  C   UNK     0      34.192  26.522  25.060  0.00  0.00     0.204 C 
BRANCH  12  16
HETATM   16  O   UNK     0      35.743  29.781  26.081  0.00  0.00    -0.390 OA
HETATM   17  H   UNK     0      35.204  29.675  26.883  0.00  0.00     0.210 HD
ENDBRANCH  12  16
BRANCH  14  18
HETATM   18  O   UNK     0      33.200  28.711  25.350  0.00  0.00    -0.390 OA
HETATM   19  H   UNK     0      33.398  29.107  24.484  0.00  0.00     0.210 HD
ENDBRANCH  14  18
BRANCH  15  20
HETATM   20  O   UNK     0      34.032  26.671  23.649  0.00  0.00    -0.388 OA
HETATM   21  H   UNK     0      34.898  26.885  23.262  0.00  0.00     0.210 HD
ENDBRANCH  15  20
ENDBRANCH   8   9
ENDBRANCH   7   8
ENDBRANCH   2   7
BRANCH   6  22
HETATM   22  O   UNK     0      34.377  27.043  30.680  0.00  0.00    -0.311 OA
BRANCH  22  23
HETATM   23  C   UNK     0      35.711  27.373  30.762  0.00  0.00     0.157 A 
HETATM   24  C   UNK     0      36.534  26.877  31.703  0.00  0.00     0.124 A 
HETATM   25  O   UNK     0      37.873  27.212  31.834  0.00  0.00    -0.306 OA
HETATM   26  C   UNK     0      38.417  28.095  30.937  0.00  0.00     0.096 A 
HETATM   27  C   UNK     0      37.679  28.676  29.908  0.00  0.00     0.084 A 
HETATM   28  C   UNK     0      39.769  28.405  31.088  0.00  0.00     0.075 A 
HETATM   29  C   UNK     0      36.254  28.334  29.773  0.00  0.00     0.223 A 
HETATM   30  C   UNK     0      38.286  29.571  29.023  0.00  0.00     0.085 A 
HETATM   31  O   UNK     0      35.555  28.818  28.892  0.00  0.00    -0.284 OA
HETATM   32  C   UNK     0      39.638  29.880  29.176  0.00  0.00     0.074 A 
HETATM   33  C   UNK     0      40.378  29.298  30.206  0.00  0.00     0.071 A 
BRANCH  24  34
HETATM   34  C   UNK     0      36.079  25.922  32.730  0.00  0.00     0.004 A 
HETATM   35  C   UNK     0      35.328  26.370  33.816  0.00  0.00     0.053 A 
HETATM   36  C   UNK     0      34.895  25.467  34.786  0.00  0.00     0.099 A 
HETATM   37  C   UNK     0      35.215  24.114  34.672  0.00  0.00     0.098 A 
HETATM   38  C   UNK     0      35.967  23.665  33.586  0.00  0.00     0.040 A 
HETATM   39  C   UNK     0      36.399  24.569  32.615  0.00  0.00     0.017 A 
BRANCH  36  40
HETATM   40  O   UNK     0      34.163  25.917  35.844  0.00  0.00    -0.358 OA
HETATM   41  H   UNK     0      33.746  25.166  36.296  0.00  0.00     0.217 HD
ENDBRANCH  36  40
BRANCH  37  42
HETATM   42  O   UNK     0      34.798  23.222  35.613  0.00  0.00    -0.358 OA
HETATM   43  H   UNK     0      35.068  23.526  36.494  0.00  0.00     0.217 HD
ENDBRANCH  37  42
ENDBRANCH  24  34
BRANCH  30  44
HETATM   44  O   UNK     0      37.610  30.167  28.002  0.00  0.00    -0.360 OA
HETATM   45  H   UNK     0      38.075  30.001  27.164  0.00  0.00     0.217 HD
ENDBRANCH  30  44
BRANCH  33  46
HETATM   46  O   UNK     0      41.697  29.602  30.352  0.00  0.00    -0.361 OA
HETATM   47  H   UNK     0      42.185  29.270  29.579  0.00  0.00     0.217 HD
ENDBRANCH  33  46
ENDBRANCH  22  23
ENDBRANCH   6  22
BRANCH   3  48
HETATM   48  O   UNK     0      32.736  22.377  28.236  0.00  0.00    -0.390 OA
HETATM   49  H   UNK     0      33.137  22.282  27.356  0.00  0.00     0.210 HD
ENDBRANCH   3  48
BRANCH   5  50
HETATM   50  O   UNK     0      32.625  25.288  32.046  0.00  0.00    -0.388 OA
HETATM   51  H   UNK     0      32.442  26.200  32.326  0.00  0.00     0.210 HD
ENDBRANCH   5  50
BRANCH   4  52
HETATM   52  O   UNK     0      31.026  23.660  30.181  0.00  0.00    -0.390 OA
HETATM   53  H   UNK     0      30.610  24.112  29.427  0.00  0.00     0.210 HD
ENDBRANCH   4  52
TORSDOF 16
ENDMDL
MODEL 9
REMARK VINA RESULT:      -7.2     22.321     26.891
REMARK  16 active torsions:
REMARK  status: ('A' for Active; 'I' for Inactive)
REMARK    1  A    between atoms: O_2  and  C_22 
REMARK    2  A    between atoms: O_2  and  C_26 
REMARK    3  A    between atoms: O_4  and  C_18 
REMARK    4  A    between atoms: O_5  and  C_19 
REMARK    5  A    between atoms: O_6  and  C_25 
REMARK    6  A    between atoms: O_6  and  C_29 
REMARK    7  A    between atoms: O_7  and  C_20 
REMARK    8  A    between atoms: O_8  and  C_21 
REMARK    9  A    between atoms: O_9  and  C_23 
REMARK   10  A    between atoms: O_10  and  C_24 
REMARK   11  A    between atoms: O_13  and  C_35 
REMARK   12  A    between atoms: O_14  and  C_40 
REMARK   13  A    between atoms: O_15  and  C_41 
REMARK   14  A    between atoms: O_16  and  C_43 
REMARK   15  A    between atoms: C_17  and  C_26 
REMARK   16  A    between atoms: C_30  and  C_33 
ROOT
HETATM    1  O   UNK     0      29.172  29.967  17.141  0.00  0.00    -0.348 OA
HETATM    2  C   UNK     0      29.340  30.159  18.547  0.00  0.00     0.180 C 
HETATM    3  C   UNK     0      28.003  30.546  19.185  0.00  0.00     0.180 C 
HETATM    4  C   UNK     0      27.418  31.786  18.508  0.00  0.00     0.183 C 
HETATM    5  C   UNK     0      27.414  31.637  16.987  0.00  0.00     0.205 C 
HETATM    6  C   UNK     0      28.772  31.161  16.471  0.00  0.00     0.298 C 
ENDROOT
BRANCH   2   7
HETATM    7  C   UNK     0      29.886  28.857  19.126  0.00  0.00     0.205 C 
BRANCH   7   8
HETATM    8  O   UNK     0      30.521  29.133  20.365  0.00  0.00    -0.356 OA
BRANCH   8   9
HETATM    9  C   UNK     0      31.646  29.989  20.195  0.00  0.00     0.291 C 
HETATM   10  O   UNK     0      32.888  29.285  20.299  0.00  0.00    -0.351 OA
HETATM   11  C   UNK     0      33.134  28.717  21.589  0.00  0.00     0.152 C 
HETATM   12  C   UNK     0      33.149  29.802  22.675  0.00  0.00     0.178 C 
HETATM   13  C   UNK     0      34.466  27.976  21.504  0.00  0.00     0.042 C 
HETATM   14  C   UNK     0      31.855  30.614  22.626  0.00  0.00     0.183 C 
HETATM   15  C   UNK     0      31.585  31.129  21.211  0.00  0.00     0.204 C 
BRANCH  12  16
HETATM   16  O   UNK     0      33.250  29.207  23.967  0.00  0.00    -0.390 OA
HETATM   17  H   UNK     0      33.364  29.921  24.617  0.00  0.00     0.210 HD
ENDBRANCH  12  16
BRANCH  14  18
HETATM   18  O   UNK     0      31.953  31.711  23.531  0.00  0.00    -0.390 OA
HETATM   19  H   UNK     0      31.238  31.621  24.185  0.00  0.00     0.210 HD
ENDBRANCH  14  18
BRANCH  15  20
HETATM   20  O   UNK     0      32.577  32.090  20.845  0.00  0.00    -0.388 OA
HETATM   21  H   UNK     0      33.452  31.727  21.063  0.00  0.00     0.210 HD
ENDBRANCH  15  20
ENDBRANCH   8   9
ENDBRANCH   7   8
ENDBRANCH   2   7
BRANCH   6  22
HETATM   22  O   UNK     0      28.647  30.908  15.072  0.00  0.00    -0.311 OA
BRANCH  22  23
HETATM   23  C   UNK     0      29.781  31.284  14.386  0.00  0.00     0.157 A 
HETATM   24  C   UNK     0      30.764  30.423  14.064  0.00  0.00     0.124 A 
HETATM   25  O   UNK     0      31.931  30.774  13.404  0.00  0.00    -0.306 OA
HETATM   26  C   UNK     0      32.103  32.081  13.028  0.00  0.00     0.096 A 
HETATM   27  C   UNK     0      31.161  33.072  13.292  0.00  0.00     0.084 A 
HETATM   28  C   UNK     0      33.284  32.401  12.357  0.00  0.00     0.075 A 
HETATM   29  C   UNK     0      29.926  32.709  14.004  0.00  0.00     0.223 A 
HETATM   30  C   UNK     0      31.390  34.390  12.887  0.00  0.00     0.085 A 
HETATM   31  O   UNK     0      29.065  33.538  14.268  0.00  0.00    -0.284 OA
HETATM   32  C   UNK     0      32.572  34.707  12.215  0.00  0.00     0.074 A 
HETATM   33  C   UNK     0      33.516  33.715  11.950  0.00  0.00     0.071 A 
BRANCH  24  34
HETATM   34  C   UNK     0      30.708  28.991  14.409  0.00  0.00     0.004 A 
HETATM   35  C   UNK     0      29.804  28.151  13.758  0.00  0.00     0.053 A 
HETATM   36  C   UNK     0      29.752  26.796  14.083  0.00  0.00     0.099 A 
HETATM   37  C   UNK     0      30.602  26.280  15.061  0.00  0.00     0.098 A 
HETATM   38  C   UNK     0      31.505  27.120  15.713  0.00  0.00     0.040 A 
HETATM   39  C   UNK     0      31.558  28.475  15.387  0.00  0.00     0.017 A 
BRANCH  36  40
HETATM   40  O   UNK     0      28.863  25.986  13.441  0.00  0.00    -0.358 OA
HETATM   41  H   UNK     0      29.193  25.781  12.551  0.00  0.00     0.217 HD
ENDBRANCH  36  40
BRANCH  37  42
HETATM   42  O   UNK     0      30.560  24.958  15.387  0.00  0.00    -0.358 OA
HETATM   43  H   UNK     0      29.640  24.682  15.517  0.00  0.00     0.217 HD
ENDBRANCH  37  42
ENDBRANCH  24  34
BRANCH  30  44
HETATM   44  O   UNK     0      30.502  35.395  13.120  0.00  0.00    -0.360 OA
HETATM   45  H   UNK     0      30.710  35.823  13.969  0.00  0.00     0.217 HD
ENDBRANCH  30  44
BRANCH  33  46
HETATM   46  O   UNK     0      34.667  34.030  11.295  0.00  0.00    -0.361 OA
HETATM   47  H   UNK     0      34.742  34.997  11.235  0.00  0.00     0.217 HD
ENDBRANCH  33  46
ENDBRANCH  22  23
ENDBRANCH   6  22
BRANCH   3  48
HETATM   48  O   UNK     0      28.202  30.815  20.570  0.00  0.00    -0.390 OA
HETATM   49  H   UNK     0      27.366  31.151  20.934  0.00  0.00     0.210 HD
ENDBRANCH   3  48
BRANCH   5  50
HETATM   50  O   UNK     0      27.124  32.899  16.387  0.00  0.00    -0.388 OA
HETATM   51  H   UNK     0      26.748  33.478  17.071  0.00  0.00     0.210 HD
ENDBRANCH   5  50
BRANCH   4  52
HETATM   52  O   UNK     0      26.078  31.952  18.974  0.00  0.00    -0.390 OA
HETATM   53  H   UNK     0      25.995  31.456  19.806  0.00  0.00     0.210 HD
ENDBRANCH   4  52
TORSDOF 16
ENDMDL
