MODEL 1
REMARK VINA RESULT:      -8.3      0.000      0.000
REMARK  13 active torsions:
REMARK  status: ('A' for Active; 'I' for Inactive)
REMARK    1  A    between atoms: C_2  and  O_12 
REMARK    2  A    between atoms: C_3  and  O_10 
REMARK    3  A    between atoms: C_4  and  O_8 
REMARK    4  A    between atoms: C_5  and  O_6 
REMARK    5  A    between atoms: C_22  and  C_23 
REMARK    6  A    between atoms: O_12  and  C_13 
REMARK    7  A    between atoms: C_13  and  C_14 
REMARK    8  A    between atoms: C_15  and  C_16 
REMARK    9  A    between atoms: C_23  and  O_24 
REMARK   10  A    between atoms: O_24  and  C_25 
REMARK   11  A    between atoms: C_26  and  O_34 
REMARK   12  A    between atoms: C_27  and  O_32 
REMARK   13  A    between atoms: C_28  and  O_30 
ROOT
ATOM      1  O   LIG     1      15.224  50.077  24.904  0.00  0.00    -0.341 OA
ATOM      2  C   LIG     1      15.284  51.350  24.264  0.00  0.00     0.282 C 
ATOM      3  C   LIG     1      14.859  51.233  22.800  0.00  0.00     0.201 C 
ATOM      4  C   LIG     1      13.490  50.568  22.669  0.00  0.00     0.179 C 
ATOM      5  C   LIG     1      13.413  49.288  23.499  0.00  0.00     0.177 C 
ATOM      6  C   LIG     1      13.902  49.537  24.929  0.00  0.00     0.178 C 
ENDROOT
BRANCH   6   7
ATOM      7  C   LIG     1      13.946  48.248  25.744  0.00  0.00     0.197 C 
BRANCH   7   8
ATOM      8  O   LIG     1      12.624  47.908  26.120  0.00  0.00    -0.346 OA
BRANCH   8   9
ATOM      9  C   LIG     1      12.304  48.391  27.421  0.00  0.00     0.281 C 
ATOM     10  O   LIG     1      12.035  47.326  28.339  0.00  0.00    -0.346 OA
ATOM     11  C   LIG     1      10.852  46.591  28.035  0.00  0.00     0.197 C 
ATOM     12  C   LIG     1       9.630  47.501  28.072  0.00  0.00     0.171 C 
ATOM     13  C   LIG     1       9.795  48.664  27.092  0.00  0.00     0.178 C 
ATOM     14  C   LIG     1      11.128  49.377  27.338  0.00  0.00     0.201 C 
BRANCH  12  15
ATOM     15  O   LIG     1       8.456  46.766  27.757  0.00  0.00    -0.387 OA
ATOM     16  H   LIG     1       7.774  47.010  28.407  0.00  0.00     0.210 HD
ENDBRANCH  12  15
BRANCH  13  17
ATOM     17  O   LIG     1       9.761  48.163  25.757  0.00  0.00    -0.386 OA
ATOM     18  H   LIG     1       9.404  48.867  25.188  0.00  0.00     0.210 HD
ENDBRANCH  13  17
BRANCH  14  19
ATOM     19  O   LIG     1      11.062  50.089  28.572  0.00  0.00    -0.384 OA
ATOM     20  H   LIG     1      11.397  49.512  29.278  0.00  0.00     0.210 HD
ENDBRANCH  14  19
ENDBRANCH   8   9
ENDBRANCH   7   8
ENDBRANCH   6   7
BRANCH   5  21
ATOM     21  O   LIG     1      12.065  48.828  23.536  0.00  0.00    -0.386 OA
ATOM     22  H   LIG     1      12.064  47.932  23.916  0.00  0.00     0.210 HD
ENDBRANCH   5  21
BRANCH   2  23
ATOM     23  O   LIG     1      16.622  51.843  24.297  0.00  0.00    -0.345 OA
BRANCH  23  24
ATOM     24  C   LIG     1      17.505  50.905  24.891  0.00  0.00     0.190 C 
BRANCH  24  25
ATOM     25  C   LIG     1      18.536  50.508  23.884  0.00  0.00     0.001 C 
ATOM     26  C   LIG     1      18.465  49.379  23.163  0.00  0.00     0.006 C 
BRANCH  26  27
ATOM     27  C   LIG     1      19.448  48.955  22.151  0.00  0.00    -0.025 A 
ATOM     28  C   LIG     1      19.160  49.134  20.807  0.00  0.00     0.008 A 
ATOM     29  C   LIG     1      20.091  48.732  19.850  0.00  0.00     0.001 A 
ATOM     30  C   LIG     1      21.297  48.156  20.247  0.00  0.00     0.000 A 
ATOM     31  C   LIG     1      21.574  47.983  21.603  0.00  0.00     0.001 A 
ATOM     32  C   LIG     1      20.643  48.384  22.561  0.00  0.00     0.008 A 
ENDBRANCH  26  27
ENDBRANCH  24  25
ENDBRANCH  23  24
ENDBRANCH   2  23
BRANCH   4  33
ATOM     33  O   LIG     1      13.257  50.223  21.303  0.00  0.00    -0.386 OA
ATOM     34  H   LIG     1      13.817  49.455  21.097  0.00  0.00     0.210 HD
ENDBRANCH   4  33
BRANCH   3  35
ATOM     35  O   LIG     1      14.805  52.546  22.244  0.00  0.00    -0.384 OA
ATOM     36  H   LIG     1      14.321  52.498  21.403  0.00  0.00     0.210 HD
ENDBRANCH   3  35
TORSDOF 13
ENDMDL
MODEL 2
REMARK VINA RESULT:      -8.2      2.001      3.061
REMARK  13 active torsions:
REMARK  status: ('A' for Active; 'I' for Inactive)
REMARK    1  A    between atoms: C_2  and  O_12 
REMARK    2  A    between atoms: C_3  and  O_10 
REMARK    3  A    between atoms: C_4  and  O_8 
REMARK    4  A    between atoms: C_5  and  O_6 
REMARK    5  A    between atoms: C_22  and  C_23 
REMARK    6  A    between atoms: O_12  and  C_13 
REMARK    7  A    between atoms: C_13  and  C_14 
REMARK    8  A    between atoms: C_15  and  C_16 
REMARK    9  A    between atoms: C_23  and  O_24 
REMARK   10  A    between atoms: O_24  and  C_25 
REMARK   11  A    between atoms: C_26  and  O_34 
REMARK   12  A    between atoms: C_27  and  O_32 
REMARK   13  A    between atoms: C_28  and  O_30 
ROOT
ATOM      1  O   LIG     1      14.293  50.393  23.910  0.00  0.00    -0.341 OA
ATOM      2  C   LIG     1      15.689  50.299  23.637  0.00  0.00     0.282 C 
ATOM      3  C   LIG     1      15.979  50.693  22.188  0.00  0.00     0.201 C 
ATOM      4  C   LIG     1      15.403  52.069  21.859  0.00  0.00     0.179 C 
ATOM      5  C   LIG     1      13.948  52.184  22.312  0.00  0.00     0.177 C 
ATOM      6  C   LIG     1      13.794  51.723  23.764  0.00  0.00     0.178 C 
ENDROOT
BRANCH   6   7
ATOM      7  C   LIG     1      12.333  51.718  24.203  0.00  0.00     0.197 C 
BRANCH   7   8
ATOM      8  O   LIG     1      12.201  50.857  25.319  0.00  0.00    -0.346 OA
BRANCH   8   9
ATOM      9  C   LIG     1      10.939  50.197  25.331  0.00  0.00     0.281 C 
ATOM     10  O   LIG     1      10.359  50.171  26.640  0.00  0.00    -0.346 OA
ATOM     11  C   LIG     1      11.081  49.371  27.573  0.00  0.00     0.197 C 
ATOM     12  C   LIG     1      11.138  47.922  27.106  0.00  0.00     0.171 C 
ATOM     13  C   LIG     1      11.781  47.827  25.721  0.00  0.00     0.178 C 
ATOM     14  C   LIG     1      11.083  48.783  24.749  0.00  0.00     0.201 C 
BRANCH  12  15
ATOM     15  O   LIG     1      11.869  47.131  28.033  0.00  0.00    -0.387 OA
ATOM     16  H   LIG     1      12.515  47.712  28.470  0.00  0.00     0.210 HD
ENDBRANCH  12  15
BRANCH  13  17
ATOM     17  O   LIG     1      13.163  48.170  25.819  0.00  0.00    -0.386 OA
ATOM     18  H   LIG     1      13.550  47.627  26.528  0.00  0.00     0.210 HD
ENDBRANCH  13  17
BRANCH  14  19
ATOM     19  O   LIG     1       9.777  48.290  24.459  0.00  0.00    -0.384 OA
ATOM     20  H   LIG     1       9.268  48.263  25.286  0.00  0.00     0.210 HD
ENDBRANCH  14  19
ENDBRANCH   8   9
ENDBRANCH   7   8
ENDBRANCH   6   7
BRANCH   5  21
ATOM     21  O   LIG     1      13.524  53.540  22.200  0.00  0.00    -0.386 OA
ATOM     22  H   LIG     1      12.683  53.551  21.711  0.00  0.00     0.210 HD
ENDBRANCH   5  21
BRANCH   2  23
ATOM     23  O   LIG     1      16.128  48.955  23.824  0.00  0.00    -0.345 OA
BRANCH  23  24
ATOM     24  C   LIG     1      16.562  48.734  25.157  0.00  0.00     0.190 C 
BRANCH  24  25
ATOM     25  C   LIG     1      18.050  48.590  25.161  0.00  0.00     0.001 C 
ATOM     26  C   LIG     1      18.754  48.183  24.093  0.00  0.00     0.006 C 
BRANCH  26  27
ATOM     27  C   LIG     1      20.220  48.040  24.046  0.00  0.00    -0.025 A 
ATOM     28  C   LIG     1      20.879  48.196  22.837  0.00  0.00     0.008 A 
ATOM     29  C   LIG     1      22.266  48.061  22.794  0.00  0.00     0.001 A 
ATOM     30  C   LIG     1      22.976  47.770  23.958  0.00  0.00     0.000 A 
ATOM     31  C   LIG     1      22.299  47.615  25.168  0.00  0.00     0.001 A 
ATOM     32  C   LIG     1      20.911  47.750  25.211  0.00  0.00     0.008 A 
ENDBRANCH  26  27
ENDBRANCH  24  25
ENDBRANCH  23  24
ENDBRANCH   2  23
BRANCH   4  33
ATOM     33  O   LIG     1      15.443  52.276  20.446  0.00  0.00    -0.386 OA
ATOM     34  H   LIG     1      16.140  51.701  20.087  0.00  0.00     0.210 HD
ENDBRANCH   4  33
BRANCH   3  35
ATOM     35  O   LIG     1      17.395  50.715  22.005  0.00  0.00    -0.384 OA
ATOM     36  H   LIG     1      17.600  51.367  21.314  0.00  0.00     0.210 HD
ENDBRANCH   3  35
TORSDOF 13
ENDMDL
MODEL 3
REMARK VINA RESULT:      -8.1      0.776      1.564
REMARK  13 active torsions:
REMARK  status: ('A' for Active; 'I' for Inactive)
REMARK    1  A    between atoms: C_2  and  O_12 
REMARK    2  A    between atoms: C_3  and  O_10 
REMARK    3  A    between atoms: C_4  and  O_8 
REMARK    4  A    between atoms: C_5  and  O_6 
REMARK    5  A    between atoms: C_22  and  C_23 
REMARK    6  A    between atoms: O_12  and  C_13 
REMARK    7  A    between atoms: C_13  and  C_14 
REMARK    8  A    between atoms: C_15  and  C_16 
REMARK    9  A    between atoms: C_23  and  O_24 
REMARK   10  A    between atoms: O_24  and  C_25 
REMARK   11  A    between atoms: C_26  and  O_34 
REMARK   12  A    between atoms: C_27  and  O_32 
REMARK   13  A    between atoms: C_28  and  O_30 
ROOT
ATOM      1  O   LIG     1      14.826  50.015  24.972  0.00  0.00    -0.341 OA
ATOM      2  C   LIG     1      15.054  51.266  24.328  0.00  0.00     0.282 C 
ATOM      3  C   LIG     1      14.846  51.137  22.819  0.00  0.00     0.201 C 
ATOM      4  C   LIG     1      13.475  50.546  22.494  0.00  0.00     0.179 C 
ATOM      5  C   LIG     1      13.202  49.292  23.324  0.00  0.00     0.177 C 
ATOM      6  C   LIG     1      13.486  49.549  24.806  0.00  0.00     0.178 C 
ENDROOT
BRANCH   6   7
ATOM      7  C   LIG     1      13.333  48.279  25.639  0.00  0.00     0.197 C 
BRANCH   7   8
ATOM      8  O   LIG     1      12.802  48.631  26.904  0.00  0.00    -0.346 OA
BRANCH   8   9
ATOM      9  C   LIG     1      11.545  49.287  26.785  0.00  0.00     0.281 C 
ATOM     10  O   LIG     1      11.154  49.925  28.006  0.00  0.00    -0.346 OA
ATOM     11  C   LIG     1      10.874  49.014  29.066  0.00  0.00     0.197 C 
ATOM     12  C   LIG     1       9.728  48.085  28.687  0.00  0.00     0.171 C 
ATOM     13  C   LIG     1      10.057  47.317  27.406  0.00  0.00     0.178 C 
ATOM     14  C   LIG     1      10.479  48.291  26.301  0.00  0.00     0.201 C 
BRANCH  12  15
ATOM     15  O   LIG     1       9.461  47.171  29.742  0.00  0.00    -0.387 OA
ATOM     16  H   LIG     1       9.330  47.690  30.554  0.00  0.00     0.210 HD
ENDBRANCH  12  15
BRANCH  13  17
ATOM     17  O   LIG     1      11.119  46.400  27.666  0.00  0.00    -0.386 OA
ATOM     18  H   LIG     1      11.426  46.058  26.808  0.00  0.00     0.210 HD
ENDBRANCH  13  17
BRANCH  14  19
ATOM     19  O   LIG     1       9.343  49.036  25.869  0.00  0.00    -0.384 OA
ATOM     20  H   LIG     1       9.653  49.795  25.347  0.00  0.00     0.210 HD
ENDBRANCH  14  19
ENDBRANCH   8   9
ENDBRANCH   7   8
ENDBRANCH   6   7
BRANCH   5  21
ATOM     21  O   LIG     1      11.839  48.908  23.164  0.00  0.00    -0.386 OA
ATOM     22  H   LIG     1      11.718  48.046  23.599  0.00  0.00     0.210 HD
ENDBRANCH   5  21
BRANCH   2  23
ATOM     23  O   LIG     1      16.398  51.686  24.554  0.00  0.00    -0.345 OA
BRANCH  23  24
ATOM     24  C   LIG     1      17.206  50.613  25.011  0.00  0.00     0.190 C 
BRANCH  24  25
ATOM     25  C   LIG     1      18.262  50.337  23.990  0.00  0.00     0.001 C 
ATOM     26  C   LIG     1      18.398  49.153  23.372  0.00  0.00     0.006 C 
BRANCH  26  27
ATOM     27  C   LIG     1      19.413  48.840  22.351  0.00  0.00    -0.025 A 
ATOM     28  C   LIG     1      20.630  48.306  22.744  0.00  0.00     0.008 A 
ATOM     29  C   LIG     1      21.590  48.010  21.777  0.00  0.00     0.001 A 
ATOM     30  C   LIG     1      21.322  48.251  20.430  0.00  0.00     0.000 A 
ATOM     31  C   LIG     1      20.093  48.789  20.049  0.00  0.00     0.001 A 
ATOM     32  C   LIG     1      19.132  49.085  21.017  0.00  0.00     0.008 A 
ENDBRANCH  26  27
ENDBRANCH  24  25
ENDBRANCH  23  24
ENDBRANCH   2  23
BRANCH   4  33
ATOM     33  O   LIG     1      13.429  50.181  21.114  0.00  0.00    -0.386 OA
ATOM     34  H   LIG     1      12.501  50.236  20.829  0.00  0.00     0.210 HD
ENDBRANCH   4  33
BRANCH   3  35
ATOM     35  O   LIG     1      14.951  52.438  22.241  0.00  0.00    -0.384 OA
ATOM     36  H   LIG     1      15.116  53.074  22.957  0.00  0.00     0.210 HD
ENDBRANCH   3  35
TORSDOF 13
ENDMDL
MODEL 4
REMARK VINA RESULT:      -7.8      2.153      6.075
REMARK  13 active torsions:
REMARK  status: ('A' for Active; 'I' for Inactive)
REMARK    1  A    between atoms: C_2  and  O_12 
REMARK    2  A    between atoms: C_3  and  O_10 
REMARK    3  A    between atoms: C_4  and  O_8 
REMARK    4  A    between atoms: C_5  and  O_6 
REMARK    5  A    between atoms: C_22  and  C_23 
REMARK    6  A    between atoms: O_12  and  C_13 
REMARK    7  A    between atoms: C_13  and  C_14 
REMARK    8  A    between atoms: C_15  and  C_16 
REMARK    9  A    between atoms: C_23  and  O_24 
REMARK   10  A    between atoms: O_24  and  C_25 
REMARK   11  A    between atoms: C_26  and  O_34 
REMARK   12  A    between atoms: C_27  and  O_32 
REMARK   13  A    between atoms: C_28  and  O_30 
ROOT
ATOM      1  O   LIG     1      12.420  49.435  26.315  0.00  0.00    -0.341 OA
ATOM      2  C   LIG     1      12.571  48.133  26.876  0.00  0.00     0.282 C 
ATOM      3  C   LIG     1      11.309  47.729  27.639  0.00  0.00     0.201 C 
ATOM      4  C   LIG     1      10.064  47.855  26.762  0.00  0.00     0.179 C 
ATOM      5  C   LIG     1      10.021  49.208  26.052  0.00  0.00     0.177 C 
ATOM      6  C   LIG     1      11.356  49.503  25.364  0.00  0.00     0.178 C 
ENDROOT
BRANCH   6   7
ATOM      7  C   LIG     1      11.378  50.898  24.747  0.00  0.00     0.197 C 
BRANCH   7   8
ATOM      8  O   LIG     1      12.360  50.925  23.727  0.00  0.00    -0.346 OA
BRANCH   8   9
ATOM      9  C   LIG     1      13.391  51.864  24.011  0.00  0.00     0.281 C 
ATOM     10  O   LIG     1      13.502  52.864  22.992  0.00  0.00    -0.346 OA
ATOM     11  C   LIG     1      13.950  52.357  21.737  0.00  0.00     0.197 C 
ATOM     12  C   LIG     1      15.333  51.733  21.872  0.00  0.00     0.171 C 
ATOM     13  C   LIG     1      15.321  50.616  22.917  0.00  0.00     0.178 C 
ATOM     14  C   LIG     1      14.722  51.130  24.231  0.00  0.00     0.201 C 
BRANCH  12  15
ATOM     15  O   LIG     1      15.769  51.219  20.622  0.00  0.00    -0.387 OA
ATOM     16  H   LIG     1      16.674  51.543  20.470  0.00  0.00     0.210 HD
ENDBRANCH  12  15
BRANCH  13  17
ATOM     17  O   LIG     1      14.541  49.525  22.431  0.00  0.00    -0.386 OA
ATOM     18  H   LIG     1      14.340  49.702  21.496  0.00  0.00     0.210 HD
ENDBRANCH  13  17
BRANCH  14  19
ATOM     19  O   LIG     1      15.633  52.041  24.840  0.00  0.00    -0.384 OA
ATOM     20  H   LIG     1      16.327  51.530  25.289  0.00  0.00     0.210 HD
ENDBRANCH  14  19
ENDBRANCH   8   9
ENDBRANCH   7   8
ENDBRANCH   6   7
BRANCH   5  21
ATOM     21  O   LIG     1       8.981  49.197  25.078  0.00  0.00    -0.386 OA
ATOM     22  H   LIG     1       9.105  48.412  24.516  0.00  0.00     0.210 HD
ENDBRANCH   5  21
BRANCH   2  23
ATOM     23  O   LIG     1      13.662  48.127  27.794  0.00  0.00    -0.345 OA
BRANCH  23  24
ATOM     24  C   LIG     1      14.330  49.379  27.811  0.00  0.00     0.190 C 
BRANCH  24  25
ATOM     25  C   LIG     1      15.744  49.176  27.371  0.00  0.00     0.001 C 
ATOM     26  C   LIG     1      16.087  48.414  26.321  0.00  0.00     0.006 C 
BRANCH  26  27
ATOM     27  C   LIG     1      17.464  48.198  25.843  0.00  0.00    -0.025 A 
ATOM     28  C   LIG     1      18.387  47.594  26.681  0.00  0.00     0.008 A 
ATOM     29  C   LIG     1      19.690  47.389  26.227  0.00  0.00     0.001 A 
ATOM     30  C   LIG     1      20.053  47.792  24.942  0.00  0.00     0.000 A 
ATOM     31  C   LIG     1      19.113  48.398  24.110  0.00  0.00     0.001 A 
ATOM     32  C   LIG     1      17.809  48.603  24.563  0.00  0.00     0.008 A 
ENDBRANCH  26  27
ENDBRANCH  24  25
ENDBRANCH  23  24
ENDBRANCH   2  23
BRANCH   4  33
ATOM     33  O   LIG     1       8.895  47.747  27.577  0.00  0.00    -0.386 OA
ATOM     34  H   LIG     1       8.826  48.566  28.097  0.00  0.00     0.210 HD
ENDBRANCH   4  33
BRANCH   3  35
ATOM     35  O   LIG     1      11.457  46.374  28.062  0.00  0.00    -0.384 OA
ATOM     36  H   LIG     1      10.757  45.849  27.638  0.00  0.00     0.210 HD
ENDBRANCH   3  35
TORSDOF 13
ENDMDL
MODEL 5
REMARK VINA RESULT:      -7.7      2.778      8.361
REMARK  13 active torsions:
REMARK  status: ('A' for Active; 'I' for Inactive)
REMARK    1  A    between atoms: C_2  and  O_12 
REMARK    2  A    between atoms: C_3  and  O_10 
REMARK    3  A    between atoms: C_4  and  O_8 
REMARK    4  A    between atoms: C_5  and  O_6 
REMARK    5  A    between atoms: C_22  and  C_23 
REMARK    6  A    between atoms: O_12  and  C_13 
REMARK    7  A    between atoms: C_13  and  C_14 
REMARK    8  A    between atoms: C_15  and  C_16 
REMARK    9  A    between atoms: C_23  and  O_24 
REMARK   10  A    between atoms: O_24  and  C_25 
REMARK   11  A    between atoms: C_26  and  O_34 
REMARK   12  A    between atoms: C_27  and  O_32 
REMARK   13  A    between atoms: C_28  and  O_30 
ROOT
ATOM      1  O   LIG     1      14.877  50.820  24.320  0.00  0.00    -0.341 OA
ATOM      2  C   LIG     1      14.022  50.332  23.288  0.00  0.00     0.282 C 
ATOM      3  C   LIG     1      14.107  51.231  22.054  0.00  0.00     0.201 C 
ATOM      4  C   LIG     1      15.553  51.406  21.591  0.00  0.00     0.179 C 
ATOM      5  C   LIG     1      16.467  51.773  22.759  0.00  0.00     0.177 C 
ATOM      6  C   LIG     1      16.253  50.820  23.937  0.00  0.00     0.178 C 
ENDROOT
BRANCH   6   7
ATOM      7  C   LIG     1      17.070  51.237  25.157  0.00  0.00     0.197 C 
BRANCH   7   8
ATOM      8  O   LIG     1      18.247  50.451  25.200  0.00  0.00    -0.346 OA
BRANCH   8   9
ATOM      9  C   LIG     1      18.056  49.179  24.590  0.00  0.00     0.281 C 
ATOM     10  O   LIG     1      17.803  48.153  25.555  0.00  0.00    -0.346 OA
ATOM     11  C   LIG     1      18.916  47.872  26.401  0.00  0.00     0.197 C 
ATOM     12  C   LIG     1      20.108  47.397  25.579  0.00  0.00     0.171 C 
ATOM     13  C   LIG     1      20.492  48.443  24.532  0.00  0.00     0.178 C 
ATOM     14  C   LIG     1      19.264  48.837  23.704  0.00  0.00     0.201 C 
BRANCH  12  15
ATOM     15  O   LIG     1      21.218  47.130  26.424  0.00  0.00    -0.387 OA
ATOM     16  H   LIG     1      22.005  47.521  26.008  0.00  0.00     0.210 HD
ENDBRANCH  12  15
BRANCH  13  17
ATOM     17  O   LIG     1      21.016  49.597  25.188  0.00  0.00    -0.386 OA
ATOM     18  H   LIG     1      20.903  50.353  24.587  0.00  0.00     0.210 HD
ENDBRANCH  13  17
BRANCH  14  19
ATOM     19  O   LIG     1      18.897  47.751  22.858  0.00  0.00    -0.384 OA
ATOM     20  H   LIG     1      18.954  46.928  23.371  0.00  0.00     0.210 HD
ENDBRANCH  14  19
ENDBRANCH   8   9
ENDBRANCH   7   8
ENDBRANCH   6   7
BRANCH   5  21
ATOM     21  O   LIG     1      17.826  51.701  22.335  0.00  0.00    -0.386 OA
ATOM     22  H   LIG     1      17.926  50.907  21.782  0.00  0.00     0.210 HD
ENDBRANCH   5  21
BRANCH   2  23
ATOM     23  O   LIG     1      12.670  50.333  23.742  0.00  0.00    -0.345 OA
BRANCH  23  24
ATOM     24  C   LIG     1      12.240  49.027  24.089  0.00  0.00     0.190 C 
BRANCH  24  25
ATOM     25  C   LIG     1      12.050  48.959  25.570  0.00  0.00     0.001 C 
ATOM     26  C   LIG     1      11.643  50.003  26.309  0.00  0.00     0.006 C 
BRANCH  26  27
ATOM     27  C   LIG     1      11.428  49.979  27.766  0.00  0.00    -0.025 A 
ATOM     28  C   LIG     1      12.065  50.918  28.562  0.00  0.00     0.008 A 
ATOM     29  C   LIG     1      11.861  50.895  29.941  0.00  0.00     0.001 A 
ATOM     30  C   LIG     1      11.025  49.934  30.508  0.00  0.00     0.000 A 
ATOM     31  C   LIG     1      10.390  48.995  29.695  0.00  0.00     0.001 A 
ATOM     32  C   LIG     1      10.594  49.018  28.314  0.00  0.00     0.008 A 
ENDBRANCH  26  27
ENDBRANCH  24  25
ENDBRANCH  23  24
ENDBRANCH   2  23
BRANCH   4  33
ATOM     33  O   LIG     1      15.620  52.460  20.629  0.00  0.00    -0.386 OA
ATOM     34  H   LIG     1      14.898  53.080  20.826  0.00  0.00     0.210 HD
ENDBRANCH   4  33
BRANCH   3  35
ATOM     35  O   LIG     1      13.344  50.628  21.009  0.00  0.00    -0.384 OA
ATOM     36  H   LIG     1      13.896  49.948  20.586  0.00  0.00     0.210 HD
ENDBRANCH   3  35
TORSDOF 13
ENDMDL
MODEL 6
REMARK VINA RESULT:      -7.7      2.775      8.344
REMARK  13 active torsions:
REMARK  status: ('A' for Active; 'I' for Inactive)
REMARK    1  A    between atoms: C_2  and  O_12 
REMARK    2  A    between atoms: C_3  and  O_10 
REMARK    3  A    between atoms: C_4  and  O_8 
REMARK    4  A    between atoms: C_5  and  O_6 
REMARK    5  A    between atoms: C_22  and  C_23 
REMARK    6  A    between atoms: O_12  and  C_13 
REMARK    7  A    between atoms: C_13  and  C_14 
REMARK    8  A    between atoms: C_15  and  C_16 
REMARK    9  A    between atoms: C_23  and  O_24 
REMARK   10  A    between atoms: O_24  and  C_25 
REMARK   11  A    between atoms: C_26  and  O_34 
REMARK   12  A    between atoms: C_27  and  O_32 
REMARK   13  A    between atoms: C_28  and  O_30 
ROOT
ATOM      1  O   LIG     1      15.314  50.041  23.580  0.00  0.00    -0.341 OA
ATOM      2  C   LIG     1      13.944  50.220  23.933  0.00  0.00     0.282 C 
ATOM      3  C   LIG     1      13.526  51.678  23.736  0.00  0.00     0.201 C 
ATOM      4  C   LIG     1      13.841  52.161  22.321  0.00  0.00     0.179 C 
ATOM      5  C   LIG     1      15.273  51.808  21.921  0.00  0.00     0.177 C 
ATOM      6  C   LIG     1      15.569  50.333  22.205  0.00  0.00     0.178 C 
ENDROOT
BRANCH   6   7
ATOM      7  C   LIG     1      17.028  49.985  21.923  0.00  0.00     0.197 C 
BRANCH   7   8
ATOM      8  O   LIG     1      17.587  49.408  23.089  0.00  0.00    -0.346 OA
BRANCH   8   9
ATOM      9  C   LIG     1      18.739  50.119  23.529  0.00  0.00     0.281 C 
ATOM     10  O   LIG     1      19.779  49.237  23.967  0.00  0.00    -0.346 OA
ATOM     11  C   LIG     1      19.456  48.507  25.148  0.00  0.00     0.197 C 
ATOM     12  C   LIG     1      19.188  49.456  26.309  0.00  0.00     0.171 C 
ATOM     13  C   LIG     1      18.058  50.427  25.963  0.00  0.00     0.178 C 
ATOM     14  C   LIG     1      18.348  51.120  24.627  0.00  0.00     0.201 C 
BRANCH  12  15
ATOM     15  O   LIG     1      18.854  48.725  27.480  0.00  0.00    -0.387 OA
ATOM     16  H   LIG     1      18.076  48.179  27.274  0.00  0.00     0.210 HD
ENDBRANCH  12  15
BRANCH  13  17
ATOM     17  O   LIG     1      16.830  49.706  25.870  0.00  0.00    -0.386 OA
ATOM     18  H   LIG     1      16.664  49.297  26.736  0.00  0.00     0.210 HD
ENDBRANCH  13  17
BRANCH  14  19
ATOM     19  O   LIG     1      19.429  52.035  24.795  0.00  0.00    -0.384 OA
ATOM     20  H   LIG     1      19.612  52.455  23.938  0.00  0.00     0.210 HD
ENDBRANCH  14  19
ENDBRANCH   8   9
ENDBRANCH   7   8
ENDBRANCH   6   7
BRANCH   5  21
ATOM     21  O   LIG     1      15.452  52.065  20.530  0.00  0.00    -0.386 OA
ATOM     22  H   LIG     1      15.203  51.260  20.042  0.00  0.00     0.210 HD
ENDBRANCH   5  21
BRANCH   2  23
ATOM     23  O   LIG     1      13.753  49.888  25.307  0.00  0.00    -0.345 OA
BRANCH  23  24
ATOM     24  C   LIG     1      12.804  48.845  25.459  0.00  0.00     0.190 C 
BRANCH  24  25
ATOM     25  C   LIG     1      12.400  48.768  26.896  0.00  0.00     0.001 C 
ATOM     26  C   LIG     1      11.772  49.764  27.540  0.00  0.00     0.006 C 
BRANCH  26  27
ATOM     27  C   LIG     1      11.342  49.727  28.948  0.00  0.00    -0.025 A 
ATOM     28  C   LIG     1      11.819  50.685  29.829  0.00  0.00     0.008 A 
ATOM     29  C   LIG     1      11.411  50.650  31.162  0.00  0.00     0.001 A 
ATOM     30  C   LIG     1      10.534  49.657  31.598  0.00  0.00     0.000 A 
ATOM     31  C   LIG     1      10.063  48.700  30.701  0.00  0.00     0.001 A 
ATOM     32  C   LIG     1      10.470  48.735  29.367  0.00  0.00     0.008 A 
ENDBRANCH  26  27
ENDBRANCH  24  25
ENDBRANCH  23  24
ENDBRANCH   2  23
BRANCH   4  33
ATOM     33  O   LIG     1      13.703  53.581  22.261  0.00  0.00    -0.386 OA
ATOM     34  H   LIG     1      12.942  53.823  22.816  0.00  0.00     0.210 HD
ENDBRANCH   4  33
BRANCH   3  35
ATOM     35  O   LIG     1      12.122  51.775  23.969  0.00  0.00    -0.384 OA
ATOM     36  H   LIG     1      11.953  52.603  24.450  0.00  0.00     0.210 HD
ENDBRANCH   3  35
TORSDOF 13
ENDMDL
MODEL 7
REMARK VINA RESULT:      -7.7      2.684      8.512
REMARK  13 active torsions:
REMARK  status: ('A' for Active; 'I' for Inactive)
REMARK    1  A    between atoms: C_2  and  O_12 
REMARK    2  A    between atoms: C_3  and  O_10 
REMARK    3  A    between atoms: C_4  and  O_8 
REMARK    4  A    between atoms: C_5  and  O_6 
REMARK    5  A    between atoms: C_22  and  C_23 
REMARK    6  A    between atoms: O_12  and  C_13 
REMARK    7  A    between atoms: C_13  and  C_14 
REMARK    8  A    between atoms: C_15  and  C_16 
REMARK    9  A    between atoms: C_23  and  O_24 
REMARK   10  A    between atoms: O_24  and  C_25 
REMARK   11  A    between atoms: C_26  and  O_34 
REMARK   12  A    between atoms: C_27  and  O_32 
REMARK   13  A    between atoms: C_28  and  O_30 
ROOT
ATOM      1  O   LIG     1      14.877  50.617  24.335  0.00  0.00    -0.341 OA
ATOM      2  C   LIG     1      14.069  50.036  23.315  0.00  0.00     0.282 C 
ATOM      3  C   LIG     1      14.092  50.902  22.055  0.00  0.00     0.201 C 
ATOM      4  C   LIG     1      15.523  51.175  21.593  0.00  0.00     0.179 C 
ATOM      5  C   LIG     1      16.399  51.646  22.754  0.00  0.00     0.177 C 
ATOM      6  C   LIG     1      16.251  50.714  23.959  0.00  0.00     0.178 C 
ENDROOT
BRANCH   6   7
ATOM      7  C   LIG     1      17.026  51.228  25.169  0.00  0.00     0.197 C 
BRANCH   7   8
ATOM      8  O   LIG     1      17.835  50.177  25.665  0.00  0.00    -0.346 OA
BRANCH   8   9
ATOM      9  C   LIG     1      19.222  50.463  25.515  0.00  0.00     0.281 C 
ATOM     10  O   LIG     1      19.643  50.378  24.149  0.00  0.00    -0.346 OA
ATOM     11  C   LIG     1      19.590  49.058  23.613  0.00  0.00     0.197 C 
ATOM     12  C   LIG     1      20.501  48.122  24.397  0.00  0.00     0.171 C 
ATOM     13  C   LIG     1      20.112  48.106  25.876  0.00  0.00     0.178 C 
ATOM     14  C   LIG     1      20.048  49.537  26.421  0.00  0.00     0.201 C 
BRANCH  12  15
ATOM     15  O   LIG     1      20.434  46.806  23.866  0.00  0.00    -0.387 OA
ATOM     16  H   LIG     1      19.781  46.813  23.145  0.00  0.00     0.210 HD
ENDBRANCH  12  15
BRANCH  13  17
ATOM     17  O   LIG     1      18.837  47.482  26.022  0.00  0.00    -0.386 OA
ATOM     18  H   LIG     1      18.702  47.311  26.970  0.00  0.00     0.210 HD
ENDBRANCH  13  17
BRANCH  14  19
ATOM     19  O   LIG     1      21.368  50.068  26.508  0.00  0.00    -0.384 OA
ATOM     20  H   LIG     1      21.410  50.664  27.275  0.00  0.00     0.210 HD
ENDBRANCH  14  19
ENDBRANCH   8   9
ENDBRANCH   7   8
ENDBRANCH   6   7
BRANCH   5  21
ATOM     21  O   LIG     1      17.762  51.667  22.338  0.00  0.00    -0.386 OA
ATOM     22  H   LIG     1      18.168  52.482  22.682  0.00  0.00     0.210 HD
ENDBRANCH   5  21
BRANCH   2  23
ATOM     23  O   LIG     1      12.718  49.945  23.762  0.00  0.00    -0.345 OA
BRANCH  23  24
ATOM     24  C   LIG     1      12.287  51.159  24.356  0.00  0.00     0.190 C 
BRANCH  24  25
ATOM     25  C   LIG     1      11.874  50.886  25.766  0.00  0.00     0.001 C 
ATOM     26  C   LIG     1      11.339  49.722  26.165  0.00  0.00     0.006 C 
BRANCH  26  27
ATOM     27  C   LIG     1      10.931  49.403  27.544  0.00  0.00    -0.025 A 
ATOM     28  C   LIG     1      10.023  48.380  27.765  0.00  0.00     0.008 A 
ATOM     29  C   LIG     1       9.637  48.079  29.070  0.00  0.00     0.001 A 
ATOM     30  C   LIG     1      10.162  48.805  30.139  0.00  0.00     0.000 A 
ATOM     31  C   LIG     1      11.075  49.832  29.902  0.00  0.00     0.001 A 
ATOM     32  C   LIG     1      11.461  50.134  28.596  0.00  0.00     0.008 A 
ENDBRANCH  26  27
ENDBRANCH  24  25
ENDBRANCH  23  24
ENDBRANCH   2  23
BRANCH   4  33
ATOM     33  O   LIG     1      15.515  52.202  20.601  0.00  0.00    -0.386 OA
ATOM     34  H   LIG     1      15.220  53.022  21.033  0.00  0.00     0.210 HD
ENDBRANCH   4  33
BRANCH   3  35
ATOM     35  O   LIG     1      13.385  50.211  21.025  0.00  0.00    -0.384 OA
ATOM     36  H   LIG     1      13.502  49.257  21.167  0.00  0.00     0.210 HD
ENDBRANCH   3  35
TORSDOF 13
ENDMDL
MODEL 8
REMARK VINA RESULT:      -7.6      2.071      3.587
REMARK  13 active torsions:
REMARK  status: ('A' for Active; 'I' for Inactive)
REMARK    1  A    between atoms: C_2  and  O_12 
REMARK    2  A    between atoms: C_3  and  O_10 
REMARK    3  A    between atoms: C_4  and  O_8 
REMARK    4  A    between atoms: C_5  and  O_6 
REMARK    5  A    between atoms: C_22  and  C_23 
REMARK    6  A    between atoms: O_12  and  C_13 
REMARK    7  A    between atoms: C_13  and  C_14 
REMARK    8  A    between atoms: C_15  and  C_16 
REMARK    9  A    between atoms: C_23  and  O_24 
REMARK   10  A    between atoms: O_24  and  C_25 
REMARK   11  A    between atoms: C_26  and  O_34 
REMARK   12  A    between atoms: C_27  and  O_32 
REMARK   13  A    between atoms: C_28  and  O_30 
ROOT
ATOM      1  O   LIG     1      14.360  49.314  22.374  0.00  0.00    -0.341 OA
ATOM      2  C   LIG     1      15.510  50.097  22.061  0.00  0.00     0.282 C 
ATOM      3  C   LIG     1      15.101  51.518  21.671  0.00  0.00     0.201 C 
ATOM      4  C   LIG     1      14.224  52.159  22.746  0.00  0.00     0.179 C 
ATOM      5  C   LIG     1      13.093  51.222  23.170  0.00  0.00     0.177 C 
ATOM      6  C   LIG     1      13.636  49.827  23.494  0.00  0.00     0.178 C 
ENDROOT
BRANCH   6   7
ATOM      7  C   LIG     1      12.514  48.843  23.807  0.00  0.00     0.197 C 
BRANCH   7   8
ATOM      8  O   LIG     1      12.471  48.639  25.208  0.00  0.00    -0.346 OA
BRANCH   8   9
ATOM      9  C   LIG     1      11.145  48.740  25.716  0.00  0.00     0.281 C 
ATOM     10  O   LIG     1      10.863  50.048  26.225  0.00  0.00    -0.346 OA
ATOM     11  C   LIG     1      11.614  50.386  27.389  0.00  0.00     0.197 C 
ATOM     12  C   LIG     1      11.313  49.415  28.523  0.00  0.00     0.171 C 
ATOM     13  C   LIG     1      11.618  47.977  28.098  0.00  0.00     0.178 C 
ATOM     14  C   LIG     1      10.908  47.656  26.778  0.00  0.00     0.201 C 
BRANCH  12  15
ATOM     15  O   LIG     1      12.073  49.748  29.676  0.00  0.00    -0.387 OA
ATOM     16  H   LIG     1      11.484  50.217  30.291  0.00  0.00     0.210 HD
ENDBRANCH  12  15
BRANCH  13  17
ATOM     17  O   LIG     1      13.027  47.824  27.932  0.00  0.00    -0.386 OA
ATOM     18  H   LIG     1      13.169  47.174  27.222  0.00  0.00     0.210 HD
ENDBRANCH  13  17
BRANCH  14  19
ATOM     19  O   LIG     1       9.504  47.563  27.008  0.00  0.00    -0.384 OA
ATOM     20  H   LIG     1       9.215  48.363  27.477  0.00  0.00     0.210 HD
ENDBRANCH  14  19
ENDBRANCH   8   9
ENDBRANCH   7   8
ENDBRANCH   6   7
BRANCH   5  21
ATOM     21  O   LIG     1      12.446  51.755  24.322  0.00  0.00    -0.386 OA
ATOM     22  H   LIG     1      13.132  51.989  24.970  0.00  0.00     0.210 HD
ENDBRANCH   5  21
BRANCH   2  23
ATOM     23  O   LIG     1      16.200  49.518  20.955  0.00  0.00    -0.345 OA
BRANCH  23  24
ATOM     24  C   LIG     1      17.555  49.246  21.276  0.00  0.00     0.190 C 
BRANCH  24  25
ATOM     25  C   LIG     1      17.646  48.902  22.727  0.00  0.00     0.001 C 
ATOM     26  C   LIG     1      18.792  48.548  23.330  0.00  0.00     0.006 C 
BRANCH  26  27
ATOM     27  C   LIG     1      18.932  48.215  24.758  0.00  0.00    -0.025 A 
ATOM     28  C   LIG     1      20.135  47.707  25.222  0.00  0.00     0.008 A 
ATOM     29  C   LIG     1      20.268  47.392  26.574  0.00  0.00     0.001 A 
ATOM     30  C   LIG     1      19.196  47.587  27.445  0.00  0.00     0.000 A 
ATOM     31  C   LIG     1      17.991  48.099  26.964  0.00  0.00     0.001 A 
ATOM     32  C   LIG     1      17.859  48.415  25.611  0.00  0.00     0.008 A 
ENDBRANCH  26  27
ENDBRANCH  24  25
ENDBRANCH  23  24
ENDBRANCH   2  23
BRANCH   4  33
ATOM     33  O   LIG     1      13.636  53.354  22.230  0.00  0.00    -0.386 OA
ATOM     34  H   LIG     1      13.025  53.095  21.519  0.00  0.00     0.210 HD
ENDBRANCH   4  33
BRANCH   3  35
ATOM     35  O   LIG     1      16.287  52.294  21.501  0.00  0.00    -0.384 OA
ATOM     36  H   LIG     1      16.486  52.335  20.551  0.00  0.00     0.210 HD
ENDBRANCH   3  35
TORSDOF 13
ENDMDL
