REMARK VINA RESULT:      -8.1      2.517      4.488
REMARK  11 active torsions:
REMARK  status: ('A' for Active; 'I' for Inactive)
REMARK    1  A    between atoms: O_2  and  C_16 
REMARK    2  A    between atoms: O_2  and  C_18 
REMARK    3  A    between atoms: O_3  and  C_12 
REMARK    4  A    between atoms: O_4  and  C_13 
REMARK    5  A    between atoms: O_5  and  C_14 
REMARK    6  A    between atoms: O_6  and  C_17 
REMARK    7  A    between atoms: O_8  and  C_23 
REMARK    8  A    between atoms: O_10  and  C_30 
REMARK    9  A    between atoms: O_11  and  C_32 
REMARK   10  A    between atoms: C_15  and  C_17 
REMARK   11  A    between atoms: C_25  and  C_27 
ROOT
HETATM    1  O   UNK     0     185.139 184.537 172.551  0.00  0.00    -0.348 OA
HETATM    2  C   UNK     0     186.343 184.498 175.158  0.00  0.00     0.183 C 
HETATM    3  C   UNK     0     186.442 185.706 174.226  0.00  0.00     0.180 C 
HETATM    4  C   UNK     0     186.051 183.218 174.374  0.00  0.00     0.205 C 
HETATM    5  C   UNK     0     185.241 185.762 173.279  0.00  0.00     0.179 C 
HETATM    6  C   UNK     0     184.892 183.415 173.397  0.00  0.00     0.298 C 
ENDROOT
BRANCH   5   7
HETATM    7  C   UNK     0     185.376 186.891 172.263  0.00  0.00     0.198 C 
BRANCH   7   8
HETATM    8  O   UNK     0     186.723 187.328 172.251  0.00  0.00    -0.398 OA
HETATM    9  H   UNK     0     186.719 188.298 172.174  0.00  0.00     0.209 HD
ENDBRANCH   7   8
ENDBRANCH   5   7
BRANCH   6  10
HETATM   10  O   UNK     0     184.775 182.233 172.608  0.00  0.00    -0.318 OA
BRANCH  10  11
HETATM   11  C   UNK     0     183.543 181.651 172.559  0.00  0.00     0.077 A 
HETATM   12  C   UNK     0     183.430 180.279 172.325  0.00  0.00     0.075 A 
HETATM   13  C   UNK     0     182.169 179.686 172.275  0.00  0.00     0.095 A 
HETATM   14  O   UNK     0     182.121 178.335 172.041  0.00  0.00    -0.309 OA
HETATM   15  C   UNK     0     181.026 180.463 172.457  0.00  0.00     0.081 A 
HETATM   16  C   UNK     0     180.881 177.717 171.992  0.00  0.00     0.090 A 
HETATM   17  C   UNK     0     179.711 178.357 172.146  0.00  0.00     0.094 A 
HETATM   18  C   UNK     0     179.708 179.812 172.397  0.00  0.00     0.190 A 
HETATM   19  O   UNK     0     178.665 180.433 172.545  0.00  0.00    -0.287 OA
HETATM   20  C   UNK     0     181.135 181.836 172.691  0.00  0.00     0.085 A 
HETATM   21  C   UNK     0     182.399 182.427 172.742  0.00  0.00     0.074 A 
BRANCH  16  22
HETATM   22  C   UNK     0     180.944 176.265 171.730  0.00  0.00     0.001 A 
HETATM   23  C   UNK     0     181.877 175.757 170.822  0.00  0.00     0.053 A 
HETATM   24  C   UNK     0     181.937 174.384 170.576  0.00  0.00     0.099 A 
HETATM   25  C   UNK     0     181.066 173.518 171.235  0.00  0.00     0.098 A 
HETATM   26  C   UNK     0     180.134 174.023 172.143  0.00  0.00     0.040 A 
HETATM   27  C   UNK     0     180.073 175.394 172.389  0.00  0.00     0.017 A 
BRANCH  24  28
HETATM   28  O   UNK     0     182.850 173.902 169.686  0.00  0.00    -0.358 OA
HETATM   29  H   UNK     0     182.836 174.470 168.897  0.00  0.00     0.217 HD
ENDBRANCH  24  28
BRANCH  25  30
HETATM   30  O   UNK     0     181.116 172.177 171.004  0.00  0.00    -0.358 OA
HETATM   31  H   UNK     0     181.681 172.009 170.230  0.00  0.00     0.217 HD
ENDBRANCH  25  30
ENDBRANCH  16  22
BRANCH  20  32
HETATM   32  O   UNK     0     180.049 182.637 172.875  0.00  0.00    -0.360 OA
HETATM   33  H   UNK     0     179.237 182.109 172.904  0.00  0.00     0.217 HD
ENDBRANCH  20  32
ENDBRANCH  10  11
ENDBRANCH   6  10
BRANCH   3  34
HETATM   34  O   UNK     0     186.483 186.899 175.006  0.00  0.00    -0.390 OA
HETATM   35  H   UNK     0     185.835 187.523 174.634  0.00  0.00     0.210 HD
ENDBRANCH   3  34
BRANCH   4  36
HETATM   36  O   UNK     0     185.696 182.176 175.284  0.00  0.00    -0.388 OA
HETATM   37  H   UNK     0     185.568 182.574 176.162  0.00  0.00     0.210 HD
ENDBRANCH   4  36
BRANCH   2  38
HETATM   38  O   UNK     0     187.590 184.363 175.842  0.00  0.00    -0.390 OA
HETATM   39  H   UNK     0     187.581 184.986 176.589  0.00  0.00     0.210 HD
ENDBRANCH   2  38
TORSDOF 11
