REMARK VINA RESULT:      -8.4      0.000      0.000
REMARK  11 active torsions:
REMARK  status: ('A' for Active; 'I' for Inactive)
REMARK    1  A    between atoms: O_2  and  C_16 
REMARK    2  A    between atoms: O_2  and  C_18 
REMARK    3  A    between atoms: O_3  and  C_12 
REMARK    4  A    between atoms: O_4  and  C_13 
REMARK    5  A    between atoms: O_5  and  C_14 
REMARK    6  A    between atoms: O_6  and  C_17 
REMARK    7  A    between atoms: O_8  and  C_23 
REMARK    8  A    between atoms: O_10  and  C_30 
REMARK    9  A    between atoms: O_11  and  C_32 
REMARK   10  A    between atoms: C_15  and  C_17 
REMARK   11  A    between atoms: C_25  and  C_27 
ROOT
HETATM    1  O   UNK     0     184.070 185.193 174.644  0.00  0.00    -0.348 OA
HETATM    2  C   UNK     0     185.618 186.453 172.579  0.00  0.00     0.183 C 
HETATM    3  C   UNK     0     185.793 186.793 174.060  0.00  0.00     0.180 C 
HETATM    4  C   UNK     0     184.242 185.844 172.311  0.00  0.00     0.205 C 
HETATM    5  C   UNK     0     185.406 185.602 174.940  0.00  0.00     0.179 C 
HETATM    6  C   UNK     0     183.924 184.727 173.304  0.00  0.00     0.298 C 
ENDROOT
BRANCH   5   7
HETATM    7  C   UNK     0     185.461 185.955 176.423  0.00  0.00     0.198 C 
BRANCH   7   8
HETATM    8  O   UNK     0     186.752 185.640 176.913  0.00  0.00    -0.398 OA
HETATM    9  H   UNK     0     187.267 185.272 176.174  0.00  0.00     0.209 HD
ENDBRANCH   7   8
ENDBRANCH   5   7
BRANCH   6  10
HETATM   10  O   UNK     0     182.578 184.310 173.082  0.00  0.00    -0.318 OA
BRANCH  10  11
HETATM   11  C   UNK     0     182.382 182.983 172.836  0.00  0.00     0.077 A 
HETATM   12  C   UNK     0     181.090 182.499 172.622  0.00  0.00     0.075 A 
HETATM   13  C   UNK     0     180.892 181.142 172.371  0.00  0.00     0.095 A 
HETATM   14  O   UNK     0     179.601 180.724 172.169  0.00  0.00    -0.309 OA
HETATM   15  C   UNK     0     181.982 180.272 172.337  0.00  0.00     0.081 A 
HETATM   16  C   UNK     0     179.374 179.381 171.912  0.00  0.00     0.090 A 
HETATM   17  C   UNK     0     180.337 178.448 171.859  0.00  0.00     0.094 A 
HETATM   18  C   UNK     0     181.743 178.845 172.072  0.00  0.00     0.190 A 
HETATM   19  O   UNK     0     182.652 178.028 172.031  0.00  0.00    -0.287 OA
HETATM   20  C   UNK     0     183.276 180.753 172.551  0.00  0.00     0.085 A 
HETATM   21  C   UNK     0     183.471 182.113 172.801  0.00  0.00     0.074 A 
BRANCH  16  22
HETATM   22  C   UNK     0     177.950 179.040 171.714  0.00  0.00     0.001 A 
HETATM   23  C   UNK     0     177.253 179.550 170.617  0.00  0.00     0.053 A 
HETATM   24  C   UNK     0     175.908 179.226 170.430  0.00  0.00     0.099 A 
HETATM   25  C   UNK     0     175.258 178.394 171.340  0.00  0.00     0.098 A 
HETATM   26  C   UNK     0     175.952 177.883 172.437  0.00  0.00     0.040 A 
HETATM   27  C   UNK     0     177.296 178.205 172.624  0.00  0.00     0.017 A 
BRANCH  24  28
HETATM   28  O   UNK     0     175.239 179.733 169.356  0.00  0.00    -0.358 OA
HETATM   29  H   UNK     0     175.283 179.083 168.635  0.00  0.00     0.217 HD
ENDBRANCH  24  28
BRANCH  25  30
HETATM   30  O   UNK     0     173.946 178.071 171.168  0.00  0.00    -0.358 OA
HETATM   31  H   UNK     0     173.431 178.427 171.913  0.00  0.00     0.217 HD
ENDBRANCH  25  30
ENDBRANCH  16  22
BRANCH  20  32
HETATM   32  O   UNK     0     184.371 179.945 172.527  0.00  0.00    -0.360 OA
HETATM   33  H   UNK     0     184.116 179.020 172.658  0.00  0.00     0.217 HD
ENDBRANCH  20  32
ENDBRANCH  10  11
ENDBRANCH   6  10
BRANCH   3  34
HETATM   34  O   UNK     0     187.155 187.137 174.306  0.00  0.00    -0.390 OA
HETATM   35  H   UNK     0     187.703 186.361 174.098  0.00  0.00     0.210 HD
ENDBRANCH   3  34
BRANCH   4  36
HETATM   36  O   UNK     0     184.216 185.294 170.994  0.00  0.00    -0.388 OA
HETATM   37  H   UNK     0     184.652 185.925 170.395  0.00  0.00     0.210 HD
ENDBRANCH   4  36
BRANCH   2  38
HETATM   38  O   UNK     0     185.759 187.661 171.829  0.00  0.00    -0.390 OA
HETATM   39  H   UNK     0     186.310 188.267 172.354  0.00  0.00     0.210 HD
ENDBRANCH   2  38
TORSDOF 11
