REMARK VINA RESULT:      -7.9      5.940     10.165
REMARK  11 active torsions:
REMARK  status: ('A' for Active; 'I' for Inactive)
REMARK    1  A    between atoms: O_2  and  C_16 
REMARK    2  A    between atoms: O_2  and  C_18 
REMARK    3  A    between atoms: O_3  and  C_12 
REMARK    4  A    between atoms: O_4  and  C_13 
REMARK    5  A    between atoms: O_5  and  C_14 
REMARK    6  A    between atoms: O_6  and  C_17 
REMARK    7  A    between atoms: O_8  and  C_23 
REMARK    8  A    between atoms: O_10  and  C_30 
REMARK    9  A    between atoms: O_11  and  C_32 
REMARK   10  A    between atoms: C_15  and  C_17 
REMARK   11  A    between atoms: C_25  and  C_27 
ROOT
HETATM    1  O   UNK     0     184.900 183.966 172.701  0.00  0.00    -0.348 OA
HETATM    2  C   UNK     0     186.841 183.699 174.801  0.00  0.00     0.183 C 
HETATM    3  C   UNK     0     185.403 183.198 174.943  0.00  0.00     0.180 C 
HETATM    4  C   UNK     0     186.945 184.781 173.725  0.00  0.00     0.205 C 
HETATM    5  C   UNK     0     184.815 182.840 173.577  0.00  0.00     0.179 C 
HETATM    6  C   UNK     0     186.247 184.352 172.435  0.00  0.00     0.298 C 
ENDROOT
BRANCH   5   7
HETATM    7  C   UNK     0     183.344 182.449 173.681  0.00  0.00     0.198 C 
BRANCH   7   8
HETATM    8  O   UNK     0     183.263 181.140 174.215  0.00  0.00    -0.398 OA
HETATM    9  H   UNK     0     182.388 181.043 174.629  0.00  0.00     0.209 HD
ENDBRANCH   7   8
ENDBRANCH   5   7
BRANCH   6  10
HETATM   10  O   UNK     0     186.263 185.460 171.536  0.00  0.00    -0.318 OA
BRANCH  10  11
HETATM   11  C   UNK     0     187.047 185.336 170.428  0.00  0.00     0.077 A 
HETATM   12  C   UNK     0     187.691 184.127 170.162  0.00  0.00     0.075 A 
HETATM   13  C   UNK     0     188.493 184.003 169.028  0.00  0.00     0.095 A 
HETATM   14  O   UNK     0     189.101 182.790 168.820  0.00  0.00    -0.309 OA
HETATM   15  C   UNK     0     188.651 185.086 168.164  0.00  0.00     0.081 A 
HETATM   16  C   UNK     0     189.899 182.636 167.697  0.00  0.00     0.090 A 
HETATM   17  C   UNK     0     190.132 183.604 166.797  0.00  0.00     0.094 A 
HETATM   18  C   UNK     0     189.504 184.928 166.977  0.00  0.00     0.190 A 
HETATM   19  O   UNK     0     189.689 185.836 166.179  0.00  0.00    -0.287 OA
HETATM   20  C   UNK     0     188.008 186.298 168.427  0.00  0.00     0.085 A 
HETATM   21  C   UNK     0     187.205 186.418 169.562  0.00  0.00     0.074 A 
BRANCH  16  22
HETATM   22  C   UNK     0     190.508 181.295 167.574  0.00  0.00     0.001 A 
HETATM   23  C   UNK     0     189.807 180.166 168.002  0.00  0.00     0.053 A 
HETATM   24  C   UNK     0     190.382 178.900 167.884  0.00  0.00     0.099 A 
HETATM   25  C   UNK     0     191.657 178.760 167.338  0.00  0.00     0.098 A 
HETATM   26  C   UNK     0     192.358 179.887 166.908  0.00  0.00     0.040 A 
HETATM   27  C   UNK     0     191.785 181.153 167.026  0.00  0.00     0.017 A 
BRANCH  24  28
HETATM   28  O   UNK     0     189.688 177.806 168.309  0.00  0.00    -0.358 OA
HETATM   29  H   UNK     0     189.910 177.647 169.242  0.00  0.00     0.217 HD
ENDBRANCH  24  28
BRANCH  25  30
HETATM   30  O   UNK     0     192.228 177.530 167.216  0.00  0.00    -0.358 OA
HETATM   31  H   UNK     0     193.167 177.590 167.463  0.00  0.00     0.217 HD
ENDBRANCH  25  30
ENDBRANCH  16  22
BRANCH  20  32
HETATM   32  O   UNK     0     188.130 187.383 167.614  0.00  0.00    -0.360 OA
HETATM   33  H   UNK     0     187.988 188.202 168.113  0.00  0.00     0.217 HD
ENDBRANCH  20  32
ENDBRANCH  10  11
ENDBRANCH   6  10
BRANCH   3  34
HETATM   34  O   UNK     0     185.388 182.043 175.780  0.00  0.00    -0.390 OA
HETATM   35  H   UNK     0     184.743 181.416 175.413  0.00  0.00     0.210 HD
ENDBRANCH   3  34
BRANCH   4  36
HETATM   36  O   UNK     0     188.321 185.024 173.430  0.00  0.00    -0.388 OA
HETATM   37  H   UNK     0     188.823 184.959 174.261  0.00  0.00     0.210 HD
ENDBRANCH   4  36
BRANCH   2  38
HETATM   38  O   UNK     0     187.248 184.239 176.059  0.00  0.00    -0.390 OA
HETATM   39  H   UNK     0     186.445 184.367 176.594  0.00  0.00     0.210 HD
ENDBRANCH   2  38
TORSDOF 11
