REMARK VINA RESULT:      -7.9      2.540      4.731
REMARK  11 active torsions:
REMARK  status: ('A' for Active; 'I' for Inactive)
REMARK    1  A    between atoms: O_2  and  C_16 
REMARK    2  A    between atoms: O_2  and  C_18 
REMARK    3  A    between atoms: O_3  and  C_12 
REMARK    4  A    between atoms: O_4  and  C_13 
REMARK    5  A    between atoms: O_5  and  C_14 
REMARK    6  A    between atoms: O_6  and  C_17 
REMARK    7  A    between atoms: O_8  and  C_23 
REMARK    8  A    between atoms: O_10  and  C_30 
REMARK    9  A    between atoms: O_11  and  C_32 
REMARK   10  A    between atoms: C_15  and  C_17 
REMARK   11  A    between atoms: C_25  and  C_27 
ROOT
HETATM    1  O   UNK     0     185.902 183.949 172.280  0.00  0.00    -0.348 OA
HETATM    2  C   UNK     0     186.369 186.569 173.360  0.00  0.00     0.183 C 
HETATM    3  C   UNK     0     187.172 186.010 172.184  0.00  0.00     0.180 C 
HETATM    4  C   UNK     0     185.744 185.444 174.187  0.00  0.00     0.205 C 
HETATM    5  C   UNK     0     186.348 184.985 171.402  0.00  0.00     0.179 C 
HETATM    6  C   UNK     0     185.025 184.432 173.295  0.00  0.00     0.298 C 
ENDROOT
BRANCH   5   7
HETATM    7  C   UNK     0     187.168 184.329 170.296  0.00  0.00     0.198 C 
BRANCH   7   8
HETATM    8  O   UNK     0     188.542 184.480 170.602  0.00  0.00    -0.398 OA
HETATM    9  H   UNK     0     188.856 183.638 170.976  0.00  0.00     0.209 HD
ENDBRANCH   7   8
ENDBRANCH   5   7
BRANCH   6  10
HETATM   10  O   UNK     0     184.596 183.348 174.118  0.00  0.00    -0.318 OA
BRANCH  10  11
HETATM   11  C   UNK     0     183.503 182.653 173.692  0.00  0.00     0.077 A 
HETATM   12  C   UNK     0     183.641 181.330 173.269  0.00  0.00     0.075 A 
HETATM   13  C   UNK     0     182.523 180.621 172.834  0.00  0.00     0.095 A 
HETATM   14  O   UNK     0     182.720 179.324 172.430  0.00  0.00    -0.309 OA
HETATM   15  C   UNK     0     181.270 181.234 172.820  0.00  0.00     0.081 A 
HETATM   16  C   UNK     0     181.624 178.593 171.998  0.00  0.00     0.090 A 
HETATM   17  C   UNK     0     180.373 179.074 171.933  0.00  0.00     0.094 A 
HETATM   18  C   UNK     0     180.108 180.464 172.353  0.00  0.00     0.190 A 
HETATM   19  O   UNK     0     178.982 180.940 172.312  0.00  0.00    -0.287 OA
HETATM   20  C   UNK     0     181.128 182.559 173.241  0.00  0.00     0.085 A 
HETATM   21  C   UNK     0     182.250 183.265 173.678  0.00  0.00     0.074 A 
BRANCH  16  22
HETATM   22  C   UNK     0     181.950 177.213 171.582  0.00  0.00     0.001 A 
HETATM   23  C   UNK     0     181.188 176.142 172.053  0.00  0.00     0.053 A 
HETATM   24  C   UNK     0     181.495 174.839 171.659  0.00  0.00     0.099 A 
HETATM   25  C   UNK     0     182.565 174.604 170.796  0.00  0.00     0.098 A 
HETATM   26  C   UNK     0     183.327 175.673 170.324  0.00  0.00     0.040 A 
HETATM   27  C   UNK     0     183.021 176.975 170.717  0.00  0.00     0.017 A 
BRANCH  24  28
HETATM   28  O   UNK     0     180.745 173.802 172.128  0.00  0.00    -0.358 OA
HETATM   29  H   UNK     0     180.402 173.304 171.366  0.00  0.00     0.217 HD
ENDBRANCH  24  28
BRANCH  25  30
HETATM   30  O   UNK     0     182.873 173.337 170.404  0.00  0.00    -0.358 OA
HETATM   31  H   UNK     0     183.606 173.372 169.765  0.00  0.00     0.217 HD
ENDBRANCH  25  30
ENDBRANCH  16  22
BRANCH  20  32
HETATM   32  O   UNK     0     179.928 183.201 173.246  0.00  0.00    -0.360 OA
HETATM   33  H   UNK     0     179.216 182.593 173.496  0.00  0.00     0.217 HD
ENDBRANCH  20  32
ENDBRANCH  10  11
ENDBRANCH   6  10
BRANCH   3  34
HETATM   34  O   UNK     0     187.540 187.080 171.316  0.00  0.00    -0.390 OA
HETATM   35  H   UNK     0     187.952 187.776 171.855  0.00  0.00     0.210 HD
ENDBRANCH   3  34
BRANCH   4  36
HETATM   36  O   UNK     0     184.792 185.997 175.095  0.00  0.00    -0.388 OA
HETATM   37  H   UNK     0     184.591 185.324 175.768  0.00  0.00     0.210 HD
ENDBRANCH   4  36
BRANCH   2  38
HETATM   38  O   UNK     0     187.258 187.326 174.183  0.00  0.00    -0.390 OA
HETATM   39  H   UNK     0     187.137 188.264 173.954  0.00  0.00     0.210 HD
ENDBRANCH   2  38
TORSDOF 11
