REMARK  11 active torsions:
REMARK  status: ('A' for Active; 'I' for Inactive)
REMARK    1  A    between atoms: O_2  and  C_16 
REMARK    2  A    between atoms: O_2  and  C_18 
REMARK    3  A    between atoms: O_3  and  C_12 
REMARK    4  A    between atoms: O_4  and  C_13 
REMARK    5  A    between atoms: O_5  and  C_14 
REMARK    6  A    between atoms: O_6  and  C_17 
REMARK    7  A    between atoms: O_8  and  C_23 
REMARK    8  A    between atoms: O_10  and  C_30 
REMARK    9  A    between atoms: O_11  and  C_32 
REMARK   10  A    between atoms: C_15  and  C_17 
REMARK   11  A    between atoms: C_25  and  C_27 
ROOT
HETATM    1  O   UNK     0      -3.633   0.054  -0.564  0.00  0.00    -0.348 OA
HETATM    2  C   UNK     0      -5.475  -1.754   0.696  0.00  0.00     0.183 C 
HETATM    3  C   UNK     0      -5.564  -1.393  -0.787  0.00  0.00     0.180 C 
HETATM    4  C   UNK     0      -4.715  -0.684   1.481  0.00  0.00     0.205 C 
HETATM    5  C   UNK     0      -4.188  -1.012  -1.337  0.00  0.00     0.179 C 
HETATM    6  C   UNK     0      -3.400  -0.318   0.793  0.00  0.00     0.298 C 
ENDROOT
BRANCH   5   7
HETATM    7  C   UNK     0      -4.271  -0.536  -2.784  0.00  0.00     0.198 C 
BRANCH   7   8
HETATM    8  O   UNK     0      -2.969  -0.191  -3.220  0.00  0.00    -0.398 OA
HETATM    9  H   UNK     0      -2.629   0.496  -2.621  0.00  0.00     0.209 HD
ENDBRANCH   7   8
ENDBRANCH   5   7
BRANCH   6  10
HETATM   10  O   UNK     0      -2.823   0.778   1.501  0.00  0.00    -0.318 OA
BRANCH  10  11
HETATM   11  C   UNK     0      -1.637   1.255   1.027  0.00  0.00     0.077 A 
HETATM   12  C   UNK     0      -0.525   0.414   0.962  0.00  0.00     0.075 A 
HETATM   13  C   UNK     0       0.687   0.904   0.477  0.00  0.00     0.095 A 
HETATM   14  O   UNK     0       1.745   0.031   0.437  0.00  0.00    -0.309 OA
HETATM   15  C   UNK     0       0.786   2.231   0.060  0.00  0.00     0.081 A 
HETATM   16  C   UNK     0       2.961   0.489  -0.046  0.00  0.00     0.090 A 
HETATM   17  C   UNK     0       3.182   1.743  -0.470  0.00  0.00     0.094 A 
HETATM   18  C   UNK     0       2.077   2.722  -0.445  0.00  0.00     0.190 A 
HETATM   19  O   UNK     0       2.235   3.874  -0.824  0.00  0.00    -0.287 OA
HETATM   20  C   UNK     0      -0.325   3.076   0.124  0.00  0.00     0.085 A 
HETATM   21  C   UNK     0      -1.537   2.582   0.609  0.00  0.00     0.074 A 
BRANCH  16  22
HETATM   22  C   UNK     0       4.031  -0.530  -0.040  0.00  0.00     0.001 A 
HETATM   23  C   UNK     0       5.362  -0.147   0.140  0.00  0.00     0.053 A 
HETATM   24  C   UNK     0       6.372  -1.110   0.147  0.00  0.00     0.099 A 
HETATM   25  C   UNK     0       6.054  -2.456  -0.027  0.00  0.00     0.098 A 
HETATM   26  C   UNK     0       4.725  -2.841  -0.206  0.00  0.00     0.040 A 
HETATM   27  C   UNK     0       3.715  -1.880  -0.213  0.00  0.00     0.017 A 
BRANCH  24  28
HETATM   28  O   UNK     0       7.667  -0.722   0.321  0.00  0.00    -0.358 OA
HETATM   29  H   UNK     0       8.229  -1.515   0.298  0.00  0.00     0.217 HD
ENDBRANCH  24  28
BRANCH  25  30
HETATM   30  O   UNK     0       7.031  -3.405  -0.021  0.00  0.00    -0.358 OA
HETATM   31  H   UNK     0       6.625  -4.279  -0.154  0.00  0.00     0.217 HD
ENDBRANCH  25  30
ENDBRANCH  16  22
BRANCH  20  32
HETATM   32  O   UNK     0      -0.279   4.378  -0.271  0.00  0.00    -0.360 OA
HETATM   33  H   UNK     0       0.607   4.607  -0.590  0.00  0.00     0.217 HD
ENDBRANCH  20  32
ENDBRANCH  10  11
ENDBRANCH   6  10
BRANCH   3  34
HETATM   34  O   UNK     0      -6.069  -2.511  -1.514  0.00  0.00    -0.390 OA
HETATM   35  H   UNK     0      -5.441  -3.246  -1.408  0.00  0.00     0.210 HD
ENDBRANCH   3  34
BRANCH   4  36
HETATM   36  O   UNK     0      -4.415  -1.178   2.786  0.00  0.00    -0.388 OA
HETATM   37  H   UNK     0      -3.859  -1.970   2.688  0.00  0.00     0.210 HD
ENDBRANCH   4  36
BRANCH   2  38
HETATM   38  O   UNK     0      -6.805  -1.863   1.206  0.00  0.00    -0.390 OA
HETATM   39  H   UNK     0      -7.264  -2.539   0.678  0.00  0.00     0.210 HD
ENDBRANCH   2  38
TORSDOF 11
