MODEL 1
REMARK VINA RESULT:      -6.4      0.000      0.000
REMARK  4 active torsions:
REMARK  status: ('A' for Active; 'I' for Inactive)
REMARK    1  A    between atoms: O_1  and  C_10 
REMARK    2  A    between atoms: O_1  and  C_11 
REMARK    3  A    between atoms: N_3  and  C_7 
REMARK    4  A    between atoms: C_4  and  C_10 
ROOT
HETATM    1  O   UNK     0      39.018  -6.700   0.930  0.00  0.00    -0.318 OA
ENDROOT
BRANCH   1   2
HETATM    2  C   UNK     0      40.317  -6.286   0.812  0.00  0.00     0.293 C 
HETATM    3  O   UNK     0      41.287  -7.054   0.756  0.00  0.00    -0.259 OA
BRANCH   2   4
HETATM    4  C   UNK     0      40.413  -4.836   0.764  0.00  0.00     0.039 A 
HETATM    5  C   UNK     0      40.144  -4.159  -0.426  0.00  0.00     0.020 A 
HETATM    6  C   UNK     0      40.237  -2.768  -0.473  0.00  0.00     0.030 A 
HETATM    7  C   UNK     0      40.597  -2.053   0.670  0.00  0.00     0.025 A 
HETATM    8  C   UNK     0      40.866  -2.730   1.859  0.00  0.00     0.030 A 
HETATM    9  C   UNK     0      40.775  -4.121   1.906  0.00  0.00     0.020 A 
BRANCH   7  10
HETATM   10  N   UNK     0      40.691  -0.647   0.622  0.00  0.00    -0.399 N 
HETATM   11  H   UNK     0      41.558  -0.189   0.866  0.00  0.00     0.156 HD
HETATM   12  H   UNK     0      39.889  -0.096   0.344  0.00  0.00     0.156 HD
ENDBRANCH   7  10
ENDBRANCH   2   4
ENDBRANCH   1   2
BRANCH   1  13
HETATM   13  C   UNK     0      38.600  -7.158   2.221  0.00  0.00     0.174 C 
HETATM   14  C   UNK     0      37.096  -7.023   2.327  0.00  0.00     0.034 C 
ENDBRANCH   1  13
TORSDOF 4
ENDMDL
MODEL 2
REMARK VINA RESULT:      -6.0      1.729      2.459
REMARK  4 active torsions:
REMARK  status: ('A' for Active; 'I' for Inactive)
REMARK    1  A    between atoms: O_1  and  C_10 
REMARK    2  A    between atoms: O_1  and  C_11 
REMARK    3  A    between atoms: N_3  and  C_7 
REMARK    4  A    between atoms: C_4  and  C_10 
ROOT
HETATM    1  O   UNK     0      41.112  -5.167   0.473  0.00  0.00    -0.318 OA
ENDROOT
BRANCH   1   2
HETATM    2  C   UNK     0      40.801  -4.142   1.325  0.00  0.00     0.293 C 
HETATM    3  O   UNK     0      40.705  -4.268   2.553  0.00  0.00    -0.259 OA
BRANCH   2   4
HETATM    4  C   UNK     0      40.597  -2.894   0.608  0.00  0.00     0.039 A 
HETATM    5  C   UNK     0      40.177  -2.915  -0.723  0.00  0.00     0.020 A 
HETATM    6  C   UNK     0      39.983  -1.717  -1.411  0.00  0.00     0.030 A 
HETATM    7  C   UNK     0      40.206  -0.499  -0.770  0.00  0.00     0.025 A 
HETATM    8  C   UNK     0      40.626  -0.479   0.560  0.00  0.00     0.030 A 
HETATM    9  C   UNK     0      40.821  -1.676   1.249  0.00  0.00     0.020 A 
BRANCH   7  10
HETATM   10  N   UNK     0      40.010   0.711  -1.466  0.00  0.00    -0.399 N 
HETATM   11  H   UNK     0      39.626   1.514  -0.986  0.00  0.00     0.156 HD
HETATM   12  H   UNK     0      40.250   0.776  -2.447  0.00  0.00     0.156 HD
ENDBRANCH   7  10
ENDBRANCH   2   4
ENDBRANCH   1   2
BRANCH   1  13
HETATM   13  C   UNK     0      41.010  -6.496   0.995  0.00  0.00     0.174 C 
HETATM   14  C   UNK     0      39.653  -7.063   0.640  0.00  0.00     0.034 C 
ENDBRANCH   1  13
TORSDOF 4
ENDMDL
MODEL 3
REMARK VINA RESULT:      -5.5     14.156     15.656
REMARK  4 active torsions:
REMARK  status: ('A' for Active; 'I' for Inactive)
REMARK    1  A    between atoms: O_1  and  C_10 
REMARK    2  A    between atoms: O_1  and  C_11 
REMARK    3  A    between atoms: N_3  and  C_7 
REMARK    4  A    between atoms: C_4  and  C_10 
ROOT
HETATM    1  O   UNK     0      30.784   7.235  -5.593  0.00  0.00    -0.318 OA
ENDROOT
BRANCH   1   2
HETATM    2  C   UNK     0      31.206   6.590  -6.724  0.00  0.00     0.293 C 
HETATM    3  O   UNK     0      30.485   6.367  -7.705  0.00  0.00    -0.259 OA
BRANCH   2   4
HETATM    4  C   UNK     0      32.604   6.201  -6.626  0.00  0.00     0.039 A 
HETATM    5  C   UNK     0      33.272   6.302  -5.405  0.00  0.00     0.020 A 
HETATM    6  C   UNK     0      34.613   5.929  -5.311  0.00  0.00     0.030 A 
HETATM    7  C   UNK     0      35.287   5.456  -6.438  0.00  0.00     0.025 A 
HETATM    8  C   UNK     0      34.619   5.357  -7.658  0.00  0.00     0.030 A 
HETATM    9  C   UNK     0      33.278   5.729  -7.752  0.00  0.00     0.020 A 
BRANCH   7  10
HETATM   10  N   UNK     0      36.642   5.081  -6.342  0.00  0.00    -0.399 N 
HETATM   11  H   UNK     0      37.295   5.351  -7.066  0.00  0.00     0.156 HD
HETATM   12  H   UNK     0      36.963   4.539  -5.550  0.00  0.00     0.156 HD
ENDBRANCH   7  10
ENDBRANCH   2   4
ENDBRANCH   1   2
BRANCH   1  13
HETATM   13  C   UNK     0      29.456   7.772  -5.614  0.00  0.00     0.174 C 
HETATM   14  C   UNK     0      29.458   9.115  -4.916  0.00  0.00     0.034 C 
ENDBRANCH   1  13
TORSDOF 4
ENDMDL
MODEL 4
REMARK VINA RESULT:      -5.5      2.343      3.522
REMARK  4 active torsions:
REMARK  status: ('A' for Active; 'I' for Inactive)
REMARK    1  A    between atoms: O_1  and  C_10 
REMARK    2  A    between atoms: O_1  and  C_11 
REMARK    3  A    between atoms: N_3  and  C_7 
REMARK    4  A    between atoms: C_4  and  C_10 
ROOT
HETATM    1  O   UNK     0      41.128  -4.380   0.545  0.00  0.00    -0.318 OA
ENDROOT
BRANCH   1   2
HETATM    2  C   UNK     0      39.878  -3.924   0.222  0.00  0.00     0.293 C 
HETATM    3  O   UNK     0      38.851  -4.611   0.295  0.00  0.00    -0.259 OA
BRANCH   2   4
HETATM    4  C   UNK     0      39.911  -2.538  -0.215  0.00  0.00     0.039 A 
HETATM    5  C   UNK     0      40.568  -1.579   0.556  0.00  0.00     0.020 A 
HETATM    6  C   UNK     0      40.599  -0.248   0.136  0.00  0.00     0.030 A 
HETATM    7  C   UNK     0      39.975   0.123  -1.054  0.00  0.00     0.025 A 
HETATM    8  C   UNK     0      39.318  -0.836  -1.825  0.00  0.00     0.030 A 
HETATM    9  C   UNK     0      39.286  -2.166  -1.406  0.00  0.00     0.020 A 
BRANCH   7  10
HETATM   10  N   UNK     0      40.006   1.467  -1.478  0.00  0.00    -0.399 N 
HETATM   11  H   UNK     0      39.756   2.206  -0.835  0.00  0.00     0.156 HD
HETATM   12  H   UNK     0      40.279   1.693  -2.426  0.00  0.00     0.156 HD
ENDBRANCH   7  10
ENDBRANCH   2   4
ENDBRANCH   1   2
BRANCH   1  13
HETATM   13  C   UNK     0      41.298  -4.925   1.858  0.00  0.00     0.174 C 
HETATM   14  C   UNK     0      41.887  -3.862   2.760  0.00  0.00     0.034 C 
ENDBRANCH   1  13
TORSDOF 4
ENDMDL
MODEL 5
REMARK VINA RESULT:      -5.5     13.878     15.175
REMARK  4 active torsions:
REMARK  status: ('A' for Active; 'I' for Inactive)
REMARK    1  A    between atoms: O_1  and  C_10 
REMARK    2  A    between atoms: O_1  and  C_11 
REMARK    3  A    between atoms: N_3  and  C_7 
REMARK    4  A    between atoms: C_4  and  C_10 
ROOT
HETATM    1  O   UNK     0      35.610   6.077  -5.234  0.00  0.00    -0.318 OA
ENDROOT
BRANCH   1   2
HETATM    2  C   UNK     0      35.179   5.659  -6.464  0.00  0.00     0.293 C 
HETATM    3  O   UNK     0      35.900   5.091  -7.294  0.00  0.00    -0.259 OA
BRANCH   2   4
HETATM    4  C   UNK     0      33.772   5.967  -6.670  0.00  0.00     0.039 A 
HETATM    5  C   UNK     0      33.010   5.192  -7.545  0.00  0.00     0.020 A 
HETATM    6  C   UNK     0      31.661   5.488  -7.743  0.00  0.00     0.030 A 
HETATM    7  C   UNK     0      31.074   6.558  -7.066  0.00  0.00     0.025 A 
HETATM    8  C   UNK     0      31.837   7.332  -6.192  0.00  0.00     0.030 A 
HETATM    9  C   UNK     0      33.186   7.037  -5.994  0.00  0.00     0.020 A 
BRANCH   7  10
HETATM   10  N   UNK     0      29.711   6.856  -7.267  0.00  0.00    -0.399 N 
HETATM   11  H   UNK     0      29.445   7.641  -7.847  0.00  0.00     0.156 HD
HETATM   12  H   UNK     0      28.999   6.287  -6.830  0.00  0.00     0.156 HD
ENDBRANCH   7  10
ENDBRANCH   2   4
ENDBRANCH   1   2
BRANCH   1  13
HETATM   13  C   UNK     0      36.908   6.678  -5.174  0.00  0.00     0.174 C 
HETATM   14  C   UNK     0      36.753   8.157  -4.894  0.00  0.00     0.034 C 
ENDBRANCH   1  13
TORSDOF 4
ENDMDL
MODEL 6
REMARK VINA RESULT:      -5.5     15.807     16.567
REMARK  4 active torsions:
REMARK  status: ('A' for Active; 'I' for Inactive)
REMARK    1  A    between atoms: O_1  and  C_10 
REMARK    2  A    between atoms: O_1  and  C_11 
REMARK    3  A    between atoms: N_3  and  C_7 
REMARK    4  A    between atoms: C_4  and  C_10 
ROOT
HETATM    1  O   UNK     0      29.978   7.487  -4.767  0.00  0.00    -0.318 OA
ENDROOT
BRANCH   1   2
HETATM    2  C   UNK     0      31.050   8.211  -5.214  0.00  0.00     0.293 C 
HETATM    3  O   UNK     0      31.289   9.376  -4.871  0.00  0.00    -0.259 OA
BRANCH   2   4
HETATM    4  C   UNK     0      31.867   7.442  -6.139  0.00  0.00     0.039 A 
HETATM    5  C   UNK     0      33.177   7.838  -6.408  0.00  0.00     0.020 A 
HETATM    6  C   UNK     0      33.960   7.100  -7.296  0.00  0.00     0.030 A 
HETATM    7  C   UNK     0      33.433   5.966  -7.915  0.00  0.00     0.025 A 
HETATM    8  C   UNK     0      32.124   5.570  -7.645  0.00  0.00     0.030 A 
HETATM    9  C   UNK     0      31.340   6.308  -6.758  0.00  0.00     0.020 A 
BRANCH   7  10
HETATM   10  N   UNK     0      34.225   5.220  -8.812  0.00  0.00    -0.399 N 
HETATM   11  H   UNK     0      33.913   5.077  -9.763  0.00  0.00     0.156 HD
HETATM   12  H   UNK     0      35.104   4.826  -8.504  0.00  0.00     0.156 HD
ENDBRANCH   7  10
ENDBRANCH   2   4
ENDBRANCH   1   2
BRANCH   1  13
HETATM   13  C   UNK     0      29.396   7.894  -3.524  0.00  0.00     0.174 C 
HETATM   14  C   UNK     0      27.942   8.246  -3.753  0.00  0.00     0.034 C 
ENDBRANCH   1  13
TORSDOF 4
ENDMDL
MODEL 7
REMARK VINA RESULT:      -5.4      3.080      4.722
REMARK  4 active torsions:
REMARK  status: ('A' for Active; 'I' for Inactive)
REMARK    1  A    between atoms: O_1  and  C_10 
REMARK    2  A    between atoms: O_1  and  C_11 
REMARK    3  A    between atoms: N_3  and  C_7 
REMARK    4  A    between atoms: C_4  and  C_10 
ROOT
HETATM    1  O   UNK     0      40.849  -3.204   0.330  0.00  0.00    -0.318 OA
ENDROOT
BRANCH   1   2
HETATM    2  C   UNK     0      39.613  -3.681  -0.014  0.00  0.00     0.293 C 
HETATM    3  O   UNK     0      38.862  -3.132  -0.832  0.00  0.00    -0.259 OA
BRANCH   2   4
HETATM    4  C   UNK     0      39.295  -4.907   0.700  0.00  0.00     0.039 A 
HETATM    5  C   UNK     0      39.936  -6.098   0.360  0.00  0.00     0.020 A 
HETATM    6  C   UNK     0      39.630  -7.275   1.045  0.00  0.00     0.030 A 
HETATM    7  C   UNK     0      38.684  -7.260   2.071  0.00  0.00     0.025 A 
HETATM    8  C   UNK     0      38.044  -6.068   2.411  0.00  0.00     0.030 A 
HETATM    9  C   UNK     0      38.348  -4.892   1.725  0.00  0.00     0.020 A 
BRANCH   7  10
HETATM   10  N   UNK     0      38.375  -8.449   2.762  0.00  0.00    -0.399 N 
HETATM   11  H   UNK     0      37.434  -8.816   2.742  0.00  0.00     0.156 HD
HETATM   12  H   UNK     0      39.096  -8.934   3.282  0.00  0.00     0.156 HD
ENDBRANCH   7  10
ENDBRANCH   2   4
ENDBRANCH   1   2
BRANCH   1  13
HETATM   13  C   UNK     0      41.247  -3.368   1.696  0.00  0.00     0.174 C 
HETATM   14  C   UNK     0      41.034  -2.063   2.431  0.00  0.00     0.034 C 
ENDBRANCH   1  13
TORSDOF 4
ENDMDL
MODEL 8
REMARK VINA RESULT:      -5.2     14.229     15.967
REMARK  4 active torsions:
REMARK  status: ('A' for Active; 'I' for Inactive)
REMARK    1  A    between atoms: O_1  and  C_10 
REMARK    2  A    between atoms: O_1  and  C_11 
REMARK    3  A    between atoms: N_3  and  C_7 
REMARK    4  A    between atoms: C_4  and  C_10 
ROOT
HETATM    1  O   UNK     0      35.595   8.229  -5.889  0.00  0.00    -0.318 OA
ENDROOT
BRANCH   1   2
HETATM    2  C   UNK     0      34.286   8.624  -5.961  0.00  0.00     0.293 C 
HETATM    3  O   UNK     0      33.869   9.717  -5.557  0.00  0.00    -0.259 OA
BRANCH   2   4
HETATM    4  C   UNK     0      33.452   7.600  -6.570  0.00  0.00     0.039 A 
HETATM    5  C   UNK     0      32.115   7.474  -6.192  0.00  0.00     0.020 A 
HETATM    6  C   UNK     0      31.316   6.491  -6.776  0.00  0.00     0.030 A 
HETATM    7  C   UNK     0      31.852   5.634  -7.737  0.00  0.00     0.025 A 
HETATM    8  C   UNK     0      33.189   5.761  -8.115  0.00  0.00     0.030 A 
HETATM    9  C   UNK     0      33.989   6.743  -7.531  0.00  0.00     0.020 A 
BRANCH   7  10
HETATM   10  N   UNK     0      31.044   4.641  -8.326  0.00  0.00    -0.399 N 
HETATM   11  H   UNK     0      31.470   3.851  -8.791  0.00  0.00     0.156 HD
HETATM   12  H   UNK     0      30.036   4.719  -8.286  0.00  0.00     0.156 HD
ENDBRANCH   7  10
ENDBRANCH   2   4
ENDBRANCH   1   2
BRANCH   1  13
HETATM   13  C   UNK     0      36.017   7.613  -4.668  0.00  0.00     0.174 C 
HETATM   14  C   UNK     0      37.112   6.614  -4.974  0.00  0.00     0.034 C 
ENDBRANCH   1  13
TORSDOF 4
ENDMDL
MODEL 9
REMARK VINA RESULT:      -5.1     14.103     15.221
REMARK  4 active torsions:
REMARK  status: ('A' for Active; 'I' for Inactive)
REMARK    1  A    between atoms: O_1  and  C_10 
REMARK    2  A    between atoms: O_1  and  C_11 
REMARK    3  A    between atoms: N_3  and  C_7 
REMARK    4  A    between atoms: C_4  and  C_10 
ROOT
HETATM    1  O   UNK     0      35.111   7.724  -4.393  0.00  0.00    -0.318 OA
ENDROOT
BRANCH   1   2
HETATM    2  C   UNK     0      35.510   6.767  -5.286  0.00  0.00     0.293 C 
HETATM    3  O   UNK     0      36.682   6.392  -5.420  0.00  0.00    -0.259 OA
BRANCH   2   4
HETATM    4  C   UNK     0      34.388   6.252  -6.054  0.00  0.00     0.039 A 
HETATM    5  C   UNK     0      33.227   5.839  -5.401  0.00  0.00     0.020 A 
HETATM    6  C   UNK     0      32.151   5.344  -6.138  0.00  0.00     0.030 A 
HETATM    7  C   UNK     0      32.236   5.263  -7.528  0.00  0.00     0.025 A 
HETATM    8  C   UNK     0      33.397   5.675  -8.181  0.00  0.00     0.030 A 
HETATM    9  C   UNK     0      34.473   6.170  -7.444  0.00  0.00     0.020 A 
BRANCH   7  10
HETATM   10  N   UNK     0      31.148   4.762  -8.273  0.00  0.00    -0.399 N 
HETATM   11  H   UNK     0      31.176   3.820  -8.639  0.00  0.00     0.156 HD
HETATM   12  H   UNK     0      30.339   5.346  -8.442  0.00  0.00     0.156 HD
ENDBRANCH   7  10
ENDBRANCH   2   4
ENDBRANCH   1   2
BRANCH   1  13
HETATM   13  C   UNK     0      35.695   9.024  -4.533  0.00  0.00     0.174 C 
HETATM   14  C   UNK     0      34.993   9.761  -5.652  0.00  0.00     0.034 C 
ENDBRANCH   1  13
TORSDOF 4
ENDMDL
