MODEL 1
REMARK VINA RESULT:      -6.6      0.000      0.000
REMARK  10 active torsions:
REMARK  status: ('A' for Active; 'I' for Inactive)
REMARK    1  A    between atoms: O_2  and  C_12 
REMARK    2  A    between atoms: O_2  and  C_14 
REMARK    3  A    between atoms: O_3  and  C_8 
REMARK    4  A    between atoms: O_4  and  C_9 
REMARK    5  A    between atoms: O_5  and  C_10 
REMARK    6  A    between atoms: O_6  and  C_13 
REMARK    7  A    between atoms: O_7  and  C_21 
REMARK    8  A    between atoms: C_11  and  C_13 
REMARK    9  A    between atoms: C_14  and  C_15 
REMARK   10  A    between atoms: C_15  and  C_16 
ROOT
HETATM    1  O   UNK     0       6.765  44.667  21.213  0.00  0.00    -0.348 OA
HETATM    2  C   UNK     0       9.007  45.677  19.729  0.00  0.00     0.183 C 
HETATM    3  C   UNK     0       7.579  46.174  19.499  0.00  0.00     0.180 C 
HETATM    4  C   UNK     0       9.012  44.291  20.374  0.00  0.00     0.204 C 
HETATM    5  C   UNK     0       6.740  46.024  20.770  0.00  0.00     0.179 C 
HETATM    6  C   UNK     0       8.073  44.234  21.579  0.00  0.00     0.291 C 
ENDROOT
BRANCH   5   7
HETATM    7  C   UNK     0       5.282  46.403  20.532  0.00  0.00     0.198 C 
BRANCH   7   8
HETATM    8  O   UNK     0       5.150  47.805  20.681  0.00  0.00    -0.398 OA
HETATM    9  H   UNK     0       5.743  48.082  21.399  0.00  0.00     0.209 HD
ENDBRANCH   7   8
ENDBRANCH   5   7
BRANCH   6  10
HETATM   10  O   UNK     0       8.025  42.882  22.033  0.00  0.00    -0.358 OA
BRANCH  10  11
HETATM   11  C   UNK     0       7.333  42.052  21.112  0.00  0.00     0.175 C 
BRANCH  11  12
HETATM   12  C   UNK     0       6.301  41.209  21.852  0.00  0.00     0.065 C 
BRANCH  12  13
HETATM   13  C   UNK     0       4.885  41.601  21.507  0.00  0.00    -0.056 A 
HETATM   14  C   UNK     0       4.658  42.469  20.452  0.00  0.00     0.010 A 
HETATM   15  C   UNK     0       3.350  42.832  20.134  0.00  0.00     0.037 A 
HETATM   16  C   UNK     0       2.285  42.321  20.877  0.00  0.00     0.065 A 
HETATM   17  C   UNK     0       2.528  41.448  21.937  0.00  0.00     0.037 A 
HETATM   18  C   UNK     0       3.837  41.086  22.254  0.00  0.00     0.010 A 
BRANCH  16  19
HETATM   19  O   UNK     0       1.007  42.675  20.566  0.00  0.00    -0.361 OA
HETATM   20  H   UNK     0       0.672  43.278  21.252  0.00  0.00     0.217 HD
ENDBRANCH  16  19
ENDBRANCH  12  13
ENDBRANCH  11  12
ENDBRANCH  10  11
ENDBRANCH   6  10
BRANCH   3  21
HETATM   21  O   UNK     0       7.614  47.547  19.117  0.00  0.00    -0.390 OA
HETATM   22  H   UNK     0       6.998  47.669  18.375  0.00  0.00     0.210 HD
ENDBRANCH   3  21
BRANCH   4  23
HETATM   23  O   UNK     0      10.333  43.982  20.821  0.00  0.00    -0.388 OA
HETATM   24  H   UNK     0      10.316  43.924  21.792  0.00  0.00     0.210 HD
ENDBRANCH   4  23
BRANCH   2  25
HETATM   25  O   UNK     0       9.663  45.616  18.462  0.00  0.00    -0.390 OA
HETATM   26  H   UNK     0       9.644  44.688  18.170  0.00  0.00     0.210 HD
ENDBRANCH   2  25
TORSDOF 10
ENDMDL
MODEL 2
REMARK VINA RESULT:      -6.6      2.050      2.979
REMARK  10 active torsions:
REMARK  status: ('A' for Active; 'I' for Inactive)
REMARK    1  A    between atoms: O_2  and  C_12 
REMARK    2  A    between atoms: O_2  and  C_14 
REMARK    3  A    between atoms: O_3  and  C_8 
REMARK    4  A    between atoms: O_4  and  C_9 
REMARK    5  A    between atoms: O_5  and  C_10 
REMARK    6  A    between atoms: O_6  and  C_13 
REMARK    7  A    between atoms: O_7  and  C_21 
REMARK    8  A    between atoms: C_11  and  C_13 
REMARK    9  A    between atoms: C_14  and  C_15 
REMARK   10  A    between atoms: C_15  and  C_16 
ROOT
HETATM    1  O   UNK     0       7.922  44.806  21.558  0.00  0.00    -0.348 OA
HETATM    2  C   UNK     0       7.854  44.820  18.687  0.00  0.00     0.183 C 
HETATM    3  C   UNK     0       8.873  45.631  19.488  0.00  0.00     0.180 C 
HETATM    4  C   UNK     0       6.622  44.492  19.532  0.00  0.00     0.204 C 
HETATM    5  C   UNK     0       9.147  44.974  20.842  0.00  0.00     0.179 C 
HETATM    6  C   UNK     0       7.017  43.926  20.895  0.00  0.00     0.291 C 
ENDROOT
BRANCH   5   7
HETATM    7  C   UNK     0      10.070  45.825  21.707  0.00  0.00     0.198 C 
BRANCH   7   8
HETATM    8  O   UNK     0      10.047  47.154  21.221  0.00  0.00    -0.398 OA
HETATM    9  H   UNK     0       9.630  47.710  21.901  0.00  0.00     0.209 HD
ENDBRANCH   7   8
ENDBRANCH   5   7
BRANCH   6  10
HETATM   10  O   UNK     0       5.829  43.782  21.671  0.00  0.00    -0.358 OA
BRANCH  10  11
HETATM   11  C   UNK     0       5.317  45.044  22.071  0.00  0.00     0.175 C 
BRANCH  11  12
HETATM   12  C   UNK     0       3.793  45.024  22.015  0.00  0.00     0.065 C 
BRANCH  12  13
HETATM   13  C   UNK     0       3.237  43.621  22.039  0.00  0.00    -0.056 A 
HETATM   14  C   UNK     0       2.694  43.086  20.883  0.00  0.00     0.010 A 
HETATM   15  C   UNK     0       2.180  41.789  20.905  0.00  0.00     0.037 A 
HETATM   16  C   UNK     0       2.215  41.046  22.085  0.00  0.00     0.065 A 
HETATM   17  C   UNK     0       2.765  41.598  23.241  0.00  0.00     0.037 A 
HETATM   18  C   UNK     0       3.279  42.894  23.218  0.00  0.00     0.010 A 
BRANCH  16  19
HETATM   19  O   UNK     0       1.714  39.780  22.107  0.00  0.00    -0.361 OA
HETATM   20  H   UNK     0       1.332  39.578  21.235  0.00  0.00     0.217 HD
ENDBRANCH  16  19
ENDBRANCH  12  13
ENDBRANCH  11  12
ENDBRANCH  10  11
ENDBRANCH   6  10
BRANCH   3  21
HETATM   21  O   UNK     0      10.090  45.716  18.751  0.00  0.00    -0.390 OA
HETATM   22  H   UNK     0      10.423  44.813  18.615  0.00  0.00     0.210 HD
ENDBRANCH   3  21
BRANCH   4  23
HETATM   23  O   UNK     0       5.829  43.517  18.854  0.00  0.00    -0.388 OA
HETATM   24  H   UNK     0       4.970  43.921  18.642  0.00  0.00     0.210 HD
ENDBRANCH   4  23
BRANCH   2  25
HETATM   25  O   UNK     0       7.462  45.598  17.556  0.00  0.00    -0.390 OA
HETATM   26  H   UNK     0       7.772  46.507  17.705  0.00  0.00     0.210 HD
ENDBRANCH   2  25
TORSDOF 10
ENDMDL
MODEL 3
REMARK VINA RESULT:      -6.6      3.059      7.768
REMARK  10 active torsions:
REMARK  status: ('A' for Active; 'I' for Inactive)
REMARK    1  A    between atoms: O_2  and  C_12 
REMARK    2  A    between atoms: O_2  and  C_14 
REMARK    3  A    between atoms: O_3  and  C_8 
REMARK    4  A    between atoms: O_4  and  C_9 
REMARK    5  A    between atoms: O_5  and  C_10 
REMARK    6  A    between atoms: O_6  and  C_13 
REMARK    7  A    between atoms: O_7  and  C_21 
REMARK    8  A    between atoms: C_11  and  C_13 
REMARK    9  A    between atoms: C_14  and  C_15 
REMARK   10  A    between atoms: C_15  and  C_16 
ROOT
HETATM    1  O   UNK     0       1.520  39.901  21.797  0.00  0.00    -0.348 OA
HETATM    2  C   UNK     0       2.495  40.149  24.487  0.00  0.00     0.183 C 
HETATM    3  C   UNK     0       1.799  38.885  23.979  0.00  0.00     0.180 C 
HETATM    4  C   UNK     0       2.120  41.365  23.639  0.00  0.00     0.204 C 
HETATM    5  C   UNK     0       1.989  38.731  22.469  0.00  0.00     0.179 C 
HETATM    6  C   UNK     0       2.263  41.068  22.147  0.00  0.00     0.291 C 
ENDROOT
BRANCH   5   7
HETATM    7  C   UNK     0       1.206  37.543  21.919  0.00  0.00     0.198 C 
BRANCH   7   8
HETATM    8  O   UNK     0      -0.166  37.731  22.211  0.00  0.00    -0.398 OA
HETATM    9  H   UNK     0      -0.435  37.028  22.826  0.00  0.00     0.209 HD
ENDBRANCH   7   8
ENDBRANCH   5   7
BRANCH   6  10
HETATM   10  O   UNK     0       1.763  42.192  21.425  0.00  0.00    -0.358 OA
BRANCH  10  11
HETATM   11  C   UNK     0       2.501  42.411  20.233  0.00  0.00     0.175 C 
BRANCH  11  12
HETATM   12  C   UNK     0       3.980  42.578  20.565  0.00  0.00     0.065 C 
BRANCH  12  13
HETATM   13  C   UNK     0       4.429  44.016  20.478  0.00  0.00    -0.056 A 
HETATM   14  C   UNK     0       4.143  44.882  21.521  0.00  0.00     0.010 A 
HETATM   15  C   UNK     0       4.558  46.211  21.440  0.00  0.00     0.037 A 
HETATM   16  C   UNK     0       5.253  46.657  20.316  0.00  0.00     0.065 A 
HETATM   17  C   UNK     0       5.535  45.774  19.274  0.00  0.00     0.037 A 
HETATM   18  C   UNK     0       5.119  44.445  19.356  0.00  0.00     0.010 A 
BRANCH  16  19
HETATM   19  O   UNK     0       5.658  47.954  20.238  0.00  0.00    -0.361 OA
HETATM   20  H   UNK     0       5.034  48.510  20.735  0.00  0.00     0.217 HD
ENDBRANCH  16  19
ENDBRANCH  12  13
ENDBRANCH  11  12
ENDBRANCH  10  11
ENDBRANCH   6  10
BRANCH   3  21
HETATM   21  O   UNK     0       2.347  37.748  24.641  0.00  0.00    -0.390 OA
HETATM   22  H   UNK     0       3.043  38.057  25.245  0.00  0.00     0.210 HD
ENDBRANCH   3  21
BRANCH   4  23
HETATM   23  O   UNK     0       2.987  42.453  23.963  0.00  0.00    -0.388 OA
HETATM   24  H   UNK     0       2.853  43.153  23.301  0.00  0.00     0.210 HD
ENDBRANCH   4  23
BRANCH   2  25
HETATM   25  O   UNK     0       2.084  40.366  25.837  0.00  0.00    -0.390 OA
HETATM   26  H   UNK     0       1.759  41.280  25.900  0.00  0.00     0.210 HD
ENDBRANCH   2  25
TORSDOF 10
ENDMDL
MODEL 4
REMARK VINA RESULT:      -6.6      2.686      3.850
REMARK  10 active torsions:
REMARK  status: ('A' for Active; 'I' for Inactive)
REMARK    1  A    between atoms: O_2  and  C_12 
REMARK    2  A    between atoms: O_2  and  C_14 
REMARK    3  A    between atoms: O_3  and  C_8 
REMARK    4  A    between atoms: O_4  and  C_9 
REMARK    5  A    between atoms: O_5  and  C_10 
REMARK    6  A    between atoms: O_6  and  C_13 
REMARK    7  A    between atoms: O_7  and  C_21 
REMARK    8  A    between atoms: C_11  and  C_13 
REMARK    9  A    between atoms: C_14  and  C_15 
REMARK   10  A    between atoms: C_15  and  C_16 
ROOT
HETATM    1  O   UNK     0       6.759  44.233  21.280  0.00  0.00    -0.348 OA
HETATM    2  C   UNK     0       7.498  46.085  19.212  0.00  0.00     0.183 C 
HETATM    3  C   UNK     0       8.079  46.157  20.625  0.00  0.00     0.180 C 
HETATM    4  C   UNK     0       6.163  45.338  19.201  0.00  0.00     0.204 C 
HETATM    5  C   UNK     0       8.080  44.776  21.283  0.00  0.00     0.179 C 
HETATM    6  C   UNK     0       6.259  44.016  19.962  0.00  0.00     0.291 C 
ENDROOT
BRANCH   5   7
HETATM    7  C   UNK     0       8.546  44.841  22.733  0.00  0.00     0.198 C 
BRANCH   7   8
HETATM    8  O   UNK     0       7.657  45.673  23.456  0.00  0.00    -0.398 OA
HETATM    9  H   UNK     0       6.960  45.961  22.843  0.00  0.00     0.209 HD
ENDBRANCH   7   8
ENDBRANCH   5   7
BRANCH   6  10
HETATM   10  O   UNK     0       4.951  43.452  20.029  0.00  0.00    -0.358 OA
BRANCH  10  11
HETATM   11  C   UNK     0       4.139  44.142  20.968  0.00  0.00     0.175 C 
BRANCH  11  12
HETATM   12  C   UNK     0       3.211  43.157  21.669  0.00  0.00     0.065 C 
BRANCH  12  13
HETATM   13  C   UNK     0       3.487  43.063  23.150  0.00  0.00    -0.056 A 
HETATM   14  C   UNK     0       2.958  42.008  23.874  0.00  0.00     0.010 A 
HETATM   15  C   UNK     0       3.213  41.920  25.242  0.00  0.00     0.037 A 
HETATM   16  C   UNK     0       3.996  42.892  25.869  0.00  0.00     0.065 A 
HETATM   17  C   UNK     0       4.522  43.948  25.127  0.00  0.00     0.037 A 
HETATM   18  C   UNK     0       4.266  44.034  23.758  0.00  0.00     0.010 A 
BRANCH  16  19
HETATM   19  O   UNK     0       4.245  42.806  27.204  0.00  0.00    -0.361 OA
HETATM   20  H   UNK     0       3.398  42.792  27.683  0.00  0.00     0.217 HD
ENDBRANCH  16  19
ENDBRANCH  12  13
ENDBRANCH  11  12
ENDBRANCH  10  11
ENDBRANCH   6  10
BRANCH   3  21
HETATM   21  O   UNK     0       9.415  46.649  20.559  0.00  0.00    -0.390 OA
HETATM   22  H   UNK     0       9.726  46.555  19.642  0.00  0.00     0.210 HD
ENDBRANCH   3  21
BRANCH   4  23
HETATM   23  O   UNK     0       5.792  45.052  17.853  0.00  0.00    -0.388 OA
HETATM   24  H   UNK     0       6.346  44.318  17.536  0.00  0.00     0.210 HD
ENDBRANCH   4  23
BRANCH   2  25
HETATM   25  O   UNK     0       7.299  47.420  18.748  0.00  0.00    -0.390 OA
HETATM   26  H   UNK     0       7.538  47.439  17.805  0.00  0.00     0.210 HD
ENDBRANCH   2  25
TORSDOF 10
ENDMDL
MODEL 5
REMARK VINA RESULT:      -6.5      1.885      2.348
REMARK  10 active torsions:
REMARK  status: ('A' for Active; 'I' for Inactive)
REMARK    1  A    between atoms: O_2  and  C_12 
REMARK    2  A    between atoms: O_2  and  C_14 
REMARK    3  A    between atoms: O_3  and  C_8 
REMARK    4  A    between atoms: O_4  and  C_9 
REMARK    5  A    between atoms: O_5  and  C_10 
REMARK    6  A    between atoms: O_6  and  C_13 
REMARK    7  A    between atoms: O_7  and  C_21 
REMARK    8  A    between atoms: C_11  and  C_13 
REMARK    9  A    between atoms: C_14  and  C_15 
REMARK   10  A    between atoms: C_15  and  C_16 
ROOT
HETATM    1  O   UNK     0       7.430  45.671  21.634  0.00  0.00    -0.348 OA
HETATM    2  C   UNK     0       9.796  44.415  20.599  0.00  0.00     0.183 C 
HETATM    3  C   UNK     0       8.758  45.081  19.695  0.00  0.00     0.180 C 
HETATM    4  C   UNK     0       9.187  44.024  21.946  0.00  0.00     0.204 C 
HETATM    5  C   UNK     0       8.020  46.193  20.443  0.00  0.00     0.179 C 
HETATM    6  C   UNK     0       8.400  45.183  22.558  0.00  0.00     0.291 C 
ENDROOT
BRANCH   5   7
HETATM    7  C   UNK     0       6.900  46.793  19.600  0.00  0.00     0.198 C 
BRANCH   7   8
HETATM    8  O   UNK     0       7.365  47.999  19.024  0.00  0.00    -0.398 OA
HETATM    9  H   UNK     0       6.935  48.735  19.492  0.00  0.00     0.209 HD
ENDBRANCH   7   8
ENDBRANCH   5   7
BRANCH   6  10
HETATM   10  O   UNK     0       7.749  44.700  23.732  0.00  0.00    -0.358 OA
BRANCH  10  11
HETATM   11  C   UNK     0       6.412  45.172  23.812  0.00  0.00     0.175 C 
BRANCH  11  12
HETATM   12  C   UNK     0       5.539  44.132  24.504  0.00  0.00     0.065 C 
BRANCH  12  13
HETATM   13  C   UNK     0       4.382  43.688  23.641  0.00  0.00    -0.056 A 
HETATM   14  C   UNK     0       4.111  44.369  22.466  0.00  0.00     0.010 A 
HETATM   15  C   UNK     0       3.042  43.959  21.669  0.00  0.00     0.037 A 
HETATM   16  C   UNK     0       2.259  42.872  22.059  0.00  0.00     0.065 A 
HETATM   17  C   UNK     0       2.544  42.196  23.245  0.00  0.00     0.037 A 
HETATM   18  C   UNK     0       3.613  42.607  24.041  0.00  0.00     0.010 A 
BRANCH  16  19
HETATM   19  O   UNK     0       1.216  42.471  21.281  0.00  0.00    -0.361 OA
HETATM   20  H   UNK     0       1.518  42.406  20.359  0.00  0.00     0.217 HD
ENDBRANCH  16  19
ENDBRANCH  12  13
ENDBRANCH  11  12
ENDBRANCH  10  11
ENDBRANCH   6  10
BRANCH   3  21
HETATM   21  O   UNK     0       9.412  45.633  18.555  0.00  0.00    -0.390 OA
HETATM   22  H   UNK     0      10.260  46.007  18.847  0.00  0.00     0.210 HD
ENDBRANCH   3  21
BRANCH   4  23
HETATM   23  O   UNK     0      10.230  43.664  22.851  0.00  0.00    -0.388 OA
HETATM   24  H   UNK     0      10.031  42.780  23.206  0.00  0.00     0.210 HD
ENDBRANCH   4  23
BRANCH   2  25
HETATM   25  O   UNK     0      10.273  43.244  19.935  0.00  0.00    -0.390 OA
HETATM   26  H   UNK     0       9.498  42.759  19.606  0.00  0.00     0.210 HD
ENDBRANCH   2  25
TORSDOF 10
ENDMDL
MODEL 6
REMARK VINA RESULT:      -6.5      2.180      2.838
REMARK  10 active torsions:
REMARK  status: ('A' for Active; 'I' for Inactive)
REMARK    1  A    between atoms: O_2  and  C_12 
REMARK    2  A    between atoms: O_2  and  C_14 
REMARK    3  A    between atoms: O_3  and  C_8 
REMARK    4  A    between atoms: O_4  and  C_9 
REMARK    5  A    between atoms: O_5  and  C_10 
REMARK    6  A    between atoms: O_6  and  C_13 
REMARK    7  A    between atoms: O_7  and  C_21 
REMARK    8  A    between atoms: C_11  and  C_13 
REMARK    9  A    between atoms: C_14  and  C_15 
REMARK   10  A    between atoms: C_15  and  C_16 
ROOT
HETATM    1  O   UNK     0       6.493  45.795  21.287  0.00  0.00    -0.348 OA
HETATM    2  C   UNK     0       6.428  43.580  19.460  0.00  0.00     0.183 C 
HETATM    3  C   UNK     0       5.691  44.891  19.187  0.00  0.00     0.180 C 
HETATM    4  C   UNK     0       6.698  43.399  20.955  0.00  0.00     0.204 C 
HETATM    5  C   UNK     0       6.385  46.061  19.888  0.00  0.00     0.179 C 
HETATM    6  C   UNK     0       7.308  44.659  21.567  0.00  0.00     0.291 C 
ENDROOT
BRANCH   5   7
HETATM    7  C   UNK     0       5.603  47.360  19.727  0.00  0.00     0.198 C 
BRANCH   7   8
HETATM    8  O   UNK     0       5.002  47.683  20.968  0.00  0.00    -0.398 OA
HETATM    9  H   UNK     0       5.218  46.970  21.593  0.00  0.00     0.209 HD
ENDBRANCH   7   8
ENDBRANCH   5   7
BRANCH   6  10
HETATM   10  O   UNK     0       7.396  44.464  22.977  0.00  0.00    -0.358 OA
BRANCH  10  11
HETATM   11  C   UNK     0       6.382  45.184  23.662  0.00  0.00     0.175 C 
BRANCH  11  12
HETATM   12  C   UNK     0       5.522  44.220  24.471  0.00  0.00     0.065 C 
BRANCH  12  13
HETATM   13  C   UNK     0       4.335  43.714  23.688  0.00  0.00    -0.056 A 
HETATM   14  C   UNK     0       3.726  42.529  24.067  0.00  0.00     0.010 A 
HETATM   15  C   UNK     0       2.629  42.061  23.343  0.00  0.00     0.037 A 
HETATM   16  C   UNK     0       2.157  42.786  22.248  0.00  0.00     0.065 A 
HETATM   17  C   UNK     0       2.779  43.978  21.879  0.00  0.00     0.037 A 
HETATM   18  C   UNK     0       3.876  44.445  22.603  0.00  0.00     0.010 A 
BRANCH  16  19
HETATM   19  O   UNK     0       1.086  42.329  21.542  0.00  0.00    -0.361 OA
HETATM   20  H   UNK     0       1.127  42.690  20.639  0.00  0.00     0.217 HD
ENDBRANCH  16  19
ENDBRANCH  12  13
ENDBRANCH  11  12
ENDBRANCH  10  11
ENDBRANCH   6  10
BRANCH   3  21
HETATM   21  O   UNK     0       5.665  45.133  17.782  0.00  0.00    -0.390 OA
HETATM   22  H   UNK     0       5.764  44.279  17.328  0.00  0.00     0.210 HD
ENDBRANCH   3  21
BRANCH   4  23
HETATM   23  O   UNK     0       7.615  42.321  21.143  0.00  0.00    -0.388 OA
HETATM   24  H   UNK     0       8.417  42.513  20.627  0.00  0.00     0.210 HD
ENDBRANCH   4  23
BRANCH   2  25
HETATM   25  O   UNK     0       5.611  42.508  18.990  0.00  0.00    -0.390 OA
HETATM   26  H   UNK     0       5.850  42.344  18.062  0.00  0.00     0.210 HD
ENDBRANCH   2  25
TORSDOF 10
ENDMDL
MODEL 7
REMARK VINA RESULT:      -6.5      2.092      3.561
REMARK  10 active torsions:
REMARK  status: ('A' for Active; 'I' for Inactive)
REMARK    1  A    between atoms: O_2  and  C_12 
REMARK    2  A    between atoms: O_2  and  C_14 
REMARK    3  A    between atoms: O_3  and  C_8 
REMARK    4  A    between atoms: O_4  and  C_9 
REMARK    5  A    between atoms: O_5  and  C_10 
REMARK    6  A    between atoms: O_6  and  C_13 
REMARK    7  A    between atoms: O_7  and  C_21 
REMARK    8  A    between atoms: C_11  and  C_13 
REMARK    9  A    between atoms: C_14  and  C_15 
REMARK   10  A    between atoms: C_15  and  C_16 
ROOT
HETATM    1  O   UNK     0       7.529  45.403  22.096  0.00  0.00    -0.348 OA
HETATM    2  C   UNK     0       5.846  46.297  19.947  0.00  0.00     0.183 C 
HETATM    3  C   UNK     0       7.361  46.505  19.944  0.00  0.00     0.180 C 
HETATM    4  C   UNK     0       5.318  46.096  21.369  0.00  0.00     0.204 C 
HETATM    5  C   UNK     0       8.059  45.422  20.770  0.00  0.00     0.179 C 
HETATM    6  C   UNK     0       6.145  45.059  22.128  0.00  0.00     0.291 C 
ENDROOT
BRANCH   5   7
HETATM    7  C   UNK     0       9.559  45.674  20.879  0.00  0.00     0.198 C 
BRANCH   7   8
HETATM    8  O   UNK     0       9.797  47.061  20.722  0.00  0.00    -0.398 OA
HETATM    9  H   UNK     0       9.235  47.375  19.993  0.00  0.00     0.209 HD
ENDBRANCH   7   8
ENDBRANCH   5   7
BRANCH   6  10
HETATM   10  O   UNK     0       5.686  45.033  23.478  0.00  0.00    -0.358 OA
BRANCH  10  11
HETATM   11  C   UNK     0       5.685  43.712  23.998  0.00  0.00     0.175 C 
BRANCH  11  12
HETATM   12  C   UNK     0       4.340  43.417  24.652  0.00  0.00     0.065 C 
BRANCH  12  13
HETATM   13  C   UNK     0       3.596  42.303  23.955  0.00  0.00    -0.056 A 
HETATM   14  C   UNK     0       2.743  41.495  24.687  0.00  0.00     0.010 A 
HETATM   15  C   UNK     0       2.055  40.466  24.043  0.00  0.00     0.037 A 
HETATM   16  C   UNK     0       2.231  40.260  22.674  0.00  0.00     0.065 A 
HETATM   17  C   UNK     0       3.093  41.083  21.950  0.00  0.00     0.037 A 
HETATM   18  C   UNK     0       3.781  42.111  22.595  0.00  0.00     0.010 A 
BRANCH  16  19
HETATM   19  O   UNK     0       1.560  39.256  22.046  0.00  0.00    -0.361 OA
HETATM   20  H   UNK     0       2.123  38.464  22.027  0.00  0.00     0.217 HD
ENDBRANCH  16  19
ENDBRANCH  12  13
ENDBRANCH  11  12
ENDBRANCH  10  11
ENDBRANCH   6  10
BRANCH   3  21
HETATM   21  O   UNK     0       7.840  46.456  18.602  0.00  0.00    -0.390 OA
HETATM   22  H   UNK     0       8.788  46.242  18.629  0.00  0.00     0.210 HD
ENDBRANCH   3  21
BRANCH   4  23
HETATM   23  O   UNK     0       3.968  45.637  21.312  0.00  0.00    -0.388 OA
HETATM   24  H   UNK     0       3.917  44.932  20.644  0.00  0.00     0.210 HD
ENDBRANCH   4  23
BRANCH   2  25
HETATM   25  O   UNK     0       5.240  47.456  19.375  0.00  0.00    -0.390 OA
HETATM   26  H   UNK     0       5.817  47.760  18.653  0.00  0.00     0.210 HD
ENDBRANCH   2  25
TORSDOF 10
ENDMDL
MODEL 8
REMARK VINA RESULT:      -6.4      2.312      3.515
REMARK  10 active torsions:
REMARK  status: ('A' for Active; 'I' for Inactive)
REMARK    1  A    between atoms: O_2  and  C_12 
REMARK    2  A    between atoms: O_2  and  C_14 
REMARK    3  A    between atoms: O_3  and  C_8 
REMARK    4  A    between atoms: O_4  and  C_9 
REMARK    5  A    between atoms: O_5  and  C_10 
REMARK    6  A    between atoms: O_6  and  C_13 
REMARK    7  A    between atoms: O_7  and  C_21 
REMARK    8  A    between atoms: C_11  and  C_13 
REMARK    9  A    between atoms: C_14  and  C_15 
REMARK   10  A    between atoms: C_15  and  C_16 
ROOT
HETATM    1  O   UNK     0       7.437  44.325  20.960  0.00  0.00    -0.348 OA
HETATM    2  C   UNK     0       5.919  44.459  18.525  0.00  0.00     0.183 C 
HETATM    3  C   UNK     0       7.069  45.420  18.829  0.00  0.00     0.180 C 
HETATM    4  C   UNK     0       5.352  43.853  19.810  0.00  0.00     0.204 C 
HETATM    5  C   UNK     0       8.087  44.769  19.767  0.00  0.00     0.179 C 
HETATM    6  C   UNK     0       6.464  43.314  20.709  0.00  0.00     0.291 C 
ENDROOT
BRANCH   5   7
HETATM    7  C   UNK     0       9.183  45.746  20.178  0.00  0.00     0.198 C 
BRANCH   7   8
HETATM    8  O   UNK     0      10.122  45.842  19.123  0.00  0.00    -0.398 OA
HETATM    9  H   UNK     0      10.389  46.774  19.050  0.00  0.00     0.209 HD
ENDBRANCH   7   8
ENDBRANCH   5   7
BRANCH   6  10
HETATM   10  O   UNK     0       5.872  42.899  21.939  0.00  0.00    -0.358 OA
BRANCH  10  11
HETATM   11  C   UNK     0       5.929  43.931  22.913  0.00  0.00     0.175 C 
BRANCH  11  12
HETATM   12  C   UNK     0       4.517  44.311  23.344  0.00  0.00     0.065 C 
BRANCH  12  13
HETATM   13  C   UNK     0       3.602  43.114  23.433  0.00  0.00    -0.056 A 
HETATM   14  C   UNK     0       3.629  42.321  24.567  0.00  0.00     0.010 A 
HETATM   15  C   UNK     0       2.783  41.215  24.650  0.00  0.00     0.037 A 
HETATM   16  C   UNK     0       1.921  40.917  23.594  0.00  0.00     0.065 A 
HETATM   17  C   UNK     0       1.904  41.725  22.458  0.00  0.00     0.037 A 
HETATM   18  C   UNK     0       2.751  42.831  22.377  0.00  0.00     0.010 A 
BRANCH  16  19
HETATM   19  O   UNK     0       1.095  39.838  23.674  0.00  0.00    -0.361 OA
HETATM   20  H   UNK     0       1.386  39.274  24.411  0.00  0.00     0.217 HD
ENDBRANCH  16  19
ENDBRANCH  12  13
ENDBRANCH  11  12
ENDBRANCH  10  11
ENDBRANCH   6  10
BRANCH   3  21
HETATM   21  O   UNK     0       7.715  45.780  17.611  0.00  0.00    -0.390 OA
HETATM   22  H   UNK     0       8.661  45.909  17.798  0.00  0.00     0.210 HD
ENDBRANCH   3  21
BRANCH   4  23
HETATM   23  O   UNK     0       4.481  42.771  19.478  0.00  0.00    -0.388 OA
HETATM   24  H   UNK     0       4.176  42.364  20.308  0.00  0.00     0.210 HD
ENDBRANCH   4  23
BRANCH   2  25
HETATM   25  O   UNK     0       4.895  45.194  17.854  0.00  0.00    -0.390 OA
HETATM   26  H   UNK     0       5.245  46.083  17.673  0.00  0.00     0.210 HD
ENDBRANCH   2  25
TORSDOF 10
ENDMDL
MODEL 9
REMARK VINA RESULT:      -6.3      2.011      3.791
REMARK  10 active torsions:
REMARK  status: ('A' for Active; 'I' for Inactive)
REMARK    1  A    between atoms: O_2  and  C_12 
REMARK    2  A    between atoms: O_2  and  C_14 
REMARK    3  A    between atoms: O_3  and  C_8 
REMARK    4  A    between atoms: O_4  and  C_9 
REMARK    5  A    between atoms: O_5  and  C_10 
REMARK    6  A    between atoms: O_6  and  C_13 
REMARK    7  A    between atoms: O_7  and  C_21 
REMARK    8  A    between atoms: C_11  and  C_13 
REMARK    9  A    between atoms: C_14  and  C_15 
REMARK   10  A    between atoms: C_15  and  C_16 
ROOT
HETATM    1  O   UNK     0       8.237  44.197  21.055  0.00  0.00    -0.348 OA
HETATM    2  C   UNK     0       9.489  44.574  18.497  0.00  0.00     0.183 C 
HETATM    3  C   UNK     0      10.229  43.972  19.692  0.00  0.00     0.180 C 
HETATM    4  C   UNK     0       8.293  45.411  18.952  0.00  0.00     0.204 C 
HETATM    5  C   UNK     0       9.251  43.278  20.643  0.00  0.00     0.179 C 
HETATM    6  C   UNK     0       7.436  44.652  19.966  0.00  0.00     0.291 C 
ENDROOT
BRANCH   5   7
HETATM    7  C   UNK     0       9.949  42.772  21.901  0.00  0.00     0.198 C 
BRANCH   7   8
HETATM    8  O   UNK     0      10.742  41.651  21.557  0.00  0.00    -0.398 OA
HETATM    9  H   UNK     0      10.139  40.912  21.366  0.00  0.00     0.209 HD
ENDBRANCH   7   8
ENDBRANCH   5   7
BRANCH   6  10
HETATM   10  O   UNK     0       6.432  45.543  20.446  0.00  0.00    -0.358 OA
BRANCH  10  11
HETATM   11  C   UNK     0       5.141  44.958  20.365  0.00  0.00     0.175 C 
BRANCH  11  12
HETATM   12  C   UNK     0       4.382  45.200  21.665  0.00  0.00     0.065 C 
BRANCH  12  13
HETATM   13  C   UNK     0       3.609  43.984  22.113  0.00  0.00    -0.056 A 
HETATM   14  C   UNK     0       3.877  43.427  23.353  0.00  0.00     0.010 A 
HETATM   15  C   UNK     0       3.162  42.304  23.767  0.00  0.00     0.037 A 
HETATM   16  C   UNK     0       2.188  41.751  22.934  0.00  0.00     0.065 A 
HETATM   17  C   UNK     0       1.929  42.322  21.689  0.00  0.00     0.037 A 
HETATM   18  C   UNK     0       2.644  43.446  21.276  0.00  0.00     0.010 A 
BRANCH  16  19
HETATM   19  O   UNK     0       1.491  40.654  23.339  0.00  0.00    -0.361 OA
HETATM   20  H   UNK     0       1.765  39.891  22.803  0.00  0.00     0.217 HD
ENDBRANCH  16  19
ENDBRANCH  12  13
ENDBRANCH  11  12
ENDBRANCH  10  11
ENDBRANCH   6  10
BRANCH   3  21
HETATM   21  O   UNK     0      11.184  43.023  19.225  0.00  0.00    -0.390 OA
HETATM   22  H   UNK     0      11.796  43.482  18.625  0.00  0.00     0.210 HD
ENDBRANCH   3  21
BRANCH   4  23
HETATM   23  O   UNK     0       7.477  45.724  17.823  0.00  0.00    -0.388 OA
HETATM   24  H   UNK     0       7.027  44.908  17.540  0.00  0.00     0.210 HD
ENDBRANCH   4  23
BRANCH   2  25
HETATM   25  O   UNK     0      10.406  45.404  17.783  0.00  0.00    -0.390 OA
HETATM   26  H   UNK     0      11.255  45.376  18.257  0.00  0.00     0.210 HD
ENDBRANCH   2  25
TORSDOF 10
ENDMDL
