MODEL 1
REMARK VINA RESULT:      -6.9      0.000      0.000
REMARK  Name = 4485
REMARK  10 active torsions:
REMARK  status: ('A' for Active; 'I' for Inactive)
REMARK    1  A    between atoms: O_1  and  C_17
REMARK    2  A    between atoms: O_1  and  C_24
REMARK    3  A    between atoms: O_2  and  C_18
REMARK    4  A    between atoms: O_2  and  C_25
REMARK    5  A    between atoms: N_8  and  C_15
REMARK    6  A    between atoms: C_9  and  C_12
REMARK    7  A    between atoms: C_10  and  C_17
REMARK    8  A    between atoms: C_11  and  C_18
REMARK    9  A    between atoms: C_13  and  C_19
REMARK   10  A    between atoms: C_14  and  C_20
REMARK                            x       y       z     vdW  Elec       q    Type
REMARK                         _______ _______ _______ _____ _____    ______ ____
ROOT
ATOM      1  C   UNL     1     147.688 148.732 142.945  0.00  0.00    +0.065 C 
ATOM      2  C   UNL     1     146.850 148.937 141.903  0.00  0.00    +0.016 C 
ATOM      3  C   UNL     1     145.614 149.796 141.931  0.00  0.00    +0.061 C 
ATOM      4  N   UNL     1     147.113 148.331 140.684  0.00  0.00    -0.321 N 
ATOM      5  H   UNL     1     146.468 148.512 139.924  0.00  0.00    +0.152 HD
ATOM      6  C   UNL     1     148.135 147.424 140.454  0.00  0.00    +0.016 C 
ATOM      7  C   UNL     1     148.146 146.816 139.077  0.00  0.00    +0.061 C 
ATOM      8  C   UNL     1     149.017 147.149 141.440  0.00  0.00    +0.065 C 
ATOM      9  C   UNL     1     148.947 147.869 142.790  0.00  0.00    +0.102 C 
ENDROOT
BRANCH   9  10
ATOM     10  C   UNL     1     150.174 148.713 142.987  0.00  0.00    +0.042 A 
ATOM     11  C   UNL     1     150.360 149.813 142.155  0.00  0.00    +0.011 A 
ATOM     12  C   UNL     1     151.489 150.617 142.313  0.00  0.00    +0.001 A 
ATOM     13  C   UNL     1     152.428 150.315 143.300  0.00  0.00    +0.007 A 
ATOM     14  C   UNL     1     152.236 149.210 144.130  0.00  0.00    +0.084 A 
ATOM     15  C   UNL     1     151.106 148.407 143.973  0.00  0.00    +0.277 A 
BRANCH  15  16
ATOM     16  N   UNL     1     150.931 147.287 144.831  0.00  0.00    +0.080 N 
ATOM     17  O   UNL     1     151.518 146.214 144.554  0.00  0.00    +0.041 OA
ATOM     18  O   UNL     1     150.194 147.405 145.840  0.00  0.00    -0.576 OA
ENDBRANCH  15  16
ENDBRANCH   9  10
BRANCH   1  19
ATOM     19  C   UNL     1     147.418 149.267 144.289  0.00  0.00    +0.337 C 
ATOM     20  O   UNL     1     147.044 148.580 145.220  0.00  0.00    -0.245 OA
BRANCH  19  21
ATOM     21  O   UNL     1     147.656 150.601 144.273  0.00  0.00    -0.465 OA
ATOM     22  C   UNL     1     148.586 151.063 145.259  0.00  0.00    +0.280 C 
ENDBRANCH  19  21
ENDBRANCH   1  19
BRANCH   8  23
ATOM     23  C   UNL     1     150.060 146.120 141.296  0.00  0.00    +0.337 C 
ATOM     24  O   UNL     1     151.170 146.349 140.856  0.00  0.00    -0.245 OA
BRANCH  23  25
ATOM     25  O   UNL     1     149.557 144.939 141.732  0.00  0.00    -0.465 OA
ATOM     26  C   UNL     1     150.182 143.774 141.182  0.00  0.00    +0.280 C 
ENDBRANCH  23  25
ENDBRANCH   8  23
TORSDOF 6
ENDMDL
MODEL 2
REMARK VINA RESULT:      -6.7      2.528      5.056
REMARK  Name = 4485
REMARK  10 active torsions:
REMARK  status: ('A' for Active; 'I' for Inactive)
REMARK    1  A    between atoms: O_1  and  C_17
REMARK    2  A    between atoms: O_1  and  C_24
REMARK    3  A    between atoms: O_2  and  C_18
REMARK    4  A    between atoms: O_2  and  C_25
REMARK    5  A    between atoms: N_8  and  C_15
REMARK    6  A    between atoms: C_9  and  C_12
REMARK    7  A    between atoms: C_10  and  C_17
REMARK    8  A    between atoms: C_11  and  C_18
REMARK    9  A    between atoms: C_13  and  C_19
REMARK   10  A    between atoms: C_14  and  C_20
REMARK                            x       y       z     vdW  Elec       q    Type
REMARK                         _______ _______ _______ _____ _____    ______ ____
ROOT
ATOM      1  C   UNL     1     150.050 148.579 142.211  0.00  0.00    +0.065 C 
ATOM      2  C   UNL     1     148.808 149.105 142.308  0.00  0.00    +0.016 C 
ATOM      3  C   UNL     1     147.589 148.608 141.579  0.00  0.00    +0.061 C 
ATOM      4  N   UNL     1     148.589 150.191 143.141  0.00  0.00    -0.321 N 
ATOM      5  H   UNL     1     147.644 150.556 143.195  0.00  0.00    +0.152 HD
ATOM      6  C   UNL     1     149.578 150.873 143.831  0.00  0.00    +0.016 C 
ATOM      7  C   UNL     1     149.105 152.091 144.580  0.00  0.00    +0.061 C 
ATOM      8  C   UNL     1     150.852 150.426 143.786  0.00  0.00    +0.065 C 
ATOM      9  C   UNL     1     151.215 149.141 143.036  0.00  0.00    +0.102 C 
ENDROOT
BRANCH   9  10
ATOM     10  C   UNL     1     151.704 148.103 144.005  0.00  0.00    +0.042 A 
ATOM     11  C   UNL     1     150.805 147.590 144.936  0.00  0.00    +0.011 A 
ATOM     12  C   UNL     1     151.228 146.624 145.848  0.00  0.00    +0.001 A 
ATOM     13  C   UNL     1     152.550 146.177 145.828  0.00  0.00    +0.007 A 
ATOM     14  C   UNL     1     153.447 146.695 144.893  0.00  0.00    +0.084 A 
ATOM     15  C   UNL     1     153.023 147.660 143.980  0.00  0.00    +0.277 A 
BRANCH  15  16
ATOM     16  N   UNL     1     153.954 148.173 143.036  0.00  0.00    +0.080 N 
ATOM     17  O   UNL     1     154.061 147.607 141.922  0.00  0.00    +0.041 OA
ATOM     18  O   UNL     1     154.642 149.176 143.344  0.00  0.00    -0.576 OA
ENDBRANCH  15  16
ENDBRANCH   9  10
BRANCH   1  19
ATOM     19  C   UNL     1     150.372 147.489 141.276  0.00  0.00    +0.337 C 
ATOM     20  O   UNL     1     150.854 147.673 140.174  0.00  0.00    -0.245 OA
BRANCH  19  21
ATOM     21  O   UNL     1     150.040 146.313 141.861  0.00  0.00    -0.465 OA
ATOM     22  C   UNL     1     151.035 145.287 141.768  0.00  0.00    +0.280 C 
ENDBRANCH  19  21
ENDBRANCH   1  19
BRANCH   8  23
ATOM     23  C   UNL     1     151.965 151.163 144.408  0.00  0.00    +0.337 C 
ATOM     24  O   UNL     1     152.755 151.839 143.777  0.00  0.00    -0.245 OA
BRANCH  23  25
ATOM     25  O   UNL     1     151.926 150.947 145.746  0.00  0.00    -0.465 OA
ATOM     26  C   UNL     1     153.167 150.536 146.330  0.00  0.00    +0.280 C 
ENDBRANCH  23  25
ENDBRANCH   8  23
TORSDOF 6
ENDMDL
MODEL 3
REMARK VINA RESULT:      -6.6      2.664      4.016
REMARK  Name = 4485
REMARK  10 active torsions:
REMARK  status: ('A' for Active; 'I' for Inactive)
REMARK    1  A    between atoms: O_1  and  C_17
REMARK    2  A    between atoms: O_1  and  C_24
REMARK    3  A    between atoms: O_2  and  C_18
REMARK    4  A    between atoms: O_2  and  C_25
REMARK    5  A    between atoms: N_8  and  C_15
REMARK    6  A    between atoms: C_9  and  C_12
REMARK    7  A    between atoms: C_10  and  C_17
REMARK    8  A    between atoms: C_11  and  C_18
REMARK    9  A    between atoms: C_13  and  C_19
REMARK   10  A    between atoms: C_14  and  C_20
REMARK                            x       y       z     vdW  Elec       q    Type
REMARK                         _______ _______ _______ _____ _____    ______ ____
ROOT
ATOM      1  C   UNL     1     149.737 151.319 146.053  0.00  0.00    +0.065 C 
ATOM      2  C   UNL     1     148.465 151.687 145.777  0.00  0.00    +0.016 C 
ATOM      3  C   UNL     1     147.812 152.970 146.215  0.00  0.00    +0.061 C 
ATOM      4  N   UNL     1     147.658 150.847 145.026  0.00  0.00    -0.321 N 
ATOM      5  H   UNL     1     146.712 151.157 144.832  0.00  0.00    +0.152 HD
ATOM      6  C   UNL     1     148.014 149.577 144.601  0.00  0.00    +0.016 C 
ATOM      7  C   UNL     1     146.924 148.814 143.897  0.00  0.00    +0.061 C 
ATOM      8  C   UNL     1     149.263 149.119 144.839  0.00  0.00    +0.065 C 
ATOM      9  C   UNL     1     150.315 150.003 145.517  0.00  0.00    +0.102 C 
ENDROOT
BRANCH   9  10
ATOM     10  C   UNL     1     151.438 150.288 144.561  0.00  0.00    +0.042 A 
ATOM     11  C   UNL     1     151.145 150.957 143.376  0.00  0.00    +0.011 A 
ATOM     12  C   UNL     1     152.166 151.237 142.468  0.00  0.00    +0.001 A 
ATOM     13  C   UNL     1     153.475 150.845 142.748  0.00  0.00    +0.007 A 
ATOM     14  C   UNL     1     153.763 150.174 143.938  0.00  0.00    +0.084 A 
ATOM     15  C   UNL     1     152.741 149.895 144.846  0.00  0.00    +0.277 A 
BRANCH  15  16
ATOM     16  N   UNL     1     153.058 149.212 146.052  0.00  0.00    +0.080 N 
ATOM     17  O   UNL     1     153.082 147.958 146.049  0.00  0.00    +0.041 OA
ATOM     18  O   UNL     1     153.304 149.882 147.083  0.00  0.00    -0.576 OA
ENDBRANCH  15  16
ENDBRANCH   9  10
BRANCH   1  19
ATOM     19  C   UNL     1     150.616 152.117 146.922  0.00  0.00    +0.337 C 
ATOM     20  O   UNL     1     150.798 151.869 148.100  0.00  0.00    -0.245 OA
BRANCH  19  21
ATOM     21  O   UNL     1     151.147 153.123 146.186  0.00  0.00    -0.465 OA
ATOM     22  C   UNL     1     152.553 153.327 146.361  0.00  0.00    +0.280 C 
ENDBRANCH  19  21
ENDBRANCH   1  19
BRANCH   8  23
ATOM     23  C   UNL     1     149.671 147.744 144.509  0.00  0.00    +0.337 C 
ATOM     24  O   UNL     1     149.767 146.858 145.337  0.00  0.00    -0.245 OA
BRANCH  23  25
ATOM     25  O   UNL     1     149.900 147.674 143.175  0.00  0.00    -0.465 OA
ATOM     26  C   UNL     1     151.164 147.112 142.805  0.00  0.00    +0.280 C 
ENDBRANCH  23  25
ENDBRANCH   8  23
TORSDOF 6
ENDMDL
MODEL 4
REMARK VINA RESULT:      -6.5      2.218      4.521
REMARK  Name = 4485
REMARK  10 active torsions:
REMARK  status: ('A' for Active; 'I' for Inactive)
REMARK    1  A    between atoms: O_1  and  C_17
REMARK    2  A    between atoms: O_1  and  C_24
REMARK    3  A    between atoms: O_2  and  C_18
REMARK    4  A    between atoms: O_2  and  C_25
REMARK    5  A    between atoms: N_8  and  C_15
REMARK    6  A    between atoms: C_9  and  C_12
REMARK    7  A    between atoms: C_10  and  C_17
REMARK    8  A    between atoms: C_11  and  C_18
REMARK    9  A    between atoms: C_13  and  C_19
REMARK   10  A    between atoms: C_14  and  C_20
REMARK                            x       y       z     vdW  Elec       q    Type
REMARK                         _______ _______ _______ _____ _____    ______ ____
ROOT
ATOM      1  C   UNL     1     151.721 148.459 142.665  0.00  0.00    +0.065 C 
ATOM      2  C   UNL     1     152.660 147.522 142.404  0.00  0.00    +0.016 C 
ATOM      3  C   UNL     1     154.143 147.690 142.602  0.00  0.00    +0.061 C 
ATOM      4  N   UNL     1     152.273 146.283 141.917  0.00  0.00    -0.321 N 
ATOM      5  H   UNL     1     153.002 145.602 141.739  0.00  0.00    +0.152 HD
ATOM      6  C   UNL     1     150.977 145.939 141.567  0.00  0.00    +0.016 C 
ATOM      7  C   UNL     1     150.827 144.572 140.954  0.00  0.00    +0.061 C 
ATOM      8  C   UNL     1     149.973 146.816 141.782  0.00  0.00    +0.065 C 
ATOM      9  C   UNL     1     150.229 148.163 142.465  0.00  0.00    +0.102 C 
ENDROOT
BRANCH   9  10
ATOM     10  C   UNL     1     149.516 148.212 143.786  0.00  0.00    +0.042 A 
ATOM     11  C   UNL     1     149.884 147.299 144.771  0.00  0.00    +0.011 A 
ATOM     12  C   UNL     1     149.241 147.320 146.009  0.00  0.00    +0.001 A 
ATOM     13  C   UNL     1     148.232 148.251 146.255  0.00  0.00    +0.007 A 
ATOM     14  C   UNL     1     147.867 149.164 145.264  0.00  0.00    +0.084 A 
ATOM     15  C   UNL     1     148.511 149.143 144.026  0.00  0.00    +0.277 A 
BRANCH  15  16
ATOM     16  N   UNL     1     148.124 150.083 143.032  0.00  0.00    +0.080 N 
ATOM     17  O   UNL     1     147.167 149.801 142.272  0.00  0.00    +0.041 OA
ATOM     18  O   UNL     1     148.751 151.165 142.944  0.00  0.00    -0.576 OA
ENDBRANCH  15  16
ENDBRANCH   9  10
BRANCH   1  19
ATOM     19  C   UNL     1     152.069 149.824 143.092  0.00  0.00    +0.337 C 
ATOM     20  O   UNL     1     152.092 150.777 142.336  0.00  0.00    -0.245 OA
BRANCH  19  21
ATOM     21  O   UNL     1     152.343 149.799 144.419  0.00  0.00    -0.465 OA
ATOM     22  C   UNL     1     151.707 150.825 145.189  0.00  0.00    +0.280 C 
ENDBRANCH  19  21
ENDBRANCH   1  19
BRANCH   8  23
ATOM     23  C   UNL     1     148.594 146.555 141.337  0.00  0.00    +0.337 C 
ATOM     24  O   UNL     1     147.851 145.765 141.888  0.00  0.00    -0.245 OA
BRANCH  23  25
ATOM     25  O   UNL     1     148.340 147.331 140.255  0.00  0.00    -0.465 OA
ATOM     26  C   UNL     1     148.225 146.625 139.015  0.00  0.00    +0.280 C 
ENDBRANCH  23  25
ENDBRANCH   8  23
TORSDOF 6
ENDMDL
MODEL 5
REMARK VINA RESULT:      -6.4      2.523      4.790
REMARK  Name = 4485
REMARK  10 active torsions:
REMARK  status: ('A' for Active; 'I' for Inactive)
REMARK    1  A    between atoms: O_1  and  C_17
REMARK    2  A    between atoms: O_1  and  C_24
REMARK    3  A    between atoms: O_2  and  C_18
REMARK    4  A    between atoms: O_2  and  C_25
REMARK    5  A    between atoms: N_8  and  C_15
REMARK    6  A    between atoms: C_9  and  C_12
REMARK    7  A    between atoms: C_10  and  C_17
REMARK    8  A    between atoms: C_11  and  C_18
REMARK    9  A    between atoms: C_13  and  C_19
REMARK   10  A    between atoms: C_14  and  C_20
REMARK                            x       y       z     vdW  Elec       q    Type
REMARK                         _______ _______ _______ _____ _____    ______ ____
ROOT
ATOM      1  C   UNL     1     151.872 145.950 143.084  0.00  0.00    +0.065 C 
ATOM      2  C   UNL     1     151.713 144.608 143.020  0.00  0.00    +0.016 C 
ATOM      3  C   UNL     1     152.745 143.585 143.410  0.00  0.00    +0.061 C 
ATOM      4  N   UNL     1     150.512 144.084 142.567  0.00  0.00    -0.321 N 
ATOM      5  H   UNL     1     150.424 143.074 142.539  0.00  0.00    +0.152 HD
ATOM      6  C   UNL     1     149.460 144.832 142.064  0.00  0.00    +0.016 C 
ATOM      7  C   UNL     1     148.306 144.026 141.529  0.00  0.00    +0.061 C 
ATOM      8  C   UNL     1     149.533 146.181 142.078  0.00  0.00    +0.065 C 
ATOM      9  C   UNL     1     150.734 146.903 142.699  0.00  0.00    +0.102 C 
ENDROOT
BRANCH   9  10
ATOM     10  C   UNL     1     150.294 147.688 143.902  0.00  0.00    +0.042 A 
ATOM     11  C   UNL     1     149.670 147.008 144.944  0.00  0.00    +0.011 A 
ATOM     12  C   UNL     1     149.250 147.709 146.074  0.00  0.00    +0.001 A 
ATOM     13  C   UNL     1     149.456 149.087 146.157  0.00  0.00    +0.007 A 
ATOM     14  C   UNL     1     150.083 149.763 145.109  0.00  0.00    +0.084 A 
ATOM     15  C   UNL     1     150.502 149.061 143.979  0.00  0.00    +0.277 A 
BRANCH  15  16
ATOM     16  N   UNL     1     151.139 149.770 142.924  0.00  0.00    +0.080 N 
ATOM     17  O   UNL     1     152.382 149.932 142.967  0.00  0.00    +0.041 OA
ATOM     18  O   UNL     1     150.440 150.214 141.982  0.00  0.00    -0.576 OA
ENDBRANCH  15  16
ENDBRANCH   9  10
BRANCH   1  19
ATOM     19  C   UNL     1     153.151 146.572 143.463  0.00  0.00    +0.337 C 
ATOM     20  O   UNL     1     153.950 147.007 142.655  0.00  0.00    -0.245 OA
BRANCH  19  21
ATOM     21  O   UNL     1     153.248 146.560 144.814  0.00  0.00    -0.465 OA
ATOM     22  C   UNL     1     153.739 147.771 145.399  0.00  0.00    +0.280 C 
ENDBRANCH  19  21
ENDBRANCH   1  19
BRANCH   8  23
ATOM     23  C   UNL     1     148.500 147.030 141.464  0.00  0.00    +0.337 C 
ATOM     24  O   UNL     1     147.480 147.364 142.038  0.00  0.00    -0.245 OA
BRANCH  23  25
ATOM     25  O   UNL     1     148.897 147.346 140.207  0.00  0.00    -0.465 OA
ATOM     26  C   UNL     1     148.068 146.829 139.161  0.00  0.00    +0.280 C 
ENDBRANCH  23  25
ENDBRANCH   8  23
TORSDOF 6
ENDMDL
MODEL 6
REMARK VINA RESULT:      -6.4      8.928     11.437
REMARK  Name = 4485
REMARK  10 active torsions:
REMARK  status: ('A' for Active; 'I' for Inactive)
REMARK    1  A    between atoms: O_1  and  C_17
REMARK    2  A    between atoms: O_1  and  C_24
REMARK    3  A    between atoms: O_2  and  C_18
REMARK    4  A    between atoms: O_2  and  C_25
REMARK    5  A    between atoms: N_8  and  C_15
REMARK    6  A    between atoms: C_9  and  C_12
REMARK    7  A    between atoms: C_10  and  C_17
REMARK    8  A    between atoms: C_11  and  C_18
REMARK    9  A    between atoms: C_13  and  C_19
REMARK   10  A    between atoms: C_14  and  C_20
REMARK                            x       y       z     vdW  Elec       q    Type
REMARK                         _______ _______ _______ _____ _____    ______ ____
ROOT
ATOM      1  C   UNL     1     152.110 156.336 151.522  0.00  0.00    +0.065 C 
ATOM      2  C   UNL     1     151.713 157.626 151.447  0.00  0.00    +0.016 C 
ATOM      3  C   UNL     1     152.498 158.813 151.938  0.00  0.00    +0.061 C 
ATOM      4  N   UNL     1     150.489 157.933 150.873  0.00  0.00    -0.321 N 
ATOM      5  H   UNL     1     150.226 158.911 150.826  0.00  0.00    +0.152 HD
ATOM      6  C   UNL     1     149.559 157.000 150.444  0.00  0.00    +0.016 C 
ATOM      7  C   UNL     1     148.256 157.578 149.960  0.00  0.00    +0.061 C 
ATOM      8  C   UNL     1     149.864 155.684 150.489  0.00  0.00    +0.065 C 
ATOM      9  C   UNL     1     151.244 155.206 150.949  0.00  0.00    +0.102 C 
ENDROOT
BRANCH   9  10
ATOM     10  C   UNL     1     151.962 154.539 149.810  0.00  0.00    +0.042 A 
ATOM     11  C   UNL     1     152.258 155.297 148.680  0.00  0.00    +0.011 A 
ATOM     12  C   UNL     1     152.924 154.706 147.606  0.00  0.00    +0.001 A 
ATOM     13  C   UNL     1     153.288 153.361 147.666  0.00  0.00    +0.007 A 
ATOM     14  C   UNL     1     152.989 152.607 148.801  0.00  0.00    +0.084 A 
ATOM     15  C   UNL     1     152.323 153.198 149.875  0.00  0.00    +0.277 A 
BRANCH  15  16
ATOM     16  N   UNL     1     152.029 152.410 151.022  0.00  0.00    +0.080 N 
ATOM     17  O   UNL     1     150.863 151.974 151.174  0.00  0.00    +0.041 OA
ATOM     18  O   UNL     1     152.944 152.175 151.847  0.00  0.00    -0.576 OA
ENDBRANCH  15  16
ENDBRANCH   9  10
BRANCH   1  19
ATOM     19  C   UNL     1     153.351 155.933 152.203  0.00  0.00    +0.337 C 
ATOM     20  O   UNL     1     154.391 155.697 151.616  0.00  0.00    -0.245 OA
BRANCH  19  21
ATOM     21  O   UNL     1     153.110 155.884 153.535  0.00  0.00    -0.465 OA
ATOM     22  C   UNL     1     153.433 154.638 154.164  0.00  0.00    +0.280 C 
ENDBRANCH  19  21
ENDBRANCH   1  19
BRANCH   8  23
ATOM     23  C   UNL     1     148.884 154.639 150.149  0.00  0.00    +0.337 C 
ATOM     24  O   UNL     1     148.541 154.389 149.008  0.00  0.00    -0.245 OA
BRANCH  23  25
ATOM     25  O   UNL     1     148.473 154.049 151.297  0.00  0.00    -0.465 OA
ATOM     26  C   UNL     1     147.143 154.383 151.708  0.00  0.00    +0.280 C 
ENDBRANCH  23  25
ENDBRANCH   8  23
TORSDOF 6
ENDMDL
MODEL 7
REMARK VINA RESULT:      -6.3      2.371      4.804
REMARK  Name = 4485
REMARK  10 active torsions:
REMARK  status: ('A' for Active; 'I' for Inactive)
REMARK    1  A    between atoms: O_1  and  C_17
REMARK    2  A    between atoms: O_1  and  C_24
REMARK    3  A    between atoms: O_2  and  C_18
REMARK    4  A    between atoms: O_2  and  C_25
REMARK    5  A    between atoms: N_8  and  C_15
REMARK    6  A    between atoms: C_9  and  C_12
REMARK    7  A    between atoms: C_10  and  C_17
REMARK    8  A    between atoms: C_11  and  C_18
REMARK    9  A    between atoms: C_13  and  C_19
REMARK   10  A    between atoms: C_14  and  C_20
REMARK                            x       y       z     vdW  Elec       q    Type
REMARK                         _______ _______ _______ _____ _____    ______ ____
ROOT
ATOM      1  C   UNL     1     149.125 150.404 144.503  0.00  0.00    +0.065 C 
ATOM      2  C   UNL     1     149.193 151.403 145.412  0.00  0.00    +0.016 C 
ATOM      3  C   UNL     1     148.039 151.927 146.224  0.00  0.00    +0.061 C 
ATOM      4  N   UNL     1     150.408 152.024 145.655  0.00  0.00    -0.321 N 
ATOM      5  H   UNL     1     150.424 152.764 146.348  0.00  0.00    +0.152 HD
ATOM      6  C   UNL     1     151.579 151.775 144.958  0.00  0.00    +0.016 C 
ATOM      7  C   UNL     1     152.740 152.659 145.330  0.00  0.00    +0.061 C 
ATOM      8  C   UNL     1     151.604 150.800 144.023  0.00  0.00    +0.065 C 
ATOM      9  C   UNL     1     150.377 149.921 143.762  0.00  0.00    +0.102 C 
ENDROOT
BRANCH   9  10
ATOM     10  C   UNL     1     150.678 148.497 144.137  0.00  0.00    +0.042 A 
ATOM     11  C   UNL     1     151.043 148.223 145.452  0.00  0.00    +0.011 A 
ATOM     12  C   UNL     1     151.327 146.911 145.831  0.00  0.00    +0.001 A 
ATOM     13  C   UNL     1     151.247 145.881 144.894  0.00  0.00    +0.007 A 
ATOM     14  C   UNL     1     150.880 146.162 143.577  0.00  0.00    +0.084 A 
ATOM     15  C   UNL     1     150.595 147.474 143.198  0.00  0.00    +0.277 A 
BRANCH  15  16
ATOM     16  N   UNL     1     150.223 147.737 141.852  0.00  0.00    +0.080 N 
ATOM     17  O   UNL     1     151.111 148.076 141.033  0.00  0.00    +0.041 OA
ATOM     18  O   UNL     1     149.018 147.623 141.522  0.00  0.00    -0.576 OA
ENDBRANCH  15  16
ENDBRANCH   9  10
BRANCH   1  19
ATOM     19  C   UNL     1     147.852 149.768 144.128  0.00  0.00    +0.337 C 
ATOM     20  O   UNL     1     147.246 149.002 144.855  0.00  0.00    -0.245 OA
BRANCH  19  21
ATOM     21  O   UNL     1     147.515 150.186 142.885  0.00  0.00    -0.465 OA
ATOM     22  C   UNL     1     146.261 149.694 142.397  0.00  0.00    +0.280 C 
ENDBRANCH  19  21
ENDBRANCH   1  19
BRANCH   8  23
ATOM     23  C   UNL     1     152.782 150.556 143.174  0.00  0.00    +0.337 C 
ATOM     24  O   UNL     1     152.898 151.000 142.047  0.00  0.00    -0.245 OA
BRANCH  23  25
ATOM     25  O   UNL     1     153.656 149.786 143.867  0.00  0.00    -0.465 OA
ATOM     26  C   UNL     1     154.220 148.696 143.130  0.00  0.00    +0.280 C 
ENDBRANCH  23  25
ENDBRANCH   8  23
TORSDOF 6
ENDMDL
MODEL 8
REMARK VINA RESULT:      -6.2     12.448     15.650
REMARK  Name = 4485
REMARK  10 active torsions:
REMARK  status: ('A' for Active; 'I' for Inactive)
REMARK    1  A    between atoms: O_1  and  C_17
REMARK    2  A    between atoms: O_1  and  C_24
REMARK    3  A    between atoms: O_2  and  C_18
REMARK    4  A    between atoms: O_2  and  C_25
REMARK    5  A    between atoms: N_8  and  C_15
REMARK    6  A    between atoms: C_9  and  C_12
REMARK    7  A    between atoms: C_10  and  C_17
REMARK    8  A    between atoms: C_11  and  C_18
REMARK    9  A    between atoms: C_13  and  C_19
REMARK   10  A    between atoms: C_14  and  C_20
REMARK                            x       y       z     vdW  Elec       q    Type
REMARK                         _______ _______ _______ _____ _____    ______ ____
ROOT
ATOM      1  C   UNL     1     152.245 160.898 146.150  0.00  0.00    +0.065 C 
ATOM      2  C   UNL     1     153.505 160.679 145.708  0.00  0.00    +0.016 C 
ATOM      3  C   UNL     1     153.874 160.082 144.377  0.00  0.00    +0.061 C 
ATOM      4  N   UNL     1     154.581 161.024 146.512  0.00  0.00    -0.321 N 
ATOM      5  H   UNL     1     155.511 160.853 146.147  0.00  0.00    +0.152 HD
ATOM      6  C   UNL     1     154.480 161.496 147.811  0.00  0.00    +0.016 C 
ATOM      7  C   UNL     1     155.794 161.692 148.519  0.00  0.00    +0.061 C 
ATOM      8  C   UNL     1     153.260 161.736 148.341  0.00  0.00    +0.065 C 
ATOM      9  C   UNL     1     151.986 161.555 147.511  0.00  0.00    +0.102 C 
ENDROOT
BRANCH   9  10
ATOM     10  C   UNL     1     151.306 162.881 147.318  0.00  0.00    +0.042 A 
ATOM     11  C   UNL     1     151.985 163.877 146.622  0.00  0.00    +0.011 A 
ATOM     12  C   UNL     1     151.380 165.119 146.426  0.00  0.00    +0.001 A 
ATOM     13  C   UNL     1     150.101 165.359 146.929  0.00  0.00    +0.007 A 
ATOM     14  C   UNL     1     149.426 164.356 147.627  0.00  0.00    +0.084 A 
ATOM     15  C   UNL     1     150.031 163.114 147.822  0.00  0.00    +0.277 A 
BRANCH  15  16
ATOM     16  N   UNL     1     149.324 162.108 148.534  0.00  0.00    +0.080 N 
ATOM     17  O   UNL     1     149.523 161.985 149.766  0.00  0.00    +0.041 OA
ATOM     18  O   UNL     1     148.522 161.372 147.910  0.00  0.00    -0.576 OA
ENDBRANCH  15  16
ENDBRANCH   9  10
BRANCH   1  19
ATOM     19  C   UNL     1     151.061 160.469 145.389  0.00  0.00    +0.337 C 
ATOM     20  O   UNL     1     150.507 161.169 144.561  0.00  0.00    -0.245 OA
BRANCH  19  21
ATOM     21  O   UNL     1     150.735 159.213 145.777  0.00  0.00    -0.465 OA
ATOM     22  C   UNL     1     150.095 158.414 144.775  0.00  0.00    +0.280 C 
ENDBRANCH  19  21
ENDBRANCH   1  19
BRANCH   8  23
ATOM     23  C   UNL     1     153.080 162.136 149.746  0.00  0.00    +0.337 C 
ATOM     24  O   UNL     1     152.829 161.348 150.639  0.00  0.00    -0.245 OA
BRANCH  23  25
ATOM     25  O   UNL     1     153.244 163.478 149.833  0.00  0.00    -0.465 OA
ATOM     26  C   UNL     1     152.236 164.166 150.582  0.00  0.00    +0.280 C 
ENDBRANCH  23  25
ENDBRANCH   8  23
TORSDOF 6
ENDMDL
MODEL 9
REMARK VINA RESULT:      -6.1     13.843     17.169
REMARK  Name = 4485
REMARK  10 active torsions:
REMARK  status: ('A' for Active; 'I' for Inactive)
REMARK    1  A    between atoms: O_1  and  C_17
REMARK    2  A    between atoms: O_1  and  C_24
REMARK    3  A    between atoms: O_2  and  C_18
REMARK    4  A    between atoms: O_2  and  C_25
REMARK    5  A    between atoms: N_8  and  C_15
REMARK    6  A    between atoms: C_9  and  C_12
REMARK    7  A    between atoms: C_10  and  C_17
REMARK    8  A    between atoms: C_11  and  C_18
REMARK    9  A    between atoms: C_13  and  C_19
REMARK   10  A    between atoms: C_14  and  C_20
REMARK                            x       y       z     vdW  Elec       q    Type
REMARK                         _______ _______ _______ _____ _____    ______ ____
ROOT
ATOM      1  C   UNL     1     150.186 162.132 149.907  0.00  0.00    +0.065 C 
ATOM      2  C   UNL     1     149.956 161.915 151.222  0.00  0.00    +0.016 C 
ATOM      3  C   UNL     1     149.137 160.788 151.793  0.00  0.00    +0.061 C 
ATOM      4  N   UNL     1     150.504 162.773 152.162  0.00  0.00    -0.321 N 
ATOM      5  H   UNL     1     150.318 162.577 153.139  0.00  0.00    +0.152 HD
ATOM      6  C   UNL     1     151.208 163.929 151.865  0.00  0.00    +0.016 C 
ATOM      7  C   UNL     1     151.606 164.756 153.059  0.00  0.00    +0.061 C 
ATOM      8  C   UNL     1     151.478 164.233 150.576  0.00  0.00    +0.065 C 
ATOM      9  C   UNL     1     151.074 163.291 149.438  0.00  0.00    +0.102 C 
ENDROOT
BRANCH   9  10
ATOM     10  C   UNL     1     152.301 162.753 148.758  0.00  0.00    +0.042 A 
ATOM     11  C   UNL     1     153.220 162.036 149.520  0.00  0.00    +0.011 A 
ATOM     12  C   UNL     1     154.368 161.524 148.917  0.00  0.00    +0.001 A 
ATOM     13  C   UNL     1     154.594 161.731 147.556  0.00  0.00    +0.007 A 
ATOM     14  C   UNL     1     153.669 162.451 146.797  0.00  0.00    +0.084 A 
ATOM     15  C   UNL     1     152.520 162.963 147.401  0.00  0.00    +0.277 A 
BRANCH  15  16
ATOM     16  N   UNL     1     151.592 163.691 146.608  0.00  0.00    +0.080 N 
ATOM     17  O   UNL     1     150.628 163.080 146.088  0.00  0.00    +0.041 OA
ATOM     18  O   UNL     1     151.764 164.924 146.451  0.00  0.00    -0.576 OA
ENDBRANCH  15  16
ENDBRANCH   9  10
BRANCH   1  19
ATOM     19  C   UNL     1     149.557 161.317 148.855  0.00  0.00    +0.337 C 
ATOM     20  O   UNL     1     148.567 161.666 148.239  0.00  0.00    -0.245 OA
BRANCH  19  21
ATOM     21  O   UNL     1     150.266 160.170 148.722  0.00  0.00    -0.465 OA
ATOM     22  C   UNL     1     150.521 159.767 147.371  0.00  0.00    +0.280 C 
ENDBRANCH  19  21
ENDBRANCH   1  19
BRANCH   8  23
ATOM     23  C   UNL     1     152.127 165.496 150.187  0.00  0.00    +0.337 C 
ATOM     24  O   UNL     1     153.250 165.806 150.537  0.00  0.00    -0.245 OA
BRANCH  23  25
ATOM     25  O   UNL     1     151.269 166.194 149.405  0.00  0.00    -0.465 OA
ATOM     26  C   UNL     1     151.763 167.452 148.934  0.00  0.00    +0.280 C 
ENDBRANCH  23  25
ENDBRANCH   8  23
TORSDOF 6
ENDMDL
MODEL 10
REMARK VINA RESULT:      -6.1     10.126     12.900
REMARK  Name = 4485
REMARK  10 active torsions:
REMARK  status: ('A' for Active; 'I' for Inactive)
REMARK    1  A    between atoms: O_1  and  C_17
REMARK    2  A    between atoms: O_1  and  C_24
REMARK    3  A    between atoms: O_2  and  C_18
REMARK    4  A    between atoms: O_2  and  C_25
REMARK    5  A    between atoms: N_8  and  C_15
REMARK    6  A    between atoms: C_9  and  C_12
REMARK    7  A    between atoms: C_10  and  C_17
REMARK    8  A    between atoms: C_11  and  C_18
REMARK    9  A    between atoms: C_13  and  C_19
REMARK   10  A    between atoms: C_14  and  C_20
REMARK                            x       y       z     vdW  Elec       q    Type
REMARK                         _______ _______ _______ _____ _____    ______ ____
ROOT
ATOM      1  C   UNL     1     153.945 155.007 151.206  0.00  0.00    +0.065 C 
ATOM      2  C   UNL     1     153.483 153.853 150.672  0.00  0.00    +0.016 C 
ATOM      3  C   UNL     1     153.280 152.563 151.421  0.00  0.00    +0.061 C 
ATOM      4  N   UNL     1     153.148 153.808 149.328  0.00  0.00    -0.321 N 
ATOM      5  H   UNL     1     152.798 152.929 148.963  0.00  0.00    +0.152 HD
ATOM      6  C   UNL     1     153.345 154.842 148.427  0.00  0.00    +0.016 C 
ATOM      7  C   UNL     1     153.007 154.511 146.997  0.00  0.00    +0.061 C 
ATOM      8  C   UNL     1     153.813 156.030 148.867  0.00  0.00    +0.065 C 
ATOM      9  C   UNL     1     154.072 156.278 150.356  0.00  0.00    +0.102 C 
ENDROOT
BRANCH   9  10
ATOM     10  C   UNL     1     153.136 157.334 150.871  0.00  0.00    +0.042 A 
ATOM     11  C   UNL     1     151.767 157.134 150.723  0.00  0.00    +0.011 A 
ATOM     12  C   UNL     1     150.872 158.096 151.191  0.00  0.00    +0.001 A 
ATOM     13  C   UNL     1     151.351 159.254 151.804  0.00  0.00    +0.007 A 
ATOM     14  C   UNL     1     152.725 159.449 151.950  0.00  0.00    +0.084 A 
ATOM     15  C   UNL     1     153.620 158.486 151.482  0.00  0.00    +0.277 A 
BRANCH  15  16
ATOM     16  N   UNL     1     155.015 158.706 151.643  0.00  0.00    +0.080 N 
ATOM     17  O   UNL     1     155.568 158.335 152.706  0.00  0.00    +0.041 OA
ATOM     18  O   UNL     1     155.652 159.264 150.718  0.00  0.00    -0.576 OA
ENDBRANCH  15  16
ENDBRANCH   9  10
BRANCH   1  19
ATOM     19  C   UNL     1     154.407 155.099 152.600  0.00  0.00    +0.337 C 
ATOM     20  O   UNL     1     155.579 155.036 152.923  0.00  0.00    -0.245 OA
BRANCH  19  21
ATOM     21  O   UNL     1     153.325 155.258 153.399  0.00  0.00    -0.465 OA
ATOM     22  C   UNL     1     153.382 154.556 154.646  0.00  0.00    +0.280 C 
ENDBRANCH  19  21
ENDBRANCH   1  19
BRANCH   8  23
ATOM     23  C   UNL     1     154.143 157.133 147.949  0.00  0.00    +0.337 C 
ATOM     24  O   UNL     1     153.310 157.733 147.297  0.00  0.00    -0.245 OA
BRANCH  23  25
ATOM     25  O   UNL     1     155.484 157.329 147.981  0.00  0.00    -0.465 OA
ATOM     26  C   UNL     1     155.948 158.469 147.250  0.00  0.00    +0.280 C 
ENDBRANCH  23  25
ENDBRANCH   8  23
TORSDOF 6
ENDMDL
