MODEL 1
REMARK VINA RESULT:      -6.3      0.000      0.000
REMARK  16 active torsions:
REMARK  status: ('A' for Active; 'I' for Inactive)
REMARK    1  A    between atoms: O_2  and  C_22 
REMARK    2  A    between atoms: O_2  and  C_26 
REMARK    3  A    between atoms: O_4  and  C_18 
REMARK    4  A    between atoms: O_5  and  C_19 
REMARK    5  A    between atoms: O_6  and  C_25 
REMARK    6  A    between atoms: O_6  and  C_29 
REMARK    7  A    between atoms: O_7  and  C_20 
REMARK    8  A    between atoms: O_8  and  C_21 
REMARK    9  A    between atoms: O_9  and  C_23 
REMARK   10  A    between atoms: O_10  and  C_24 
REMARK   11  A    between atoms: O_13  and  C_35 
REMARK   12  A    between atoms: O_14  and  C_40 
REMARK   13  A    between atoms: O_15  and  C_41 
REMARK   14  A    between atoms: O_16  and  C_43 
REMARK   15  A    between atoms: C_17  and  C_26 
REMARK   16  A    between atoms: C_30  and  C_33 
ROOT
HETATM    1  O   UNK     0      -0.880  -1.716   3.066  0.00  0.00    -0.348 OA
HETATM    2  C   UNK     0      -1.106  -1.646   4.475  0.00  0.00     0.180 C 
HETATM    3  C   UNK     0      -2.288  -2.539   4.859  0.00  0.00     0.180 C 
HETATM    4  C   UNK     0      -3.537  -2.158   4.064  0.00  0.00     0.183 C 
HETATM    5  C   UNK     0      -3.233  -2.059   2.569  0.00  0.00     0.205 C 
HETATM    6  C   UNK     0      -1.983  -1.218   2.310  0.00  0.00     0.298 C 
ENDROOT
BRANCH   2   7
HETATM    7  C   UNK     0       0.181  -2.083   5.168  0.00  0.00     0.205 C 
BRANCH   7   8
HETATM    8  O   UNK     0       0.685  -3.242   4.521  0.00  0.00    -0.356 OA
BRANCH   8   9
HETATM    9  C   UNK     0       1.864  -3.723   5.156  0.00  0.00     0.291 C 
HETATM   10  O   UNK     0       3.040  -3.488   4.375  0.00  0.00    -0.351 OA
HETATM   11  C   UNK     0       3.064  -4.188   3.127  0.00  0.00     0.152 C 
HETATM   12  C   UNK     0       2.974  -5.705   3.345  0.00  0.00     0.178 C 
HETATM   13  C   UNK     0       4.355  -3.788   2.416  0.00  0.00     0.042 C 
HETATM   14  C   UNK     0       1.744  -6.043   4.187  0.00  0.00     0.183 C 
HETATM   15  C   UNK     0       1.712  -5.210   5.470  0.00  0.00     0.204 C 
BRANCH  12  16
HETATM   16  O   UNK     0       2.853  -6.377   2.093  0.00  0.00    -0.390 OA
HETATM   17  H   UNK     0       3.649  -6.180   1.570  0.00  0.00     0.210 HD
ENDBRANCH  12  16
BRANCH  14  18
HETATM   18  O   UNK     0       1.763  -7.432   4.510  0.00  0.00    -0.390 OA
HETATM   19  H   UNK     0       1.976  -7.513   5.456  0.00  0.00     0.210 HD
ENDBRANCH  14  18
BRANCH  15  20
HETATM   20  O   UNK     0       2.794  -5.588   6.322  0.00  0.00    -0.388 OA
HETATM   21  H   UNK     0       2.621  -6.483   6.660  0.00  0.00     0.210 HD
ENDBRANCH  15  20
ENDBRANCH   8   9
ENDBRANCH   7   8
ENDBRANCH   2   7
BRANCH   6  22
HETATM   22  O   UNK     0      -1.684  -1.292   0.917  0.00  0.00    -0.311 OA
BRANCH  22  23
HETATM   23  C   UNK     0      -0.330  -1.196   0.683  0.00  0.00     0.157 A 
HETATM   24  C   UNK     0       0.433  -2.250   0.343  0.00  0.00     0.124 A 
HETATM   25  O   UNK     0       1.803  -2.195   0.132  0.00  0.00    -0.306 OA
HETATM   26  C   UNK     0       2.435  -0.985   0.256  0.00  0.00     0.096 A 
HETATM   27  C   UNK     0       1.762   0.187   0.594  0.00  0.00     0.084 A 
HETATM   28  C   UNK     0       3.811  -0.959   0.028  0.00  0.00     0.075 A 
HETATM   29  C   UNK     0       0.312   0.133   0.832  0.00  0.00     0.223 A 
HETATM   30  C   UNK     0       2.459   1.394   0.707  0.00  0.00     0.085 A 
HETATM   31  O   UNK     0      -0.331   1.128   1.137  0.00  0.00    -0.284 OA
HETATM   32  C   UNK     0       3.836   1.416   0.478  0.00  0.00     0.074 A 
HETATM   33  C   UNK     0       4.510   0.243   0.139  0.00  0.00     0.071 A 
BRANCH  24  34
HETATM   34  C   UNK     0      -0.118  -3.607   0.179  0.00  0.00     0.004 A 
HETATM   35  C   UNK     0      -0.676  -3.992  -1.040  0.00  0.00     0.053 A 
HETATM   36  C   UNK     0      -1.196  -5.276  -1.196  0.00  0.00     0.099 A 
HETATM   37  C   UNK     0      -1.160  -6.177  -0.132  0.00  0.00     0.098 A 
HETATM   38  C   UNK     0      -0.603  -5.793   1.088  0.00  0.00     0.040 A 
HETATM   39  C   UNK     0      -0.081  -4.509   1.243  0.00  0.00     0.017 A 
BRANCH  36  40
HETATM   40  O   UNK     0      -1.741  -5.639  -2.391  0.00  0.00    -0.358 OA
HETATM   41  H   UNK     0      -1.035  -5.893  -3.008  0.00  0.00     0.217 HD
ENDBRANCH  36  40
BRANCH  37  42
HETATM   42  O   UNK     0      -1.665  -7.434  -0.272  0.00  0.00    -0.358 OA
HETATM   43  H   UNK     0      -2.179  -7.670   0.516  0.00  0.00     0.217 HD
ENDBRANCH  37  42
ENDBRANCH  24  34
BRANCH  30  44
HETATM   44  O   UNK     0       1.850   2.566   1.035  0.00  0.00    -0.360 OA
HETATM   45  H   UNK     0       2.457   3.109   1.568  0.00  0.00     0.217 HD
ENDBRANCH  30  44
BRANCH  33  46
HETATM   46  O   UNK     0       5.853   0.270  -0.083  0.00  0.00    -0.361 OA
HETATM   47  H   UNK     0       6.185  -0.643  -0.125  0.00  0.00     0.217 HD
ENDBRANCH  33  46
ENDBRANCH  22  23
ENDBRANCH   6  22
BRANCH   3  48
HETATM   48  O   UNK     0      -2.554  -2.395   6.251  0.00  0.00    -0.390 OA
HETATM   49  H   UNK     0      -2.818  -3.264   6.599  0.00  0.00     0.210 HD
ENDBRANCH   3  48
BRANCH   5  50
HETATM   50  O   UNK     0      -4.333  -1.442   1.901  0.00  0.00    -0.388 OA
HETATM   51  H   UNK     0      -4.160  -0.487   1.854  0.00  0.00     0.210 HD
ENDBRANCH   5  50
BRANCH   4  52
HETATM   52  O   UNK     0      -4.525  -3.167   4.283  0.00  0.00    -0.390 OA
HETATM   53  H   UNK     0      -5.178  -2.805   4.905  0.00  0.00     0.210 HD
ENDBRANCH   4  52
TORSDOF 16
ENDMDL
MODEL 2
REMARK VINA RESULT:      -5.9      1.932      4.820
REMARK  16 active torsions:
REMARK  status: ('A' for Active; 'I' for Inactive)
REMARK    1  A    between atoms: O_2  and  C_22 
REMARK    2  A    between atoms: O_2  and  C_26 
REMARK    3  A    between atoms: O_4  and  C_18 
REMARK    4  A    between atoms: O_5  and  C_19 
REMARK    5  A    between atoms: O_6  and  C_25 
REMARK    6  A    between atoms: O_6  and  C_29 
REMARK    7  A    between atoms: O_7  and  C_20 
REMARK    8  A    between atoms: O_8  and  C_21 
REMARK    9  A    between atoms: O_9  and  C_23 
REMARK   10  A    between atoms: O_10  and  C_24 
REMARK   11  A    between atoms: O_13  and  C_35 
REMARK   12  A    between atoms: O_14  and  C_40 
REMARK   13  A    between atoms: O_15  and  C_41 
REMARK   14  A    between atoms: O_16  and  C_43 
REMARK   15  A    between atoms: C_17  and  C_26 
REMARK   16  A    between atoms: C_30  and  C_33 
ROOT
HETATM    1  O   UNK     0      -1.546  -1.318   2.549  0.00  0.00    -0.348 OA
HETATM    2  C   UNK     0      -2.185  -0.234   1.871  0.00  0.00     0.180 C 
HETATM    3  C   UNK     0      -3.495   0.124   2.577  0.00  0.00     0.180 C 
HETATM    4  C   UNK     0      -4.408  -1.098   2.679  0.00  0.00     0.183 C 
HETATM    5  C   UNK     0      -3.656  -2.305   3.240  0.00  0.00     0.205 C 
HETATM    6  C   UNK     0      -2.323  -2.513   2.521  0.00  0.00     0.298 C 
ENDROOT
BRANCH   2   7
HETATM    7  C   UNK     0      -1.209   0.939   1.860  0.00  0.00     0.205 C 
BRANCH   7   8
HETATM    8  O   UNK     0      -0.419   0.872   0.682  0.00  0.00    -0.356 OA
BRANCH   8   9
HETATM    9  C   UNK     0       0.951   1.148   0.958  0.00  0.00     0.291 C 
HETATM   10  O   UNK     0       1.515   2.084   0.034  0.00  0.00    -0.351 OA
HETATM   11  C   UNK     0       1.569   1.614  -1.317  0.00  0.00     0.152 C 
HETATM   12  C   UNK     0       2.405   0.331  -1.422  0.00  0.00     0.178 C 
HETATM   13  C   UNK     0       2.151   2.746  -2.161  0.00  0.00     0.042 C 
HETATM   14  C   UNK     0       1.872  -0.724  -0.452  0.00  0.00     0.183 C 
HETATM   15  C   UNK     0       1.749  -0.154   0.963  0.00  0.00     0.204 C 
BRANCH  12  16
HETATM   16  O   UNK     0       2.328  -0.202  -2.742  0.00  0.00    -0.390 OA
HETATM   17  H   UNK     0       1.406  -0.464  -2.905  0.00  0.00     0.210 HD
ENDBRANCH  12  16
BRANCH  14  18
HETATM   18  O   UNK     0       2.752  -1.846  -0.448  0.00  0.00    -0.390 OA
HETATM   19  H   UNK     0       2.735  -2.239  -1.338  0.00  0.00     0.210 HD
ENDBRANCH  14  18
BRANCH  15  20
HETATM   20  O   UNK     0       3.046   0.133   1.487  0.00  0.00    -0.388 OA
HETATM   21  H   UNK     0       3.554  -0.696   1.522  0.00  0.00     0.210 HD
ENDBRANCH  15  20
ENDBRANCH   8   9
ENDBRANCH   7   8
ENDBRANCH   2   7
BRANCH   6  22
HETATM   22  O   UNK     0      -1.621  -3.560   3.190  0.00  0.00    -0.311 OA
BRANCH  22  23
HETATM   23  C   UNK     0      -0.256  -3.397   3.094  0.00  0.00     0.157 A 
HETATM   24  C   UNK     0       0.453  -3.760   2.010  0.00  0.00     0.124 A 
HETATM   25  O   UNK     0       1.829  -3.640   1.894  0.00  0.00    -0.306 OA
HETATM   26  C   UNK     0       2.529  -3.097   2.941  0.00  0.00     0.096 A 
HETATM   27  C   UNK     0       1.917  -2.672   4.118  0.00  0.00     0.084 A 
HETATM   28  C   UNK     0       3.911  -2.980   2.791  0.00  0.00     0.075 A 
HETATM   29  C   UNK     0       0.458  -2.809   4.253  0.00  0.00     0.223 A 
HETATM   30  C   UNK     0       2.681  -2.127   5.154  0.00  0.00     0.085 A 
HETATM   31  O   UNK     0      -0.133  -2.458   5.265  0.00  0.00    -0.284 OA
HETATM   32  C   UNK     0       4.064  -2.011   5.001  0.00  0.00     0.074 A 
HETATM   33  C   UNK     0       4.677  -2.436   3.822  0.00  0.00     0.071 A 
BRANCH  24  34
HETATM   34  C   UNK     0      -0.173  -4.357   0.818  0.00  0.00     0.004 A 
HETATM   35  C   UNK     0      -0.603  -5.684   0.846  0.00  0.00     0.053 A 
HETATM   36  C   UNK     0      -1.198  -6.250  -0.282  0.00  0.00     0.099 A 
HETATM   37  C   UNK     0      -1.361  -5.489  -1.440  0.00  0.00     0.098 A 
HETATM   38  C   UNK     0      -0.930  -4.163  -1.469  0.00  0.00     0.040 A 
HETATM   39  C   UNK     0      -0.337  -3.597  -0.340  0.00  0.00     0.017 A 
BRANCH  36  40
HETATM   40  O   UNK     0      -1.612  -7.548  -0.243  0.00  0.00    -0.358 OA
HETATM   41  H   UNK     0      -2.166  -7.690   0.542  0.00  0.00     0.217 HD
ENDBRANCH  36  40
BRANCH  37  42
HETATM   42  O   UNK     0      -1.940  -6.030  -2.547  0.00  0.00    -0.358 OA
HETATM   43  H   UNK     0      -1.922  -6.998  -2.487  0.00  0.00     0.217 HD
ENDBRANCH  37  42
ENDBRANCH  24  34
BRANCH  30  44
HETATM   44  O   UNK     0       2.133  -1.697   6.324  0.00  0.00    -0.360 OA
HETATM   45  H   UNK     0       1.186  -1.921   6.341  0.00  0.00     0.217 HD
ENDBRANCH  30  44
BRANCH  33  46
HETATM   46  O   UNK     0       6.026  -2.321   3.678  0.00  0.00    -0.361 OA
HETATM   47  H   UNK     0       6.214  -1.694   2.959  0.00  0.00     0.217 HD
ENDBRANCH  33  46
ENDBRANCH  22  23
ENDBRANCH   6  22
BRANCH   3  48
HETATM   48  O   UNK     0      -4.160   1.149   1.843  0.00  0.00    -0.390 OA
HETATM   49  H   UNK     0      -5.115   0.967   1.871  0.00  0.00     0.210 HD
ENDBRANCH   3  48
BRANCH   5  50
HETATM   50  O   UNK     0      -4.448  -3.480   3.066  0.00  0.00    -0.388 OA
HETATM   51  H   UNK     0      -5.375  -3.246   3.236  0.00  0.00     0.210 HD
ENDBRANCH   5  50
BRANCH   4  52
HETATM   52  O   UNK     0      -5.492  -0.767   3.549  0.00  0.00    -0.390 OA
HETATM   53  H   UNK     0      -5.141  -0.742   4.456  0.00  0.00     0.210 HD
ENDBRANCH   4  52
TORSDOF 16
ENDMDL
MODEL 3
REMARK VINA RESULT:      -5.9      1.867      6.495
REMARK  16 active torsions:
REMARK  status: ('A' for Active; 'I' for Inactive)
REMARK    1  A    between atoms: O_2  and  C_22 
REMARK    2  A    between atoms: O_2  and  C_26 
REMARK    3  A    between atoms: O_4  and  C_18 
REMARK    4  A    between atoms: O_5  and  C_19 
REMARK    5  A    between atoms: O_6  and  C_25 
REMARK    6  A    between atoms: O_6  and  C_29 
REMARK    7  A    between atoms: O_7  and  C_20 
REMARK    8  A    between atoms: O_8  and  C_21 
REMARK    9  A    between atoms: O_9  and  C_23 
REMARK   10  A    between atoms: O_10  and  C_24 
REMARK   11  A    between atoms: O_13  and  C_35 
REMARK   12  A    between atoms: O_14  and  C_40 
REMARK   13  A    between atoms: O_15  and  C_41 
REMARK   14  A    between atoms: O_16  and  C_43 
REMARK   15  A    between atoms: C_17  and  C_26 
REMARK   16  A    between atoms: C_30  and  C_33 
ROOT
HETATM    1  O   UNK     0       3.181  -4.485   2.395  0.00  0.00    -0.348 OA
HETATM    2  C   UNK     0       4.510  -4.049   2.690  0.00  0.00     0.180 C 
HETATM    3  C   UNK     0       5.485  -5.222   2.561  0.00  0.00     0.180 C 
HETATM    4  C   UNK     0       5.056  -6.385   3.456  0.00  0.00     0.183 C 
HETATM    5  C   UNK     0       3.578  -6.721   3.258  0.00  0.00     0.205 C 
HETATM    6  C   UNK     0       2.710  -5.464   3.318  0.00  0.00     0.298 C 
ENDROOT
BRANCH   2   7
HETATM    7  C   UNK     0       4.849  -2.922   1.719  0.00  0.00     0.205 C 
BRANCH   7   8
HETATM    8  O   UNK     0       3.699  -2.617   0.944  0.00  0.00    -0.356 OA
BRANCH   8   9
HETATM    9  C   UNK     0       3.653  -1.236   0.602  0.00  0.00     0.291 C 
HETATM   10  O   UNK     0       2.970  -0.453   1.585  0.00  0.00    -0.351 OA
HETATM   11  C   UNK     0       1.583  -0.774   1.730  0.00  0.00     0.152 C 
HETATM   12  C   UNK     0       0.830  -0.575   0.407  0.00  0.00     0.178 C 
HETATM   13  C   UNK     0       1.032   0.119   2.840  0.00  0.00     0.042 C 
HETATM   14  C   UNK     0       1.506  -1.374  -0.707  0.00  0.00     0.183 C 
HETATM   15  C   UNK     0       3.004  -1.066  -0.771  0.00  0.00     0.204 C 
BRANCH  12  16
HETATM   16  O   UNK     0      -0.514  -1.036   0.530  0.00  0.00    -0.390 OA
HETATM   17  H   UNK     0      -0.525  -1.756   1.183  0.00  0.00     0.210 HD
ENDBRANCH  12  16
BRANCH  14  18
HETATM   18  O   UNK     0       0.892  -1.055  -1.954  0.00  0.00    -0.390 OA
HETATM   19  H   UNK     0       1.285  -0.225  -2.274  0.00  0.00     0.210 HD
ENDBRANCH  14  18
BRANCH  15  20
HETATM   20  O   UNK     0       3.205   0.287  -1.182  0.00  0.00    -0.388 OA
HETATM   21  H   UNK     0       3.048   0.867  -0.418  0.00  0.00     0.210 HD
ENDBRANCH  15  20
ENDBRANCH   8   9
ENDBRANCH   7   8
ENDBRANCH   2   7
BRANCH   6  22
HETATM   22  O   UNK     0       1.373  -5.837   2.984  0.00  0.00    -0.311 OA
BRANCH  22  23
HETATM   23  C   UNK     0       0.494  -4.792   3.167  0.00  0.00     0.157 A 
HETATM   24  C   UNK     0      -0.372  -4.386   2.221  0.00  0.00     0.124 A 
HETATM   25  O   UNK     0      -1.246  -3.319   2.361  0.00  0.00    -0.306 OA
HETATM   26  C   UNK     0      -1.254  -2.632   3.547  0.00  0.00     0.096 A 
HETATM   27  C   UNK     0      -0.415  -2.953   4.612  0.00  0.00     0.084 A 
HETATM   28  C   UNK     0      -2.152  -1.569   3.662  0.00  0.00     0.075 A 
HETATM   29  C   UNK     0       0.524  -4.075   4.465  0.00  0.00     0.223 A 
HETATM   30  C   UNK     0      -0.466  -2.215   5.798  0.00  0.00     0.085 A 
HETATM   31  O   UNK     0       1.289  -4.400   5.363  0.00  0.00    -0.284 OA
HETATM   32  C   UNK     0      -1.365  -1.153   5.910  0.00  0.00     0.074 A 
HETATM   33  C   UNK     0      -2.206  -0.831   4.844  0.00  0.00     0.071 A 
BRANCH  24  34
HETATM   34  C   UNK     0      -0.465  -5.035   0.902  0.00  0.00     0.004 A 
HETATM   35  C   UNK     0      -1.126  -4.394  -0.146  0.00  0.00     0.053 A 
HETATM   36  C   UNK     0      -1.213  -5.007  -1.396  0.00  0.00     0.099 A 
HETATM   37  C   UNK     0      -0.641  -6.262  -1.598  0.00  0.00     0.098 A 
HETATM   38  C   UNK     0       0.019  -6.904  -0.551  0.00  0.00     0.040 A 
HETATM   39  C   UNK     0       0.108  -6.291   0.698  0.00  0.00     0.017 A 
BRANCH  36  40
HETATM   40  O   UNK     0      -1.863  -4.371  -2.411  0.00  0.00    -0.358 OA
HETATM   41  H   UNK     0      -1.620  -3.431  -2.417  0.00  0.00     0.217 HD
ENDBRANCH  36  40
BRANCH  37  42
HETATM   42  O   UNK     0      -0.719  -6.871  -2.814  0.00  0.00    -0.358 OA
HETATM   43  H   UNK     0      -1.625  -7.181  -2.968  0.00  0.00     0.217 HD
ENDBRANCH  37  42
ENDBRANCH  24  34
BRANCH  30  44
HETATM   44  O   UNK     0       0.332  -2.487   6.867  0.00  0.00    -0.360 OA
HETATM   45  H   UNK     0       1.265  -2.448   6.594  0.00  0.00     0.217 HD
ENDBRANCH  30  44
BRANCH  33  46
HETATM   46  O   UNK     0      -3.080   0.206   4.958  0.00  0.00    -0.361 OA
HETATM   47  H   UNK     0      -3.862   0.021   4.409  0.00  0.00     0.217 HD
ENDBRANCH  33  46
ENDBRANCH  22  23
ENDBRANCH   6  22
BRANCH   3  48
HETATM   48  O   UNK     0       6.790  -4.793   2.939  0.00  0.00    -0.390 OA
HETATM   49  H   UNK     0       7.397  -4.994   2.207  0.00  0.00     0.210 HD
ENDBRANCH   3  48
BRANCH   5  50
HETATM   50  O   UNK     0       3.152  -7.610   4.290  0.00  0.00    -0.388 OA
HETATM   51  H   UNK     0       3.003  -8.484   3.893  0.00  0.00     0.210 HD
ENDBRANCH   5  50
BRANCH   4  52
HETATM   52  O   UNK     0       5.852  -7.521   3.115  0.00  0.00    -0.390 OA
HETATM   53  H   UNK     0       5.597  -7.797   2.218  0.00  0.00     0.210 HD
ENDBRANCH   4  52
TORSDOF 16
ENDMDL
MODEL 4
REMARK VINA RESULT:      -5.7      1.608      2.249
REMARK  16 active torsions:
REMARK  status: ('A' for Active; 'I' for Inactive)
REMARK    1  A    between atoms: O_2  and  C_22 
REMARK    2  A    between atoms: O_2  and  C_26 
REMARK    3  A    between atoms: O_4  and  C_18 
REMARK    4  A    between atoms: O_5  and  C_19 
REMARK    5  A    between atoms: O_6  and  C_25 
REMARK    6  A    between atoms: O_6  and  C_29 
REMARK    7  A    between atoms: O_7  and  C_20 
REMARK    8  A    between atoms: O_8  and  C_21 
REMARK    9  A    between atoms: O_9  and  C_23 
REMARK   10  A    between atoms: O_10  and  C_24 
REMARK   11  A    between atoms: O_13  and  C_35 
REMARK   12  A    between atoms: O_14  and  C_40 
REMARK   13  A    between atoms: O_15  and  C_41 
REMARK   14  A    between atoms: O_16  and  C_43 
REMARK   15  A    between atoms: C_17  and  C_26 
REMARK   16  A    between atoms: C_30  and  C_33 
ROOT
HETATM    1  O   UNK     0      -1.375  -3.133   3.883  0.00  0.00    -0.348 OA
HETATM    2  C   UNK     0      -1.136  -3.169   5.292  0.00  0.00     0.180 C 
HETATM    3  C   UNK     0      -2.467  -3.149   6.048  0.00  0.00     0.180 C 
HETATM    4  C   UNK     0      -3.301  -1.932   5.645  0.00  0.00     0.183 C 
HETATM    5  C   UNK     0      -3.395  -1.804   4.124  0.00  0.00     0.205 C 
HETATM    6  C   UNK     0      -2.019  -1.929   3.470  0.00  0.00     0.298 C 
ENDROOT
BRANCH   2   7
HETATM    7  C   UNK     0      -0.337  -4.435   5.589  0.00  0.00     0.205 C 
BRANCH   7   8
HETATM    8  O   UNK     0       0.659  -4.597   4.590  0.00  0.00    -0.356 OA
BRANCH   8   9
HETATM    9  C   UNK     0       1.932  -4.153   5.047  0.00  0.00     0.291 C 
HETATM   10  O   UNK     0       2.107  -2.742   4.889  0.00  0.00    -0.351 OA
HETATM   11  C   UNK     0       2.105  -2.300   3.527  0.00  0.00     0.152 C 
HETATM   12  C   UNK     0       3.227  -2.976   2.727  0.00  0.00     0.178 C 
HETATM   13  C   UNK     0       2.256  -0.781   3.551  0.00  0.00     0.042 C 
HETATM   14  C   UNK     0       3.120  -4.496   2.853  0.00  0.00     0.183 C 
HETATM   15  C   UNK     0       3.037  -4.919   4.321  0.00  0.00     0.204 C 
BRANCH  12  16
HETATM   16  O   UNK     0       3.121  -2.638   1.345  0.00  0.00    -0.390 OA
HETATM   17  H   UNK     0       2.243  -2.919   1.036  0.00  0.00     0.210 HD
ENDBRANCH  12  16
BRANCH  14  18
HETATM   18  O   UNK     0       4.255  -5.099   2.237  0.00  0.00    -0.390 OA
HETATM   19  H   UNK     0       3.936  -5.645   1.498  0.00  0.00     0.210 HD
ENDBRANCH  14  18
BRANCH  15  20
HETATM   20  O   UNK     0       4.271  -4.631   4.981  0.00  0.00    -0.388 OA
HETATM   21  H   UNK     0       4.759  -5.464   5.096  0.00  0.00     0.210 HD
ENDBRANCH  15  20
ENDBRANCH   8   9
ENDBRANCH   7   8
ENDBRANCH   2   7
BRANCH   6  22
HETATM   22  O   UNK     0      -2.204  -1.944   2.055  0.00  0.00    -0.311 OA
BRANCH  22  23
HETATM   23  C   UNK     0      -1.161  -1.329   1.400  0.00  0.00     0.157 A 
HETATM   24  C   UNK     0      -0.302  -1.989   0.602  0.00  0.00     0.124 A 
HETATM   25  O   UNK     0       0.777  -1.406  -0.045  0.00  0.00    -0.306 OA
HETATM   26  C   UNK     0       0.985  -0.061   0.113  0.00  0.00     0.096 A 
HETATM   27  C   UNK     0       0.166   0.743   0.904  0.00  0.00     0.084 A 
HETATM   28  C   UNK     0       2.073   0.499  -0.559  0.00  0.00     0.075 A 
HETATM   29  C   UNK     0      -0.972   0.128   1.604  0.00  0.00     0.223 A 
HETATM   30  C   UNK     0       0.428   2.110   1.029  0.00  0.00     0.085 A 
HETATM   31  O   UNK     0      -1.722   0.782   2.316  0.00  0.00    -0.284 OA
HETATM   32  C   UNK     0       1.517   2.667   0.356  0.00  0.00     0.074 A 
HETATM   33  C   UNK     0       2.337   1.863  -0.437  0.00  0.00     0.071 A 
BRANCH  24  34
HETATM   34  C   UNK     0      -0.410  -3.437   0.349  0.00  0.00     0.004 A 
HETATM   35  C   UNK     0       0.010  -4.348   1.318  0.00  0.00     0.053 A 
HETATM   36  C   UNK     0      -0.094  -5.718   1.079  0.00  0.00     0.099 A 
HETATM   37  C   UNK     0      -0.616  -6.178  -0.130  0.00  0.00     0.098 A 
HETATM   38  C   UNK     0      -1.035  -5.267  -1.100  0.00  0.00     0.040 A 
HETATM   39  C   UNK     0      -0.933  -3.897  -0.860  0.00  0.00     0.017 A 
BRANCH  36  40
HETATM   40  O   UNK     0       0.322  -6.599   2.033  0.00  0.00    -0.358 OA
HETATM   41  H   UNK     0       1.248  -6.841   1.872  0.00  0.00     0.217 HD
ENDBRANCH  36  40
BRANCH  37  42
HETATM   42  O   UNK     0      -0.722  -7.514  -0.375  0.00  0.00    -0.358 OA
HETATM   43  H   UNK     0      -1.557  -7.848  -0.010  0.00  0.00     0.217 HD
ENDBRANCH  37  42
ENDBRANCH  24  34
BRANCH  30  44
HETATM   44  O   UNK     0      -0.340   2.938   1.789  0.00  0.00    -0.360 OA
HETATM   45  H   UNK     0      -1.216   3.037   1.378  0.00  0.00     0.217 HD
ENDBRANCH  30  44
BRANCH  33  46
HETATM   46  O   UNK     0       3.397   2.411  -1.091  0.00  0.00    -0.361 OA
HETATM   47  H   UNK     0       4.125   1.766  -1.108  0.00  0.00     0.217 HD
ENDBRANCH  33  46
ENDBRANCH  22  23
ENDBRANCH   6  22
BRANCH   3  48
HETATM   48  O   UNK     0      -2.212  -3.101   7.449  0.00  0.00    -0.390 OA
HETATM   49  H   UNK     0      -1.605  -2.362   7.620  0.00  0.00     0.210 HD
ENDBRANCH   3  48
BRANCH   5  50
HETATM   50  O   UNK     0      -3.936  -0.527   3.788  0.00  0.00    -0.388 OA
HETATM   51  H   UNK     0      -3.692   0.098   4.491  0.00  0.00     0.210 HD
ENDBRANCH   5  50
BRANCH   4  52
HETATM   52  O   UNK     0      -4.611  -2.095   6.190  0.00  0.00    -0.390 OA
HETATM   53  H   UNK     0      -4.535  -2.024   7.157  0.00  0.00     0.210 HD
ENDBRANCH   4  52
TORSDOF 16
ENDMDL
MODEL 5
REMARK VINA RESULT:      -5.7      1.451      2.269
REMARK  16 active torsions:
REMARK  status: ('A' for Active; 'I' for Inactive)
REMARK    1  A    between atoms: O_2  and  C_22 
REMARK    2  A    between atoms: O_2  and  C_26 
REMARK    3  A    between atoms: O_4  and  C_18 
REMARK    4  A    between atoms: O_5  and  C_19 
REMARK    5  A    between atoms: O_6  and  C_25 
REMARK    6  A    between atoms: O_6  and  C_29 
REMARK    7  A    between atoms: O_7  and  C_20 
REMARK    8  A    between atoms: O_8  and  C_21 
REMARK    9  A    between atoms: O_9  and  C_23 
REMARK   10  A    between atoms: O_10  and  C_24 
REMARK   11  A    between atoms: O_13  and  C_35 
REMARK   12  A    between atoms: O_14  and  C_40 
REMARK   13  A    between atoms: O_15  and  C_41 
REMARK   14  A    between atoms: O_16  and  C_43 
REMARK   15  A    between atoms: C_17  and  C_26 
REMARK   16  A    between atoms: C_30  and  C_33 
ROOT
HETATM    1  O   UNK     0       0.126  -2.703   3.154  0.00  0.00    -0.348 OA
HETATM    2  C   UNK     0       0.563  -2.713   4.515  0.00  0.00     0.180 C 
HETATM    3  C   UNK     0      -0.509  -3.350   5.402  0.00  0.00     0.180 C 
HETATM    4  C   UNK     0      -1.847  -2.629   5.240  0.00  0.00     0.183 C 
HETATM    5  C   UNK     0      -2.213  -2.466   3.764  0.00  0.00     0.205 C 
HETATM    6  C   UNK     0      -1.040  -1.906   2.960  0.00  0.00     0.298 C 
ENDROOT
BRANCH   2   7
HETATM    7  C   UNK     0       1.876  -3.487   4.570  0.00  0.00     0.205 C 
BRANCH   7   8
HETATM    8  O   UNK     0       1.625  -4.788   5.080  0.00  0.00    -0.356 OA
BRANCH   8   9
HETATM    9  C   UNK     0       1.646  -5.765   4.045  0.00  0.00     0.291 C 
HETATM   10  O   UNK     0       1.511  -7.097   4.550  0.00  0.00    -0.351 OA
HETATM   11  C   UNK     0       2.593  -7.521   5.386  0.00  0.00     0.152 C 
HETATM   12  C   UNK     0       3.927  -7.469   4.628  0.00  0.00     0.178 C 
HETATM   13  C   UNK     0       2.262  -8.932   5.864  0.00  0.00     0.042 C 
HETATM   14  C   UNK     0       4.145  -6.074   4.042  0.00  0.00     0.183 C 
HETATM   15  C   UNK     0       2.930  -5.625   3.228  0.00  0.00     0.204 C 
BRANCH  12  16
HETATM   16  O   UNK     0       5.009  -7.752   5.513  0.00  0.00    -0.390 OA
HETATM   17  H   UNK     0       4.753  -8.512   6.063  0.00  0.00     0.210 HD
ENDBRANCH  12  16
BRANCH  14  18
HETATM   18  O   UNK     0       5.305  -6.088   3.213  0.00  0.00    -0.390 OA
HETATM   19  H   UNK     0       5.867  -5.338   3.476  0.00  0.00     0.210 HD
ENDBRANCH  14  18
BRANCH  15  20
HETATM   20  O   UNK     0       2.795  -6.441   2.064  0.00  0.00    -0.388 OA
HETATM   21  H   UNK     0       2.958  -7.366   2.317  0.00  0.00     0.210 HD
ENDBRANCH  15  20
ENDBRANCH   8   9
ENDBRANCH   7   8
ENDBRANCH   2   7
BRANCH   6  22
HETATM   22  O   UNK     0      -1.407  -1.917   1.581  0.00  0.00    -0.311 OA
BRANCH  22  23
HETATM   23  C   UNK     0      -0.334  -1.624   0.768  0.00  0.00     0.157 A 
HETATM   24  C   UNK     0       0.215  -2.517  -0.075  0.00  0.00     0.124 A 
HETATM   25  O   UNK     0       1.314  -2.265  -0.882  0.00  0.00    -0.306 OA
HETATM   26  C   UNK     0       1.880  -1.017  -0.844  0.00  0.00     0.096 A 
HETATM   27  C   UNK     0       1.405   0.003  -0.023  0.00  0.00     0.084 A 
HETATM   28  C   UNK     0       2.978  -0.791  -1.675  0.00  0.00     0.075 A 
HETATM   29  C   UNK     0       0.248  -0.263   0.845  0.00  0.00     0.223 A 
HETATM   30  C   UNK     0       2.023   1.257  -0.025  0.00  0.00     0.085 A 
HETATM   31  O   UNK     0      -0.209   0.593   1.592  0.00  0.00    -0.284 OA
HETATM   32  C   UNK     0       3.122   1.480  -0.857  0.00  0.00     0.074 A 
HETATM   33  C   UNK     0       3.598   0.459  -1.680  0.00  0.00     0.071 A 
BRANCH  24  34
HETATM   34  C   UNK     0      -0.294  -3.894  -0.212  0.00  0.00     0.004 A 
HETATM   35  C   UNK     0      -0.907  -4.297  -1.398  0.00  0.00     0.053 A 
HETATM   36  C   UNK     0      -1.387  -5.599  -1.529  0.00  0.00     0.099 A 
HETATM   37  C   UNK     0      -1.255  -6.500  -0.472  0.00  0.00     0.098 A 
HETATM   38  C   UNK     0      -0.642  -6.098   0.714  0.00  0.00     0.040 A 
HETATM   39  C   UNK     0      -0.161  -4.796   0.844  0.00  0.00     0.017 A 
BRANCH  36  40
HETATM   40  O   UNK     0      -1.986  -5.980  -2.692  0.00  0.00    -0.358 OA
HETATM   41  H   UNK     0      -2.189  -6.929  -2.659  0.00  0.00     0.217 HD
ENDBRANCH  36  40
BRANCH  37  42
HETATM   42  O   UNK     0      -1.719  -7.776  -0.588  0.00  0.00    -0.358 OA
HETATM   43  H   UNK     0      -0.985  -8.402  -0.487  0.00  0.00     0.217 HD
ENDBRANCH  37  42
ENDBRANCH  24  34
BRANCH  30  44
HETATM   44  O   UNK     0       1.600   2.286   0.758  0.00  0.00    -0.360 OA
HETATM   45  H   UNK     0       0.653   2.177   0.954  0.00  0.00     0.217 HD
ENDBRANCH  30  44
BRANCH  33  46
HETATM   46  O   UNK     0       4.669   0.682  -2.490  0.00  0.00    -0.361 OA
HETATM   47  H   UNK     0       5.085  -0.170  -2.705  0.00  0.00     0.217 HD
ENDBRANCH  33  46
ENDBRANCH  22  23
ENDBRANCH   6  22
BRANCH   3  48
HETATM   48  O   UNK     0      -0.097  -3.277   6.765  0.00  0.00    -0.390 OA
HETATM   49  H   UNK     0      -0.792  -3.683   7.311  0.00  0.00     0.210 HD
ENDBRANCH   3  48
BRANCH   5  50
HETATM   50  O   UNK     0      -3.310  -1.561   3.645  0.00  0.00    -0.388 OA
HETATM   51  H   UNK     0      -4.055  -1.920   4.156  0.00  0.00     0.210 HD
ENDBRANCH   5  50
BRANCH   4  52
HETATM   52  O   UNK     0      -2.851  -3.408   5.895  0.00  0.00    -0.390 OA
HETATM   53  H   UNK     0      -3.334  -2.814   6.494  0.00  0.00     0.210 HD
ENDBRANCH   4  52
TORSDOF 16
ENDMDL
MODEL 6
REMARK VINA RESULT:      -5.6      1.622      4.867
REMARK  16 active torsions:
REMARK  status: ('A' for Active; 'I' for Inactive)
REMARK    1  A    between atoms: O_2  and  C_22 
REMARK    2  A    between atoms: O_2  and  C_26 
REMARK    3  A    between atoms: O_4  and  C_18 
REMARK    4  A    between atoms: O_5  and  C_19 
REMARK    5  A    between atoms: O_6  and  C_25 
REMARK    6  A    between atoms: O_6  and  C_29 
REMARK    7  A    between atoms: O_7  and  C_20 
REMARK    8  A    between atoms: O_8  and  C_21 
REMARK    9  A    between atoms: O_9  and  C_23 
REMARK   10  A    between atoms: O_10  and  C_24 
REMARK   11  A    between atoms: O_13  and  C_35 
REMARK   12  A    between atoms: O_14  and  C_40 
REMARK   13  A    between atoms: O_15  and  C_41 
REMARK   14  A    between atoms: O_16  and  C_43 
REMARK   15  A    between atoms: C_17  and  C_26 
REMARK   16  A    between atoms: C_30  and  C_33 
ROOT
HETATM    1  O   UNK     0       1.772  -1.954   0.619  0.00  0.00    -0.348 OA
HETATM    2  C   UNK     0       3.198  -1.879   0.654  0.00  0.00     0.180 C 
HETATM    3  C   UNK     0       3.655  -0.470   0.268  0.00  0.00     0.180 C 
HETATM    4  C   UNK     0       3.099  -0.075  -1.100  0.00  0.00     0.183 C 
HETATM    5  C   UNK     0       1.595  -0.334  -1.182  0.00  0.00     0.205 C 
HETATM    6  C   UNK     0       1.245  -1.738  -0.688  0.00  0.00     0.298 C 
ENDROOT
BRANCH   2   7
HETATM    7  C   UNK     0       3.643  -2.251   2.065  0.00  0.00     0.205 C 
BRANCH   7   8
HETATM    8  O   UNK     0       3.128  -3.533   2.389  0.00  0.00    -0.356 OA
BRANCH   8   9
HETATM    9  C   UNK     0       3.546  -3.950   3.685  0.00  0.00     0.291 C 
HETATM   10  O   UNK     0       4.860  -4.517   3.678  0.00  0.00    -0.351 OA
HETATM   11  C   UNK     0       4.973  -5.727   2.921  0.00  0.00     0.152 C 
HETATM   12  C   UNK     0       4.028  -6.808   3.466  0.00  0.00     0.178 C 
HETATM   13  C   UNK     0       6.435  -6.160   2.987  0.00  0.00     0.042 C 
HETATM   14  C   UNK     0       2.596  -6.276   3.519  0.00  0.00     0.183 C 
HETATM   15  C   UNK     0       2.534  -4.940   4.261  0.00  0.00     0.204 C 
BRANCH  12  16
HETATM   16  O   UNK     0       4.046  -7.953   2.616  0.00  0.00    -0.390 OA
HETATM   17  H   UNK     0       4.973  -8.210   2.481  0.00  0.00     0.210 HD
ENDBRANCH  12  16
BRANCH  14  18
HETATM   18  O   UNK     0       1.764  -7.233   4.171  0.00  0.00    -0.390 OA
HETATM   19  H   UNK     0       0.920  -7.270   3.688  0.00  0.00     0.210 HD
ENDBRANCH  14  18
BRANCH  15  20
HETATM   20  O   UNK     0       2.852  -5.133   5.640  0.00  0.00    -0.388 OA
HETATM   21  H   UNK     0       2.403  -5.940   5.948  0.00  0.00     0.210 HD
ENDBRANCH  15  20
ENDBRANCH   8   9
ENDBRANCH   7   8
ENDBRANCH   2   7
BRANCH   6  22
HETATM   22  O   UNK     0      -0.177  -1.852  -0.660  0.00  0.00    -0.311 OA
BRANCH  22  23
HETATM   23  C   UNK     0      -0.650  -1.975   0.628  0.00  0.00     0.157 A 
HETATM   24  C   UNK     0      -0.920  -3.161   1.202  0.00  0.00     0.124 A 
HETATM   25  O   UNK     0      -1.427  -3.318   2.483  0.00  0.00    -0.306 OA
HETATM   26  C   UNK     0      -1.657  -2.196   3.237  0.00  0.00     0.096 A 
HETATM   27  C   UNK     0      -1.412  -0.908   2.768  0.00  0.00     0.084 A 
HETATM   28  C   UNK     0      -2.158  -2.387   4.526  0.00  0.00     0.075 A 
HETATM   29  C   UNK     0      -0.886  -0.734   1.405  0.00  0.00     0.223 A 
HETATM   30  C   UNK     0      -1.666   0.200   3.582  0.00  0.00     0.085 A 
HETATM   31  O   UNK     0      -0.658   0.373   0.937  0.00  0.00    -0.284 OA
HETATM   32  C   UNK     0      -2.167   0.007   4.870  0.00  0.00     0.074 A 
HETATM   33  C   UNK     0      -2.412  -1.283   5.341  0.00  0.00     0.071 A 
BRANCH  24  34
HETATM   34  C   UNK     0      -0.722  -4.443   0.503  0.00  0.00     0.004 A 
HETATM   35  C   UNK     0      -1.302  -4.652  -0.749  0.00  0.00     0.053 A 
HETATM   36  C   UNK     0      -1.113  -5.864  -1.412  0.00  0.00     0.099 A 
HETATM   37  C   UNK     0      -0.345  -6.869  -0.823  0.00  0.00     0.098 A 
HETATM   38  C   UNK     0       0.234  -6.660   0.428  0.00  0.00     0.040 A 
HETATM   39  C   UNK     0       0.046  -5.448   1.090  0.00  0.00     0.017 A 
BRANCH  36  40
HETATM   40  O   UNK     0      -1.686  -6.057  -2.633  0.00  0.00    -0.358 OA
HETATM   41  H   UNK     0      -1.010  -5.987  -3.326  0.00  0.00     0.217 HD
ENDBRANCH  36  40
BRANCH  37  42
HETATM   42  O   UNK     0      -0.154  -8.057  -1.462  0.00  0.00    -0.358 OA
HETATM   43  H   UNK     0      -0.999  -8.527  -1.540  0.00  0.00     0.217 HD
ENDBRANCH  37  42
ENDBRANCH  24  34
BRANCH  30  44
HETATM   44  O   UNK     0      -1.445   1.479   3.172  0.00  0.00    -0.360 OA
HETATM   45  H   UNK     0      -0.963   1.471   2.326  0.00  0.00     0.217 HD
ENDBRANCH  30  44
BRANCH  33  46
HETATM   46  O   UNK     0      -2.901  -1.467   6.598  0.00  0.00    -0.361 OA
HETATM   47  H   UNK     0      -2.387  -2.166   7.038  0.00  0.00     0.217 HD
ENDBRANCH  33  46
ENDBRANCH  22  23
ENDBRANCH   6  22
BRANCH   3  48
HETATM   48  O   UNK     0       5.080  -0.432   0.226  0.00  0.00    -0.390 OA
HETATM   49  H   UNK     0       5.413  -1.286   0.549  0.00  0.00     0.210 HD
ENDBRANCH   3  48
BRANCH   5  50
HETATM   50  O   UNK     0       1.167  -0.216  -2.539  0.00  0.00    -0.388 OA
HETATM   51  H   UNK     0       0.442   0.431  -2.571  0.00  0.00     0.210 HD
ENDBRANCH   5  50
BRANCH   4  52
HETATM   52  O   UNK     0       3.353   1.318  -1.294  0.00  0.00    -0.390 OA
HETATM   53  H   UNK     0       4.263   1.492  -1.000  0.00  0.00     0.210 HD
ENDBRANCH   4  52
TORSDOF 16
ENDMDL
MODEL 7
REMARK VINA RESULT:      -5.6      3.015      5.197
REMARK  16 active torsions:
REMARK  status: ('A' for Active; 'I' for Inactive)
REMARK    1  A    between atoms: O_2  and  C_22 
REMARK    2  A    between atoms: O_2  and  C_26 
REMARK    3  A    between atoms: O_4  and  C_18 
REMARK    4  A    between atoms: O_5  and  C_19 
REMARK    5  A    between atoms: O_6  and  C_25 
REMARK    6  A    between atoms: O_6  and  C_29 
REMARK    7  A    between atoms: O_7  and  C_20 
REMARK    8  A    between atoms: O_8  and  C_21 
REMARK    9  A    between atoms: O_9  and  C_23 
REMARK   10  A    between atoms: O_10  and  C_24 
REMARK   11  A    between atoms: O_13  and  C_35 
REMARK   12  A    between atoms: O_14  and  C_40 
REMARK   13  A    between atoms: O_15  and  C_41 
REMARK   14  A    between atoms: O_16  and  C_43 
REMARK   15  A    between atoms: C_17  and  C_26 
REMARK   16  A    between atoms: C_30  and  C_33 
ROOT
HETATM    1  O   UNK     0      -0.664  -0.990   2.884  0.00  0.00    -0.348 OA
HETATM    2  C   UNK     0      -1.428  -1.909   3.668  0.00  0.00     0.180 C 
HETATM    3  C   UNK     0      -2.797  -2.133   3.021  0.00  0.00     0.180 C 
HETATM    4  C   UNK     0      -3.530  -0.806   2.828  0.00  0.00     0.183 C 
HETATM    5  C   UNK     0      -2.633   0.229   2.148  0.00  0.00     0.205 C 
HETATM    6  C   UNK     0      -1.262   0.303   2.822  0.00  0.00     0.298 C 
ENDROOT
BRANCH   2   7
HETATM    7  C   UNK     0      -0.629  -3.205   3.763  0.00  0.00     0.205 C 
BRANCH   7   8
HETATM    8  O   UNK     0      -0.979  -4.046   2.675  0.00  0.00    -0.356 OA
BRANCH   8   9
HETATM    9  C   UNK     0       0.176  -4.565   2.024  0.00  0.00     0.291 C 
HETATM   10  O   UNK     0       0.676  -3.682   1.015  0.00  0.00    -0.351 OA
HETATM   11  C   UNK     0      -0.221  -3.478  -0.082  0.00  0.00     0.152 C 
HETATM   12  C   UNK     0      -0.550  -4.805  -0.780  0.00  0.00     0.178 C 
HETATM   13  C   UNK     0       0.451  -2.486  -1.029  0.00  0.00     0.042 C 
HETATM   14  C   UNK     0      -1.083  -5.815   0.237  0.00  0.00     0.183 C 
HETATM   15  C   UNK     0      -0.137  -5.939   1.433  0.00  0.00     0.204 C 
BRANCH  12  16
HETATM   16  O   UNK     0      -1.553  -4.605  -1.773  0.00  0.00    -0.390 OA
HETATM   17  H   UNK     0      -1.109  -4.341  -2.597  0.00  0.00     0.210 HD
ENDBRANCH  12  16
BRANCH  14  18
HETATM   18  O   UNK     0      -1.233  -7.084  -0.396  0.00  0.00    -0.390 OA
HETATM   19  H   UNK     0      -2.080  -7.078  -0.875  0.00  0.00     0.210 HD
ENDBRANCH  14  18
BRANCH  15  20
HETATM   20  O   UNK     0       1.098  -6.526   1.020  0.00  0.00    -0.388 OA
HETATM   21  H   UNK     0       1.500  -6.967   1.788  0.00  0.00     0.210 HD
ENDBRANCH  15  20
ENDBRANCH   8   9
ENDBRANCH   7   8
ENDBRANCH   2   7
BRANCH   6  22
HETATM   22  O   UNK     0      -0.439   1.177   2.049  0.00  0.00    -0.311 OA
BRANCH  22  23
HETATM   23  C   UNK     0       0.459   1.859   2.840  0.00  0.00     0.157 A 
HETATM   24  C   UNK     0       1.788   1.659   2.782  0.00  0.00     0.124 A 
HETATM   25  O   UNK     0       2.716   2.304   3.586  0.00  0.00    -0.306 OA
HETATM   26  C   UNK     0       2.265   3.227   4.494  0.00  0.00     0.096 A 
HETATM   27  C   UNK     0       0.916   3.535   4.651  0.00  0.00     0.084 A 
HETATM   28  C   UNK     0       3.224   3.866   5.281  0.00  0.00     0.075 A 
HETATM   29  C   UNK     0      -0.075   2.844   3.811  0.00  0.00     0.223 A 
HETATM   30  C   UNK     0       0.514   4.484   5.595  0.00  0.00     0.085 A 
HETATM   31  O   UNK     0      -1.274   3.070   3.908  0.00  0.00    -0.284 OA
HETATM   32  C   UNK     0       1.475   5.122   6.381  0.00  0.00     0.074 A 
HETATM   33  C   UNK     0       2.826   4.814   6.224  0.00  0.00     0.071 A 
BRANCH  24  34
HETATM   34  C   UNK     0       2.405   0.696   1.853  0.00  0.00     0.004 A 
HETATM   35  C   UNK     0       2.618  -0.623   2.255  0.00  0.00     0.053 A 
HETATM   36  C   UNK     0       3.200  -1.536   1.376  0.00  0.00     0.099 A 
HETATM   37  C   UNK     0       3.570  -1.130   0.094  0.00  0.00     0.098 A 
HETATM   38  C   UNK     0       3.358   0.188  -0.308  0.00  0.00     0.040 A 
HETATM   39  C   UNK     0       2.775   1.101   0.571  0.00  0.00     0.017 A 
BRANCH  36  40
HETATM   40  O   UNK     0       3.405  -2.821   1.782  0.00  0.00    -0.358 OA
HETATM   41  H   UNK     0       2.600  -3.343   1.631  0.00  0.00     0.217 HD
ENDBRANCH  36  40
BRANCH  37  42
HETATM   42  O   UNK     0       4.139  -2.013  -0.774  0.00  0.00    -0.358 OA
HETATM   43  H   UNK     0       5.097  -1.863  -0.812  0.00  0.00     0.217 HD
ENDBRANCH  37  42
ENDBRANCH  24  34
BRANCH  30  44
HETATM   44  O   UNK     0      -0.791   4.821   5.789  0.00  0.00    -0.360 OA
HETATM   45  H   UNK     0      -1.228   4.936   4.928  0.00  0.00     0.217 HD
ENDBRANCH  30  44
BRANCH  33  46
HETATM   46  O   UNK     0       3.760   5.439   6.993  0.00  0.00    -0.361 OA
HETATM   47  H   UNK     0       3.489   5.383   7.926  0.00  0.00     0.217 HD
ENDBRANCH  33  46
ENDBRANCH  22  23
ENDBRANCH   6  22
BRANCH   3  48
HETATM   48  O   UNK     0      -3.578  -2.985   3.855  0.00  0.00    -0.390 OA
HETATM   49  H   UNK     0      -3.639  -2.573   4.733  0.00  0.00     0.210 HD
ENDBRANCH   3  48
BRANCH   5  50
HETATM   50  O   UNK     0      -3.244   1.515   2.233  0.00  0.00    -0.388 OA
HETATM   51  H   UNK     0      -3.271   1.896   1.339  0.00  0.00     0.210 HD
ENDBRANCH   5  50
BRANCH   4  52
HETATM   52  O   UNK     0      -4.677  -1.050   2.012  0.00  0.00    -0.390 OA
HETATM   53  H   UNK     0      -4.781  -2.013   1.936  0.00  0.00     0.210 HD
ENDBRANCH   4  52
TORSDOF 16
ENDMDL
MODEL 8
REMARK VINA RESULT:      -5.5      1.886      6.524
REMARK  16 active torsions:
REMARK  status: ('A' for Active; 'I' for Inactive)
REMARK    1  A    between atoms: O_2  and  C_22 
REMARK    2  A    between atoms: O_2  and  C_26 
REMARK    3  A    between atoms: O_4  and  C_18 
REMARK    4  A    between atoms: O_5  and  C_19 
REMARK    5  A    between atoms: O_6  and  C_25 
REMARK    6  A    between atoms: O_6  and  C_29 
REMARK    7  A    between atoms: O_7  and  C_20 
REMARK    8  A    between atoms: O_8  and  C_21 
REMARK    9  A    between atoms: O_9  and  C_23 
REMARK   10  A    between atoms: O_10  and  C_24 
REMARK   11  A    between atoms: O_13  and  C_35 
REMARK   12  A    between atoms: O_14  and  C_40 
REMARK   13  A    between atoms: O_15  and  C_41 
REMARK   14  A    between atoms: O_16  and  C_43 
REMARK   15  A    between atoms: C_17  and  C_26 
REMARK   16  A    between atoms: C_30  and  C_33 
ROOT
HETATM    1  O   UNK     0       0.857  -1.349   2.252  0.00  0.00    -0.348 OA
HETATM    2  C   UNK     0       0.560   0.020   1.972  0.00  0.00     0.180 C 
HETATM    3  C   UNK     0       0.327   0.207   0.470  0.00  0.00     0.180 C 
HETATM    4  C   UNK     0       1.531  -0.289  -0.331  0.00  0.00     0.183 C 
HETATM    5  C   UNK     0       1.952  -1.691   0.110  0.00  0.00     0.205 C 
HETATM    6  C   UNK     0       2.066  -1.783   1.632  0.00  0.00     0.298 C 
ENDROOT
BRANCH   2   7
HETATM    7  C   UNK     0      -0.674   0.398   2.786  0.00  0.00     0.205 C 
BRANCH   7   8
HETATM    8  O   UNK     0      -1.531  -0.730   2.876  0.00  0.00    -0.356 OA
BRANCH   8   9
HETATM    9  C   UNK     0      -2.901  -0.352   2.785  0.00  0.00     0.291 C 
HETATM   10  O   UNK     0      -3.378   0.263   3.986  0.00  0.00    -0.351 OA
HETATM   11  C   UNK     0      -3.380  -0.601   5.126  0.00  0.00     0.152 C 
HETATM   12  C   UNK     0      -4.261  -1.835   4.882  0.00  0.00     0.178 C 
HETATM   13  C   UNK     0      -3.872   0.225   6.312  0.00  0.00     0.042 C 
HETATM   14  C   UNK     0      -3.822  -2.548   3.602  0.00  0.00     0.183 C 
HETATM   15  C   UNK     0      -3.750  -1.570   2.428  0.00  0.00     0.204 C 
BRANCH  12  16
HETATM   16  O   UNK     0      -4.137  -2.753   5.966  0.00  0.00    -0.390 OA
HETATM   17  H   UNK     0      -4.971  -3.249   6.034  0.00  0.00     0.210 HD
ENDBRANCH  12  16
BRANCH  14  18
HETATM   18  O   UNK     0      -4.746  -3.594   3.307  0.00  0.00    -0.390 OA
HETATM   19  H   UNK     0      -4.803  -3.674   2.339  0.00  0.00     0.210 HD
ENDBRANCH  14  18
BRANCH  15  20
HETATM   20  O   UNK     0      -5.060  -1.106   2.099  0.00  0.00    -0.388 OA
HETATM   21  H   UNK     0      -5.463  -1.737   1.479  0.00  0.00     0.210 HD
ENDBRANCH  15  20
ENDBRANCH   8   9
ENDBRANCH   7   8
ENDBRANCH   2   7
BRANCH   6  22
HETATM   22  O   UNK     0       2.318  -3.146   1.972  0.00  0.00    -0.311 OA
BRANCH  22  23
HETATM   23  C   UNK     0       1.554  -3.552   3.043  0.00  0.00     0.157 A 
HETATM   24  C   UNK     0       0.409  -4.245   2.909  0.00  0.00     0.124 A 
HETATM   25  O   UNK     0      -0.400  -4.640   3.964  0.00  0.00    -0.306 OA
HETATM   26  C   UNK     0      -0.010  -4.327   5.240  0.00  0.00     0.096 A 
HETATM   27  C   UNK     0       1.158  -3.621   5.521  0.00  0.00     0.084 A 
HETATM   28  C   UNK     0      -0.839  -4.746   6.281  0.00  0.00     0.075 A 
HETATM   29  C   UNK     0       2.013  -3.187   4.405  0.00  0.00     0.223 A 
HETATM   30  C   UNK     0       1.505  -3.328   6.843  0.00  0.00     0.085 A 
HETATM   31  O   UNK     0       3.047  -2.559   4.590  0.00  0.00    -0.284 OA
HETATM   32  C   UNK     0       0.673  -3.749   7.882  0.00  0.00     0.074 A 
HETATM   33  C   UNK     0      -0.496  -4.457   7.601  0.00  0.00     0.071 A 
BRANCH  24  34
HETATM   34  C   UNK     0      -0.126  -4.644   1.595  0.00  0.00     0.004 A 
HETATM   35  C   UNK     0       0.126  -5.923   1.098  0.00  0.00     0.053 A 
HETATM   36  C   UNK     0      -0.381  -6.302  -0.145  0.00  0.00     0.099 A 
HETATM   37  C   UNK     0      -1.140  -5.401  -0.892  0.00  0.00     0.098 A 
HETATM   38  C   UNK     0      -1.392  -4.122  -0.396  0.00  0.00     0.040 A 
HETATM   39  C   UNK     0      -0.885  -3.744   0.847  0.00  0.00     0.017 A 
BRANCH  36  40
HETATM   40  O   UNK     0      -0.127  -7.553  -0.620  0.00  0.00    -0.358 OA
HETATM   41  H   UNK     0      -0.595  -7.685  -1.461  0.00  0.00     0.217 HD
ENDBRANCH  36  40
BRANCH  37  42
HETATM   42  O   UNK     0      -1.641  -5.759  -2.107  0.00  0.00    -0.358 OA
HETATM   43  H   UNK     0      -0.973  -6.258  -2.603  0.00  0.00     0.217 HD
ENDBRANCH  37  42
ENDBRANCH  24  34
BRANCH  30  44
HETATM   44  O   UNK     0       2.633  -2.641   7.171  0.00  0.00    -0.360 OA
HETATM   45  H   UNK     0       3.394  -3.247   7.174  0.00  0.00     0.217 HD
ENDBRANCH  30  44
BRANCH  33  46
HETATM   46  O   UNK     0      -1.303  -4.865   8.618  0.00  0.00    -0.361 OA
HETATM   47  H   UNK     0      -1.592  -5.777   8.445  0.00  0.00     0.217 HD
ENDBRANCH  33  46
ENDBRANCH  22  23
ENDBRANCH   6  22
BRANCH   3  48
HETATM   48  O   UNK     0       0.114   1.589   0.195  0.00  0.00    -0.390 OA
HETATM   49  H   UNK     0       0.497   1.784  -0.677  0.00  0.00     0.210 HD
ENDBRANCH   3  48
BRANCH   5  50
HETATM   50  O   UNK     0       3.224  -2.004  -0.454  0.00  0.00    -0.388 OA
HETATM   51  H   UNK     0       3.392  -2.951  -0.313  0.00  0.00     0.210 HD
ENDBRANCH   5  50
BRANCH   4  52
HETATM   52  O   UNK     0       1.162  -0.315  -1.711  0.00  0.00    -0.390 OA
HETATM   53  H   UNK     0       0.391   0.268  -1.818  0.00  0.00     0.210 HD
ENDBRANCH   4  52
TORSDOF 16
ENDMDL
MODEL 9
REMARK VINA RESULT:      -5.5      1.737      6.999
REMARK  16 active torsions:
REMARK  status: ('A' for Active; 'I' for Inactive)
REMARK    1  A    between atoms: O_2  and  C_22 
REMARK    2  A    between atoms: O_2  and  C_26 
REMARK    3  A    between atoms: O_4  and  C_18 
REMARK    4  A    between atoms: O_5  and  C_19 
REMARK    5  A    between atoms: O_6  and  C_25 
REMARK    6  A    between atoms: O_6  and  C_29 
REMARK    7  A    between atoms: O_7  and  C_20 
REMARK    8  A    between atoms: O_8  and  C_21 
REMARK    9  A    between atoms: O_9  and  C_23 
REMARK   10  A    between atoms: O_10  and  C_24 
REMARK   11  A    between atoms: O_13  and  C_35 
REMARK   12  A    between atoms: O_14  and  C_40 
REMARK   13  A    between atoms: O_15  and  C_41 
REMARK   14  A    between atoms: O_16  and  C_43 
REMARK   15  A    between atoms: C_17  and  C_26 
REMARK   16  A    between atoms: C_30  and  C_33 
ROOT
HETATM    1  O   UNK     0       2.640  -2.302   1.314  0.00  0.00    -0.348 OA
HETATM    2  C   UNK     0       3.130  -0.967   1.178  0.00  0.00     0.180 C 
HETATM    3  C   UNK     0       4.564  -0.990   0.643  0.00  0.00     0.180 C 
HETATM    4  C   UNK     0       5.465  -1.837   1.542  0.00  0.00     0.183 C 
HETATM    5  C   UNK     0       4.838  -3.201   1.827  0.00  0.00     0.205 C 
HETATM    6  C   UNK     0       3.380  -3.062   2.267  0.00  0.00     0.298 C 
ENDROOT
BRANCH   2   7
HETATM    7  C   UNK     0       2.187  -0.226   0.235  0.00  0.00     0.205 C 
BRANCH   7   8
HETATM    8  O   UNK     0       0.848  -0.448   0.652  0.00  0.00    -0.356 OA
BRANCH   8   9
HETATM    9  C   UNK     0       0.398   0.582   1.527  0.00  0.00     0.291 C 
HETATM   10  O   UNK     0       0.790   0.354   2.885  0.00  0.00    -0.351 OA
HETATM   11  C   UNK     0       0.212  -0.815   3.474  0.00  0.00     0.152 C 
HETATM   12  C   UNK     0      -1.321  -0.738   3.464  0.00  0.00     0.178 C 
HETATM   13  C   UNK     0       0.770  -0.923   4.891  0.00  0.00     0.042 C 
HETATM   14  C   UNK     0      -1.825  -0.483   2.043  0.00  0.00     0.183 C 
HETATM   15  C   UNK     0      -1.120   0.723   1.420  0.00  0.00     0.204 C 
BRANCH  12  16
HETATM   16  O   UNK     0      -1.880  -1.968   3.919  0.00  0.00    -0.390 OA
HETATM   17  H   UNK     0      -1.681  -2.054   4.867  0.00  0.00     0.210 HD
ENDBRANCH  12  16
BRANCH  14  18
HETATM   18  O   UNK     0      -3.233  -0.258   2.078  0.00  0.00    -0.390 OA
HETATM   19  H   UNK     0      -3.437   0.216   2.903  0.00  0.00     0.210 HD
ENDBRANCH  14  18
BRANCH  15  20
HETATM   20  O   UNK     0      -1.495   1.917   2.109  0.00  0.00    -0.388 OA
HETATM   21  H   UNK     0      -1.892   2.530   1.467  0.00  0.00     0.210 HD
ENDBRANCH  15  20
ENDBRANCH   8   9
ENDBRANCH   7   8
ENDBRANCH   2   7
BRANCH   6  22
HETATM   22  O   UNK     0       2.826  -4.372   2.374  0.00  0.00    -0.311 OA
BRANCH  22  23
HETATM   23  C   UNK     0       1.900  -4.450   3.391  0.00  0.00     0.157 A 
HETATM   24  C   UNK     0       0.582  -4.608   3.174  0.00  0.00     0.124 A 
HETATM   25  O   UNK     0      -0.379  -4.657   4.173  0.00  0.00    -0.306 OA
HETATM   26  C   UNK     0       0.028  -4.558   5.478  0.00  0.00     0.096 A 
HETATM   27  C   UNK     0       1.364  -4.400   5.842  0.00  0.00     0.084 A 
HETATM   28  C   UNK     0      -0.961  -4.621   6.460  0.00  0.00     0.075 A 
HETATM   29  C   UNK     0       2.386  -4.334   4.787  0.00  0.00     0.223 A 
HETATM   30  C   UNK     0       1.721  -4.303   7.190  0.00  0.00     0.085 A 
HETATM   31  O   UNK     0       3.574  -4.190   5.046  0.00  0.00    -0.284 OA
HETATM   32  C   UNK     0       0.729  -4.367   8.171  0.00  0.00     0.074 A 
HETATM   33  C   UNK     0      -0.608  -4.526   7.807  0.00  0.00     0.071 A 
BRANCH  24  34
HETATM   34  C   UNK     0       0.010  -4.725   1.821  0.00  0.00     0.004 A 
HETATM   35  C   UNK     0      -0.075  -5.974   1.205  0.00  0.00     0.053 A 
HETATM   36  C   UNK     0      -0.618  -6.085  -0.075  0.00  0.00     0.099 A 
HETATM   37  C   UNK     0      -1.075  -4.948  -0.740  0.00  0.00     0.098 A 
HETATM   38  C   UNK     0      -0.989  -3.699  -0.125  0.00  0.00     0.040 A 
HETATM   39  C   UNK     0      -0.447  -3.588   1.155  0.00  0.00     0.017 A 
BRANCH  36  40
HETATM   40  O   UNK     0      -0.695  -7.311  -0.667  0.00  0.00    -0.358 OA
HETATM   41  H   UNK     0      -0.643  -7.211  -1.631  0.00  0.00     0.217 HD
ENDBRANCH  36  40
BRANCH  37  42
HETATM   42  O   UNK     0      -1.607  -5.044  -1.990  0.00  0.00    -0.358 OA
HETATM   43  H   UNK     0      -2.153  -5.843  -2.053  0.00  0.00     0.217 HD
ENDBRANCH  37  42
ENDBRANCH  24  34
BRANCH  30  44
HETATM   44  O   UNK     0       3.010  -4.147   7.599  0.00  0.00    -0.360 OA
HETATM   45  H   UNK     0       3.023  -3.763   8.493  0.00  0.00     0.217 HD
ENDBRANCH  30  44
BRANCH  33  46
HETATM   46  O   UNK     0      -1.571  -4.586   8.767  0.00  0.00    -0.361 OA
HETATM   47  H   UNK     0      -2.416  -4.830   8.351  0.00  0.00     0.217 HD
ENDBRANCH  33  46
ENDBRANCH  22  23
ENDBRANCH   6  22
BRANCH   3  48
HETATM   48  O   UNK     0       5.069   0.342   0.591  0.00  0.00    -0.390 OA
HETATM   49  H   UNK     0       4.966   0.668  -0.319  0.00  0.00     0.210 HD
ENDBRANCH   3  48
BRANCH   5  50
HETATM   50  O   UNK     0       5.562  -3.847   2.873  0.00  0.00    -0.388 OA
HETATM   51  H   UNK     0       4.935  -4.067   3.583  0.00  0.00     0.210 HD
ENDBRANCH   5  50
BRANCH   4  52
HETATM   52  O   UNK     0       6.713  -2.019   0.870  0.00  0.00    -0.390 OA
HETATM   53  H   UNK     0       7.419  -1.820   1.508  0.00  0.00     0.210 HD
ENDBRANCH   4  52
TORSDOF 16
ENDMDL
MODEL 10
REMARK VINA RESULT:      -5.4      2.210      4.721
REMARK  16 active torsions:
REMARK  status: ('A' for Active; 'I' for Inactive)
REMARK    1  A    between atoms: O_2  and  C_22 
REMARK    2  A    between atoms: O_2  and  C_26 
REMARK    3  A    between atoms: O_4  and  C_18 
REMARK    4  A    between atoms: O_5  and  C_19 
REMARK    5  A    between atoms: O_6  and  C_25 
REMARK    6  A    between atoms: O_6  and  C_29 
REMARK    7  A    between atoms: O_7  and  C_20 
REMARK    8  A    between atoms: O_8  and  C_21 
REMARK    9  A    between atoms: O_9  and  C_23 
REMARK   10  A    between atoms: O_10  and  C_24 
REMARK   11  A    between atoms: O_13  and  C_35 
REMARK   12  A    between atoms: O_14  and  C_40 
REMARK   13  A    between atoms: O_15  and  C_41 
REMARK   14  A    between atoms: O_16  and  C_43 
REMARK   15  A    between atoms: C_17  and  C_26 
REMARK   16  A    between atoms: C_30  and  C_33 
ROOT
HETATM    1  O   UNK     0       0.588  -2.471   1.752  0.00  0.00    -0.348 OA
HETATM    2  C   UNK     0      -0.762  -2.522   2.215  0.00  0.00     0.180 C 
HETATM    3  C   UNK     0      -1.494  -3.696   1.561  0.00  0.00     0.180 C 
HETATM    4  C   UNK     0      -1.421  -3.600   0.037  0.00  0.00     0.183 C 
HETATM    5  C   UNK     0       0.014  -3.363  -0.434  0.00  0.00     0.205 C 
HETATM    6  C   UNK     0       0.675  -2.228   0.349  0.00  0.00     0.298 C 
ENDROOT
BRANCH   2   7
HETATM    7  C   UNK     0      -0.721  -2.657   3.734  0.00  0.00     0.205 C 
BRANCH   7   8
HETATM    8  O   UNK     0       0.478  -3.320   4.107  0.00  0.00    -0.356 OA
BRANCH   8   9
HETATM    9  C   UNK     0       0.316  -4.734   4.097  0.00  0.00     0.291 C 
HETATM   10  O   UNK     0       0.664  -5.333   5.349  0.00  0.00    -0.351 OA
HETATM   11  C   UNK     0       2.043  -5.190   5.704  0.00  0.00     0.152 C 
HETATM   12  C   UNK     0       2.954  -5.825   4.644  0.00  0.00     0.178 C 
HETATM   13  C   UNK     0       2.221  -5.842   7.074  0.00  0.00     0.042 C 
HETATM   14  C   UNK     0       2.637  -5.246   3.265  0.00  0.00     0.183 C 
HETATM   15  C   UNK     0       1.141  -5.340   2.962  0.00  0.00     0.204 C 
BRANCH  12  16
HETATM   16  O   UNK     0       4.321  -5.549   4.938  0.00  0.00    -0.390 OA
HETATM   17  H   UNK     0       4.634  -4.883   4.302  0.00  0.00     0.210 HD
ENDBRANCH  12  16
BRANCH  14  18
HETATM   18  O   UNK     0       3.378  -5.957   2.275  0.00  0.00    -0.390 OA
HETATM   19  H   UNK     0       4.320  -5.900   2.513  0.00  0.00     0.210 HD
ENDBRANCH  14  18
BRANCH  15  20
HETATM   20  O   UNK     0       0.756  -6.709   2.827  0.00  0.00    -0.388 OA
HETATM   21  H   UNK     0       0.681  -6.915   1.880  0.00  0.00     0.210 HD
ENDBRANCH  15  20
ENDBRANCH   8   9
ENDBRANCH   7   8
ENDBRANCH   2   7
BRANCH   6  22
HETATM   22  O   UNK     0       2.046  -2.163  -0.044  0.00  0.00    -0.311 OA
BRANCH  22  23
HETATM   23  C   UNK     0       2.476  -0.861  -0.171  0.00  0.00     0.157 A 
HETATM   24  C   UNK     0       3.271  -0.258   0.732  0.00  0.00     0.124 A 
HETATM   25  O   UNK     0       3.695   1.059   0.651  0.00  0.00    -0.306 OA
HETATM   26  C   UNK     0       3.300   1.808  -0.427  0.00  0.00     0.096 A 
HETATM   27  C   UNK     0       2.484   1.306  -1.438  0.00  0.00     0.084 A 
HETATM   28  C   UNK     0       3.751   3.128  -0.485  0.00  0.00     0.075 A 
HETATM   29  C   UNK     0       2.021  -0.088  -1.351  0.00  0.00     0.223 A 
HETATM   30  C   UNK     0       2.113   2.117  -2.514  0.00  0.00     0.085 A 
HETATM   31  O   UNK     0       1.298  -0.582  -2.206  0.00  0.00    -0.284 OA
HETATM   32  C   UNK     0       2.565   3.436  -2.569  0.00  0.00     0.074 A 
HETATM   33  C   UNK     0       3.383   3.940  -1.558  0.00  0.00     0.071 A 
BRANCH  24  34
HETATM   34  C   UNK     0       3.765  -0.948   1.937  0.00  0.00     0.004 A 
HETATM   35  C   UNK     0       2.992  -0.962   3.099  0.00  0.00     0.053 A 
HETATM   36  C   UNK     0       3.459  -1.616   4.239  0.00  0.00     0.099 A 
HETATM   37  C   UNK     0       4.698  -2.254   4.219  0.00  0.00     0.098 A 
HETATM   38  C   UNK     0       5.472  -2.239   3.058  0.00  0.00     0.040 A 
HETATM   39  C   UNK     0       5.005  -1.587   1.918  0.00  0.00     0.017 A 
BRANCH  36  40
HETATM   40  O   UNK     0       2.695  -1.622   5.368  0.00  0.00    -0.358 OA
HETATM   41  H   UNK     0       1.780  -1.854   5.142  0.00  0.00     0.217 HD
ENDBRANCH  36  40
BRANCH  37  42
HETATM   42  O   UNK     0       5.164  -2.896   5.326  0.00  0.00    -0.358 OA
HETATM   43  H   UNK     0       6.106  -3.101   5.214  0.00  0.00     0.217 HD
ENDBRANCH  37  42
ENDBRANCH  24  34
BRANCH  30  44
HETATM   44  O   UNK     0       1.317   1.675  -3.526  0.00  0.00    -0.360 OA
HETATM   45  H   UNK     0       0.487   1.326  -3.159  0.00  0.00     0.217 HD
ENDBRANCH  30  44
BRANCH  33  46
HETATM   46  O   UNK     0       3.821   5.227  -1.616  0.00  0.00    -0.361 OA
HETATM   47  H   UNK     0       3.095   5.820  -1.358  0.00  0.00     0.217 HD
ENDBRANCH  33  46
ENDBRANCH  22  23
ENDBRANCH   6  22
BRANCH   3  48
HETATM   48  O   UNK     0      -2.860  -3.685   1.968  0.00  0.00    -0.390 OA
HETATM   49  H   UNK     0      -3.035  -4.507   2.457  0.00  0.00     0.210 HD
ENDBRANCH   3  48
BRANCH   5  50
HETATM   50  O   UNK     0       0.007  -3.008  -1.816  0.00  0.00    -0.388 OA
HETATM   51  H   UNK     0      -0.919  -2.939  -2.105  0.00  0.00     0.210 HD
ENDBRANCH   5  50
BRANCH   4  52
HETATM   52  O   UNK     0      -1.902  -4.831  -0.506  0.00  0.00    -0.390 OA
HETATM   53  H   UNK     0      -1.208  -5.499  -0.373  0.00  0.00     0.210 HD
ENDBRANCH   4  52
TORSDOF 16
ENDMDL
