REMARK  Name = 159278
REMARK                            x       y       z     vdW  Elec       q    Type
REMARK                         _______ _______ _______ _____ _____    ______ ____
ROOT
ATOM      1  O   LIG    1       -1.487  -0.851   0.214  0.00  0.00    -0.341 OA
ATOM      2  C   LIG    1       -1.328   0.351   0.965  0.00  0.00    +0.282 C 
ATOM      3  C   LIG    1       -1.847   1.550   0.172  0.00  0.00    +0.201 C 
ATOM      4  C   LIG    1       -3.287   1.329  -0.293  0.00  0.00    +0.179 C 
ATOM      5  C   LIG    1       -3.451  -0.041  -0.952  0.00  0.00    +0.177 C 
ATOM     23  C   LIG    1       -2.856  -1.142  -0.072  0.00  0.00    +0.178 C 
ENDROOT
BRANCH   5   6
ATOM      6  O   LIG    1       -4.837  -0.301  -1.159  0.00  0.00    -0.386 OA
ATOM      7  H   LIG    1       -5.273  -0.318  -0.290  0.00  0.00    +0.210 HD
ENDBRANCH   5   6
BRANCH   4   8
ATOM      8  O   LIG    1       -3.635   2.326  -1.254  0.00  0.00    -0.386 OA
ATOM      9  H   LIG    1       -4.548   2.150  -1.539  0.00  0.00    +0.210 HD
ENDBRANCH   4   8
BRANCH   3  10
ATOM     10  O   LIG    1       -1.794   2.701   1.015  0.00  0.00    -0.384 OA
ATOM     11  H   LIG    1       -2.365   2.538   1.785  0.00  0.00    +0.210 HD
ENDBRANCH   3  10
BRANCH   2  12
ATOM     12  O   LIG    1        0.055   0.570   1.237  0.00  0.00    -0.348 OA
BRANCH  12  13
ATOM     13  C   LIG    1        0.613  -0.507   1.975  0.00  0.00    +0.168 C 
BRANCH  13  14
ATOM     14  C   LIG    1        2.085  -0.230   2.258  0.00  0.00    +0.063 C 
BRANCH  14  15
ATOM     15  C   LIG    1        2.900  -0.111   0.993  0.00  0.00    -0.045 A 
ATOM     16  C   LIG    1        3.049   1.131   0.396  0.00  0.00    +0.007 A 
ATOM     17  C   LIG    1        3.802   1.242  -0.773  0.00  0.00    +0.045 A 
ATOM     18  C   LIG    1        4.396   0.110  -1.329  0.00  0.00    +0.117 A 
ATOM     19  C   LIG    1        4.237  -1.134  -0.717  0.00  0.00    +0.045 A 
ATOM     22  C   LIG    1        3.484  -1.244   0.452  0.00  0.00    +0.007 A 
BRANCH  18  20
ATOM     20  O   LIG    1        5.131   0.217  -2.470  0.00  0.00    -0.507 OA
ATOM     21  H   LIG    1        5.467  -0.663  -2.712  0.00  0.00    +0.292 HD
ENDBRANCH  18  20
ENDBRANCH  14  15
ENDBRANCH  13  14
ENDBRANCH  12  13
ENDBRANCH   2  12
BRANCH  23  24
ATOM     24  C   LIG    1       -2.902  -2.502  -0.760  0.00  0.00    +0.190 C 
BRANCH  24  25
ATOM     25  O   LIG    1       -2.328  -3.465   0.104  0.00  0.00    -0.392 OA
ATOM     26  H   LIG    1       -1.419  -3.181   0.299  0.00  0.00    +0.210 HD
ENDBRANCH  24  25
ENDBRANCH  23  24
TORSDOF 10
