MODEL 1
REMARK VINA RESULT:      -8.1      0.000      0.000
REMARK  Name = 5280637
REMARK                            x       y       z     vdW  Elec       q    Type
REMARK                         _______ _______ _______ _____ _____    ______ ____
ROOT
ATOM     13  C   LIG    1       13.170  19.387   1.355  0.00  0.00    +0.131 A 
ATOM     14  C   LIG    1       13.024  19.221  -0.023  0.00  0.00    +0.092 A 
ATOM     15  C   LIG    1       12.527  18.021  -0.535  0.00  0.00    +0.135 A 
ATOM     16  C   LIG    1       12.178  16.990   0.340  0.00  0.00    +0.105 A 
ATOM     17  C   LIG    1       11.653  15.715  -0.170  0.00  0.00    +0.197 A 
ATOM     18  C   LIG    1       11.315  14.695   0.844  0.00  0.00    +0.098 A 
ATOM     19  C   LIG    1       11.495  14.977   2.144  0.00  0.00    +0.139 A 
ATOM     30  O   LIG    1       11.997  16.177   2.622  0.00  0.00    -0.454 OA
ATOM     31  O   LIG    1       11.503  15.501  -1.365  0.00  0.00    -0.287 OA
ATOM     32  C   LIG    1       12.323  17.156   1.717  0.00  0.00    +0.146 A 
ATOM     35  C   LIG    1       12.820  18.355   2.226  0.00  0.00    +0.093 A 
ENDROOT
BRANCH  19  20
ATOM     20  C   LIG    1       11.182  13.994   3.202  0.00  0.00    +0.021 A 
ATOM     21  C   LIG    1       10.120  14.222   4.079  0.00  0.00    +0.015 A 
ATOM     22  C   LIG    1        9.825  13.295   5.078  0.00  0.00    +0.050 A 
ATOM     23  C   LIG    1       10.593  12.136   5.203  0.00  0.00    +0.158 A 
ATOM     24  C   LIG    1       11.656  11.907   4.329  0.00  0.00    +0.159 A 
ATOM     29  C   LIG    1       11.950  12.834   3.330  0.00  0.00    +0.060 A 
BRANCH  24  25
ATOM     25  O   LIG    1       12.411  10.778   4.441  0.00  0.00    -0.503 OA
ATOM     26  H   LIG    1       13.296  10.966   4.088  0.00  0.00    +0.292 HD
ENDBRANCH  24  25
BRANCH  23  27
ATOM     27  O   LIG    1       10.296  11.239   6.184  0.00  0.00    -0.503 OA
ATOM     28  H   LIG    1       10.999  10.567   6.223  0.00  0.00    +0.292 HD
ENDBRANCH  23  27
ENDBRANCH  19  20
BRANCH  15  33
ATOM     33  O   LIG    1       12.404  17.908  -1.887  0.00  0.00    -0.506 OA
ATOM     34  H   LIG    1       12.444  16.978  -2.156  0.00  0.00    +0.292 HD
ENDBRANCH  15  33
BRANCH  13  12
ATOM     12  O   LIG    1       13.657  20.561   1.851  0.00  0.00    -0.461 OA
BRANCH  12   2
ATOM      1  O   LIG    1       15.925  20.890   2.287  0.00  0.00    -0.331 OA
ATOM      2  C   LIG    1       14.895  21.018   1.309  0.00  0.00    +0.339 C 
ATOM      3  C   LIG    1       14.719  22.482   0.905  0.00  0.00    +0.214 C 
ATOM      4  C   LIG    1       16.044  23.097   0.452  0.00  0.00    +0.180 C 
ATOM      5  C   LIG    1       17.162  22.799   1.451  0.00  0.00    +0.177 C 
ATOM     36  C   LIG    1       17.200  21.309   1.797  0.00  0.00    +0.179 C 
BRANCH   5   6
ATOM      6  O   LIG    1       18.414  23.184   0.887  0.00  0.00    -0.386 OA
ATOM      7  H   LIG    1       18.249  23.506  -0.016  0.00  0.00    +0.210 HD
ENDBRANCH   5   6
BRANCH   4   8
ATOM      8  O   LIG    1       15.902  24.515   0.355  0.00  0.00    -0.386 OA
ATOM      9  H   LIG    1       15.092  24.759   0.836  0.00  0.00    +0.210 HD
ENDBRANCH   4   8
BRANCH   3  10
ATOM     10  O   LIG    1       13.780  22.540  -0.168  0.00  0.00    -0.383 OA
ATOM     11  H   LIG    1       13.273  21.710  -0.170  0.00  0.00    +0.210 HD
ENDBRANCH   3  10
BRANCH  36  37
ATOM     37  C   LIG    1       18.231  21.007   2.880  0.00  0.00    +0.190 C 
BRANCH  37  38
ATOM     38  O   LIG    1       18.341  22.138   3.725  0.00  0.00    -0.392 OA
ATOM     39  H   LIG    1       17.492  22.246   4.187  0.00  0.00    +0.210 HD
ENDBRANCH  37  38
ENDBRANCH  36  37
ENDBRANCH  12   2
ENDBRANCH  13  12
TORSDOF 11
ENDMDL
MODEL 2
REMARK VINA RESULT:      -7.7     32.243     35.470
REMARK  Name = 5280637
REMARK                            x       y       z     vdW  Elec       q    Type
REMARK                         _______ _______ _______ _____ _____    ______ ____
ROOT
ATOM     13  C   LIG    1       32.333  24.714  29.407  0.00  0.00    +0.131 A 
ATOM     14  C   LIG    1       31.522  25.286  28.426  0.00  0.00    +0.092 A 
ATOM     15  C   LIG    1       30.133  25.246  28.554  0.00  0.00    +0.135 A 
ATOM     16  C   LIG    1       29.561  24.631  29.670  0.00  0.00    +0.105 A 
ATOM     17  C   LIG    1       28.100  24.572  29.831  0.00  0.00    +0.197 A 
ATOM     18  C   LIG    1       27.605  23.898  31.050  0.00  0.00    +0.098 A 
ATOM     19  C   LIG    1       28.487  23.391  31.925  0.00  0.00    +0.139 A 
ATOM     30  O   LIG    1       29.863  23.441  31.766  0.00  0.00    -0.454 OA
ATOM     31  O   LIG    1       27.332  25.050  29.009  0.00  0.00    -0.287 OA
ATOM     32  C   LIG    1       30.370  24.059  30.651  0.00  0.00    +0.146 A 
ATOM     35  C   LIG    1       31.758  24.099  30.520  0.00  0.00    +0.093 A 
ENDROOT
BRANCH  19  20
ATOM     20  C   LIG    1       28.050  22.699  33.156  0.00  0.00    +0.021 A 
ATOM     21  C   LIG    1       26.791  22.099  33.212  0.00  0.00    +0.015 A 
ATOM     22  C   LIG    1       26.378  21.447  34.374  0.00  0.00    +0.050 A 
ATOM     23  C   LIG    1       27.224  21.394  35.483  0.00  0.00    +0.158 A 
ATOM     24  C   LIG    1       28.482  21.994  35.429  0.00  0.00    +0.159 A 
ATOM     29  C   LIG    1       28.895  22.646  34.266  0.00  0.00    +0.060 A 
BRANCH  24  25
ATOM     25  O   LIG    1       29.317  21.947  36.505  0.00  0.00    -0.503 OA
ATOM     26  H   LIG    1       29.880  22.739  36.490  0.00  0.00    +0.292 HD
ENDBRANCH  24  25
BRANCH  23  27
ATOM     27  O   LIG    1       26.809  20.755  36.612  0.00  0.00    -0.503 OA
ATOM     28  H   LIG    1       25.843  20.844  36.690  0.00  0.00    +0.292 HD
ENDBRANCH  23  27
ENDBRANCH  19  20
BRANCH  15  33
ATOM     33  O   LIG    1       29.385  25.819  27.569  0.00  0.00    -0.506 OA
ATOM     34  H   LIG    1       29.952  26.302  26.950  0.00  0.00    +0.292 HD
ENDBRANCH  15  33
BRANCH  13  12
ATOM     12  O   LIG    1       33.690  24.755  29.277  0.00  0.00    -0.461 OA
BRANCH  12   2
ATOM      1  O   LIG    1       34.926  26.710  29.582  0.00  0.00    -0.331 OA
ATOM      2  C   LIG    1       34.398  25.553  30.225  0.00  0.00    +0.339 C 
ATOM      3  C   LIG    1       35.526  24.700  30.806  0.00  0.00    +0.214 C 
ATOM      4  C   LIG    1       36.431  25.525  31.723  0.00  0.00    +0.180 C 
ATOM      5  C   LIG    1       36.846  26.837  31.056  0.00  0.00    +0.177 C 
ATOM     36  C   LIG    1       35.628  27.566  30.486  0.00  0.00    +0.179 C 
BRANCH   5   6
ATOM      6  O   LIG    1       37.489  27.671  32.016  0.00  0.00    -0.386 OA
ATOM      7  H   LIG    1       37.160  28.578  31.894  0.00  0.00    +0.210 HD
ENDBRANCH   5   6
BRANCH   4   8
ATOM      8  O   LIG    1       37.615  24.783  32.016  0.00  0.00    -0.386 OA
ATOM      9  H   LIG    1       37.426  24.229  32.794  0.00  0.00    +0.210 HD
ENDBRANCH   4   8
BRANCH   3  10
ATOM     10  O   LIG    1       34.943  23.633  31.553  0.00  0.00    -0.383 OA
ATOM     11  H   LIG    1       34.255  23.221  31.002  0.00  0.00    +0.210 HD
ENDBRANCH   3  10
BRANCH  36  37
ATOM     37  C   LIG    1       36.031  28.818  29.713  0.00  0.00    +0.190 C 
BRANCH  37  38
ATOM     38  O   LIG    1       36.399  29.822  30.642  0.00  0.00    -0.392 OA
ATOM     39  H   LIG    1       37.370  29.868  30.658  0.00  0.00    +0.210 HD
ENDBRANCH  37  38
ENDBRANCH  36  37
ENDBRANCH  12   2
ENDBRANCH  13  12
TORSDOF 11
ENDMDL
MODEL 3
REMARK VINA RESULT:      -7.6     31.448     36.640
REMARK  Name = 5280637
REMARK                            x       y       z     vdW  Elec       q    Type
REMARK                         _______ _______ _______ _____ _____    ______ ____
ROOT
ATOM     13  C   LIG    1       33.321  26.088  28.140  0.00  0.00    +0.131 A 
ATOM     14  C   LIG    1       32.488  25.826  29.227  0.00  0.00    +0.092 A 
ATOM     15  C   LIG    1       32.936  26.060  30.528  0.00  0.00    +0.135 A 
ATOM     16  C   LIG    1       34.224  26.559  30.733  0.00  0.00    +0.105 A 
ATOM     17  C   LIG    1       34.725  26.814  32.092  0.00  0.00    +0.197 A 
ATOM     18  C   LIG    1       36.101  27.343  32.191  0.00  0.00    +0.098 A 
ATOM     19  C   LIG    1       36.805  27.561  31.069  0.00  0.00    +0.139 A 
ATOM     30  O   LIG    1       36.332  27.312  29.790  0.00  0.00    -0.454 OA
ATOM     31  O   LIG    1       34.049  26.603  33.089  0.00  0.00    -0.287 OA
ATOM     32  C   LIG    1       35.059  26.822  29.647  0.00  0.00    +0.146 A 
ATOM     35  C   LIG    1       34.608  26.587  28.349  0.00  0.00    +0.093 A 
ENDROOT
BRANCH  19  20
ATOM     20  C   LIG    1       38.187  28.081  31.108  0.00  0.00    +0.021 A 
ATOM     21  C   LIG    1       39.268  27.206  30.980  0.00  0.00    +0.015 A 
ATOM     22  C   LIG    1       40.574  27.696  31.017  0.00  0.00    +0.050 A 
ATOM     23  C   LIG    1       40.801  29.063  31.182  0.00  0.00    +0.158 A 
ATOM     24  C   LIG    1       39.723  29.938  31.311  0.00  0.00    +0.159 A 
ATOM     29  C   LIG    1       38.417  29.448  31.274  0.00  0.00    +0.060 A 
BRANCH  24  25
ATOM     25  O   LIG    1       39.934  31.275  31.471  0.00  0.00    -0.503 OA
ATOM     26  H   LIG    1       40.848  31.474  31.206  0.00  0.00    +0.292 HD
ENDBRANCH  24  25
BRANCH  23  27
ATOM     27  O   LIG    1       42.080  29.529  31.218  0.00  0.00    -0.503 OA
ATOM     28  H   LIG    1       42.471  29.454  30.330  0.00  0.00    +0.292 HD
ENDBRANCH  23  27
ENDBRANCH  19  20
BRANCH  15  33
ATOM     33  O   LIG    1       32.084  25.786  31.555  0.00  0.00    -0.506 OA
ATOM     34  H   LIG    1       31.166  25.784  31.244  0.00  0.00    +0.292 HD
ENDBRANCH  15  33
BRANCH  13  12
ATOM     12  O   LIG    1       32.879  25.857  26.871  0.00  0.00    -0.461 OA
BRANCH  12   2
ATOM      1  O   LIG    1       33.575  26.445  24.723  0.00  0.00    -0.331 OA
ATOM      2  C   LIG    1       33.879  25.659  25.873  0.00  0.00    +0.339 C 
ATOM      3  C   LIG    1       33.897  24.172  25.515  0.00  0.00    +0.214 C 
ATOM      4  C   LIG    1       34.838  23.894  24.342  0.00  0.00    +0.180 C 
ATOM      5  C   LIG    1       34.587  24.865  23.189  0.00  0.00    +0.177 C 
ATOM     36  C   LIG    1       34.556  26.310  23.693  0.00  0.00    +0.179 C 
BRANCH   5   6
ATOM      6  O   LIG    1       35.625  24.726  22.221  0.00  0.00    -0.386 OA
ATOM      7  H   LIG    1       35.578  23.824  21.860  0.00  0.00    +0.210 HD
ENDBRANCH   5   6
BRANCH   4   8
ATOM      8  O   LIG    1       34.617  22.567  23.860  0.00  0.00    -0.386 OA
ATOM      9  H   LIG    1       35.351  22.015  24.181  0.00  0.00    +0.210 HD
ENDBRANCH   4   8
BRANCH   3  10
ATOM     10  O   LIG    1       34.337  23.441  26.659  0.00  0.00    -0.383 OA
ATOM     11  H   LIG    1       34.261  22.493  26.459  0.00  0.00    +0.210 HD
ENDBRANCH   3  10
BRANCH  36  37
ATOM     37  C   LIG    1       34.191  27.287  22.580  0.00  0.00    +0.190 C 
BRANCH  37  38
ATOM     38  O   LIG    1       33.437  26.595  21.601  0.00  0.00    -0.392 OA
ATOM     39  H   LIG    1       33.975  25.847  21.289  0.00  0.00    +0.210 HD
ENDBRANCH  37  38
ENDBRANCH  36  37
ENDBRANCH  12   2
ENDBRANCH  13  12
TORSDOF 11
ENDMDL
MODEL 4
REMARK VINA RESULT:      -7.2     26.531     30.785
REMARK  Name = 5280637
REMARK                            x       y       z     vdW  Elec       q    Type
REMARK                         _______ _______ _______ _____ _____    ______ ____
ROOT
ATOM     13  C   LIG    1       29.054  33.272  18.347  0.00  0.00    +0.131 A 
ATOM     14  C   LIG    1       28.019  33.290  17.412  0.00  0.00    +0.092 A 
ATOM     15  C   LIG    1       27.424  34.498  17.047  0.00  0.00    +0.135 A 
ATOM     16  C   LIG    1       27.873  35.689  17.623  0.00  0.00    +0.105 A 
ATOM     17  C   LIG    1       27.265  36.977  17.259  0.00  0.00    +0.197 A 
ATOM     18  C   LIG    1       27.819  38.172  17.929  0.00  0.00    +0.098 A 
ATOM     19  C   LIG    1       28.822  38.027  18.809  0.00  0.00    +0.139 A 
ATOM     30  O   LIG    1       29.388  36.810  19.156  0.00  0.00    -0.454 OA
ATOM     31  O   LIG    1       26.352  37.064  16.450  0.00  0.00    -0.287 OA
ATOM     32  C   LIG    1       28.908  35.672  18.557  0.00  0.00    +0.146 A 
ATOM     35  C   LIG    1       29.500  34.463  18.921  0.00  0.00    +0.093 A 
ENDROOT
BRANCH  19  20
ATOM     20  C   LIG    1       29.409  39.185  19.515  0.00  0.00    +0.021 A 
ATOM     21  C   LIG    1       30.285  40.043  18.847  0.00  0.00    +0.015 A 
ATOM     22  C   LIG    1       30.840  41.135  19.514  0.00  0.00    +0.050 A 
ATOM     23  C   LIG    1       30.520  41.371  20.851  0.00  0.00    +0.158 A 
ATOM     24  C   LIG    1       29.647  40.515  21.521  0.00  0.00    +0.159 A 
ATOM     29  C   LIG    1       29.092  39.423  20.854  0.00  0.00    +0.060 A 
BRANCH  24  25
ATOM     25  O   LIG    1       29.327  40.737  22.827  0.00  0.00    -0.503 OA
ATOM     26  H   LIG    1       29.819  41.518  23.134  0.00  0.00    +0.292 HD
ENDBRANCH  24  25
BRANCH  23  27
ATOM     27  O   LIG    1       31.070  42.440  21.492  0.00  0.00    -0.503 OA
ATOM     28  H   LIG    1       31.610  42.946  20.860  0.00  0.00    +0.292 HD
ENDBRANCH  23  27
ENDBRANCH  19  20
BRANCH  15  33
ATOM     33  O   LIG    1       26.417  34.462  16.130  0.00  0.00    -0.506 OA
ATOM     34  H   LIG    1       26.753  34.675  15.247  0.00  0.00    +0.292 HD
ENDBRANCH  15  33
BRANCH  13  12
ATOM     12  O   LIG    1       29.631  32.088  18.701  0.00  0.00    -0.461 OA
BRANCH  12   2
ATOM      1  O   LIG    1       31.040  31.339  20.403  0.00  0.00    -0.331 OA
ATOM      2  C   LIG    1       29.734  31.821  20.099  0.00  0.00    +0.339 C 
ATOM      3  C   LIG    1       28.679  30.773  20.455  0.00  0.00    +0.214 C 
ATOM      4  C   LIG    1       28.818  30.316  21.908  0.00  0.00    +0.180 C 
ATOM      5  C   LIG    1       30.267  29.960  22.241  0.00  0.00    +0.177 C 
ATOM     36  C   LIG    1       31.216  31.076  21.796  0.00  0.00    +0.179 C 
BRANCH   5   6
ATOM      6  O   LIG    1       30.395  29.765  23.647  0.00  0.00    -0.386 OA
ATOM      7  H   LIG    1       30.053  28.880  23.859  0.00  0.00    +0.210 HD
ENDBRANCH   5   6
BRANCH   4   8
ATOM      8  O   LIG    1       28.017  29.153  22.120  0.00  0.00    -0.386 OA
ATOM      9  H   LIG    1       27.767  28.809  21.245  0.00  0.00    +0.210 HD
ENDBRANCH   4   8
BRANCH   3  10
ATOM     10  O   LIG    1       27.389  31.351  20.262  0.00  0.00    -0.383 OA
ATOM     11  H   LIG    1       27.253  32.023  20.953  0.00  0.00    +0.210 HD
ENDBRANCH   3  10
BRANCH  36  37
ATOM     37  C   LIG    1       32.677  30.692  22.011  0.00  0.00    +0.190 C 
BRANCH  37  38
ATOM     38  O   LIG    1       33.119  31.264  23.228  0.00  0.00    -0.392 OA
ATOM     39  H   LIG    1       33.147  30.556  23.895  0.00  0.00    +0.210 HD
ENDBRANCH  37  38
ENDBRANCH  36  37
ENDBRANCH  12   2
ENDBRANCH  13  12
TORSDOF 11
ENDMDL
MODEL 5
REMARK VINA RESULT:      -7.2     20.505     24.099
REMARK  Name = 5280637
REMARK                            x       y       z     vdW  Elec       q    Type
REMARK                         _______ _______ _______ _____ _____    ______ ____
ROOT
ATOM     13  C   LIG    1       14.530  15.988  23.140  0.00  0.00    +0.131 A 
ATOM     14  C   LIG    1       15.667  15.433  22.554  0.00  0.00    +0.092 A 
ATOM     15  C   LIG    1       16.483  14.569  23.285  0.00  0.00    +0.135 A 
ATOM     16  C   LIG    1       16.153  14.265  24.608  0.00  0.00    +0.105 A 
ATOM     17  C   LIG    1       16.995  13.360  25.405  0.00  0.00    +0.197 A 
ATOM     18  C   LIG    1       16.550  13.107  26.791  0.00  0.00    +0.098 A 
ATOM     19  C   LIG    1       15.432  13.697  27.241  0.00  0.00    +0.139 A 
ATOM     30  O   LIG    1       14.645  14.556  26.490  0.00  0.00    -0.454 OA
ATOM     31  O   LIG    1       18.006  12.842  24.954  0.00  0.00    -0.287 OA
ATOM     32  C   LIG    1       15.016  14.819  25.195  0.00  0.00    +0.146 A 
ATOM     35  C   LIG    1       14.203  15.682  24.462  0.00  0.00    +0.093 A 
ENDROOT
BRANCH  19  20
ATOM     20  C   LIG    1       14.944  13.488  28.620  0.00  0.00    +0.021 A 
ATOM     21  C   LIG    1       13.766  12.773  28.846  0.00  0.00    +0.015 A 
ATOM     22  C   LIG    1       13.305  12.578  30.148  0.00  0.00    +0.050 A 
ATOM     23  C   LIG    1       14.022  13.095  31.227  0.00  0.00    +0.158 A 
ATOM     24  C   LIG    1       15.199  13.810  31.004  0.00  0.00    +0.159 A 
ATOM     29  C   LIG    1       15.660  14.006  29.702  0.00  0.00    +0.060 A 
BRANCH  24  25
ATOM     25  O   LIG    1       15.908  14.319  32.051  0.00  0.00    -0.503 OA
ATOM     26  H   LIG    1       16.844  14.086  31.928  0.00  0.00    +0.292 HD
ENDBRANCH  24  25
BRANCH  23  27
ATOM     27  O   LIG    1       13.561  12.898  32.494  0.00  0.00    -0.503 OA
ATOM     28  H   LIG    1       13.008  12.098  32.509  0.00  0.00    +0.292 HD
ENDBRANCH  23  27
ENDBRANCH  19  20
BRANCH  15  33
ATOM     33  O   LIG    1       17.582  14.054  22.667  0.00  0.00    -0.506 OA
ATOM     34  H   LIG    1       17.473  14.076  21.705  0.00  0.00    +0.292 HD
ENDBRANCH  15  33
BRANCH  13  12
ATOM     12  O   LIG    1       13.735  16.832  22.421  0.00  0.00    -0.461 OA
BRANCH  12   2
ATOM      1  O   LIG    1       12.063  15.274  21.952  0.00  0.00    -0.331 OA
ATOM      2  C   LIG    1       12.332  16.578  22.462  0.00  0.00    +0.339 C 
ATOM      3  C   LIG    1       11.637  17.640  21.610  0.00  0.00    +0.214 C 
ATOM      4  C   LIG    1       10.141  17.354  21.475  0.00  0.00    +0.180 C 
ATOM      5  C   LIG    1        9.889  15.899  21.083  0.00  0.00    +0.177 C 
ATOM     36  C   LIG    1       10.673  14.947  21.989  0.00  0.00    +0.179 C 
BRANCH   5   6
ATOM      6  O   LIG    1        8.496  15.615  21.193  0.00  0.00    -0.386 OA
ATOM      7  H   LIG    1        8.071  16.368  21.638  0.00  0.00    +0.210 HD
ENDBRANCH   5   6
BRANCH   4   8
ATOM      8  O   LIG    1        9.586  18.190  20.458  0.00  0.00    -0.386 OA
ATOM      9  H   LIG    1        9.565  19.098  20.808  0.00  0.00    +0.210 HD
ENDBRANCH   4   8
BRANCH   3  10
ATOM     10  O   LIG    1       11.822  18.909  22.236  0.00  0.00    -0.383 OA
ATOM     11  H   LIG    1       12.418  18.787  22.995  0.00  0.00    +0.210 HD
ENDBRANCH   3  10
BRANCH  36  37
ATOM     37  C   LIG    1       10.530  13.496  21.543  0.00  0.00    +0.190 C 
BRANCH  37  38
ATOM     38  O   LIG    1       10.351  13.472  20.138  0.00  0.00    -0.392 OA
ATOM     39  H   LIG    1       11.170  13.804  19.731  0.00  0.00    +0.210 HD
ENDBRANCH  37  38
ENDBRANCH  36  37
ENDBRANCH  12   2
ENDBRANCH  13  12
TORSDOF 11
ENDMDL
MODEL 6
REMARK VINA RESULT:      -7.2      3.732      5.157
REMARK  Name = 5280637
REMARK                            x       y       z     vdW  Elec       q    Type
REMARK                         _______ _______ _______ _____ _____    ______ ____
ROOT
ATOM     13  C   LIG    1       12.970  18.523   0.888  0.00  0.00    +0.131 A 
ATOM     14  C   LIG    1       12.780  17.217   0.436  0.00  0.00    +0.092 A 
ATOM     15  C   LIG    1       11.734  16.445   0.942  0.00  0.00    +0.135 A 
ATOM     16  C   LIG    1       10.879  16.988   1.904  0.00  0.00    +0.105 A 
ATOM     17  C   LIG    1        9.769  16.198   2.458  0.00  0.00    +0.197 A 
ATOM     18  C   LIG    1        8.928  16.873   3.467  0.00  0.00    +0.098 A 
ATOM     19  C   LIG    1        9.208  18.138   3.817  0.00  0.00    +0.139 A 
ATOM     30  O   LIG    1       10.260  18.878   3.299  0.00  0.00    -0.454 OA
ATOM     31  O   LIG    1        9.548  15.047   2.108  0.00  0.00    -0.287 OA
ATOM     32  C   LIG    1       11.067  18.293   2.356  0.00  0.00    +0.146 A 
ATOM     35  C   LIG    1       12.114  19.063   1.849  0.00  0.00    +0.093 A 
ENDROOT
BRANCH  19  20
ATOM     20  C   LIG    1        8.406  18.860   4.827  0.00  0.00    +0.021 A 
ATOM     21  C   LIG    1        7.222  18.303   5.311  0.00  0.00    +0.015 A 
ATOM     22  C   LIG    1        6.465  18.985   6.263  0.00  0.00    +0.050 A 
ATOM     23  C   LIG    1        6.892  20.227   6.735  0.00  0.00    +0.158 A 
ATOM     24  C   LIG    1        8.075  20.786   6.252  0.00  0.00    +0.159 A 
ATOM     29  C   LIG    1        8.832  20.104   5.299  0.00  0.00    +0.060 A 
BRANCH  24  25
ATOM     25  O   LIG    1        8.502  21.998   6.707  0.00  0.00    -0.503 OA
ATOM     26  H   LIG    1        9.279  21.855   7.274  0.00  0.00    +0.292 HD
ENDBRANCH  24  25
BRANCH  23  27
ATOM     27  O   LIG    1        6.143  20.884   7.664  0.00  0.00    -0.503 OA
ATOM     28  H   LIG    1        5.293  21.137   7.265  0.00  0.00    +0.292 HD
ENDBRANCH  23  27
ENDBRANCH  19  20
BRANCH  15  33
ATOM     33  O   LIG    1       11.591  15.175   0.469  0.00  0.00    -0.506 OA
ATOM     34  H   LIG    1       12.272  14.980  -0.193  0.00  0.00    +0.292 HD
ENDBRANCH  15  33
BRANCH  13  12
ATOM     12  O   LIG    1       13.994  19.274   0.390  0.00  0.00    -0.461 OA
BRANCH  12   2
ATOM      1  O   LIG    1       14.169  21.567   0.783  0.00  0.00    -0.331 OA
ATOM      2  C   LIG    1       14.532  20.272   1.255  0.00  0.00    +0.339 C 
ATOM      3  C   LIG    1       16.053  20.113   1.267  0.00  0.00    +0.214 C 
ATOM      4  C   LIG    1       16.724  21.240   2.054  0.00  0.00    +0.180 C 
ATOM      5  C   LIG    1       16.189  22.607   1.628  0.00  0.00    +0.177 C 
ATOM     36  C   LIG    1       14.659  22.614   1.623  0.00  0.00    +0.179 C 
BRANCH   5   6
ATOM      6  O   LIG    1       16.662  23.601   2.533  0.00  0.00    -0.386 OA
ATOM      7  H   LIG    1       15.976  24.286   2.612  0.00  0.00    +0.210 HD
ENDBRANCH   5   6
BRANCH   4   8
ATOM      8  O   LIG    1       18.131  21.219   1.808  0.00  0.00    -0.386 OA
ATOM      9  H   LIG    1       18.562  20.884   2.614  0.00  0.00    +0.210 HD
ENDBRANCH   4   8
BRANCH   3  10
ATOM     10  O   LIG    1       16.368  18.860   1.874  0.00  0.00    -0.383 OA
ATOM     11  H   LIG    1       16.474  18.201   1.166  0.00  0.00    +0.210 HD
ENDBRANCH   3  10
BRANCH  36  37
ATOM     37  C   LIG    1       14.102  23.930   1.088  0.00  0.00    +0.190 C 
BRANCH  37  38
ATOM     38  O   LIG    1       14.298  24.933   2.069  0.00  0.00    -0.392 OA
ATOM     39  H   LIG    1       14.978  25.544   1.735  0.00  0.00    +0.210 HD
ENDBRANCH  37  38
ENDBRANCH  36  37
ENDBRANCH  12   2
ENDBRANCH  13  12
TORSDOF 11
ENDMDL
MODEL 7
REMARK VINA RESULT:      -7.2     29.173     31.481
REMARK  Name = 5280637
REMARK                            x       y       z     vdW  Elec       q    Type
REMARK                         _______ _______ _______ _____ _____    ______ ____
ROOT
ATOM     13  C   LIG    1        9.126  28.377  28.771  0.00  0.00    +0.131 A 
ATOM     14  C   LIG    1        9.822  28.033  29.930  0.00  0.00    +0.092 A 
ATOM     15  C   LIG    1        9.830  28.898  31.025  0.00  0.00    +0.135 A 
ATOM     16  C   LIG    1        9.137  30.108  30.952  0.00  0.00    +0.105 A 
ATOM     17  C   LIG    1        9.128  31.041  32.089  0.00  0.00    +0.197 A 
ATOM     18  C   LIG    1        8.362  32.290  31.903  0.00  0.00    +0.098 A 
ATOM     19  C   LIG    1        7.727  32.505  30.740  0.00  0.00    +0.139 A 
ATOM     30  O   LIG    1        7.744  31.628  29.667  0.00  0.00    -0.454 OA
ATOM     31  O   LIG    1        9.719  30.804  33.133  0.00  0.00    -0.287 OA
ATOM     32  C   LIG    1        8.441  30.452  29.794  0.00  0.00    +0.146 A 
ATOM     35  C   LIG    1        8.435  29.587  28.701  0.00  0.00    +0.093 A 
ENDROOT
BRANCH  19  20
ATOM     20  C   LIG    1        6.953  33.739  30.494  0.00  0.00    +0.021 A 
ATOM     21  C   LIG    1        6.723  34.642  31.534  0.00  0.00    +0.015 A 
ATOM     22  C   LIG    1        5.991  35.806  31.302  0.00  0.00    +0.050 A 
ATOM     23  C   LIG    1        5.488  36.072  30.028  0.00  0.00    +0.158 A 
ATOM     24  C   LIG    1        5.715  35.171  28.987  0.00  0.00    +0.159 A 
ATOM     29  C   LIG    1        6.447  34.006  29.219  0.00  0.00    +0.060 A 
BRANCH  24  25
ATOM     25  O   LIG    1        5.229  35.421  27.739  0.00  0.00    -0.503 OA
ATOM     26  H   LIG    1        4.264  35.302  27.756  0.00  0.00    +0.292 HD
ENDBRANCH  24  25
BRANCH  23  27
ATOM     27  O   LIG    1        4.774  37.212  29.814  0.00  0.00    -0.503 OA
ATOM     28  H   LIG    1        4.989  37.559  28.931  0.00  0.00    +0.292 HD
ENDBRANCH  23  27
ENDBRANCH  19  20
BRANCH  15  33
ATOM     33  O   LIG    1       10.525  28.517  32.133  0.00  0.00    -0.506 OA
ATOM     34  H   LIG    1       10.285  27.615  32.392  0.00  0.00    +0.292 HD
ENDBRANCH  15  33
BRANCH  13  12
ATOM     12  O   LIG    1        9.122  27.528  27.702  0.00  0.00    -0.461 OA
BRANCH  12   2
ATOM      1  O   LIG    1        7.387  25.988  27.948  0.00  0.00    -0.331 OA
ATOM      2  C   LIG    1        7.844  27.122  27.215  0.00  0.00    +0.339 C 
ATOM      3  C   LIG    1        7.994  26.777  25.733  0.00  0.00    +0.214 C 
ATOM      4  C   LIG    1        6.703  26.187  25.166  0.00  0.00    +0.180 C 
ATOM      5  C   LIG    1        6.157  25.080  26.068  0.00  0.00    +0.177 C 
ATOM     36  C   LIG    1        6.096  25.545  27.524  0.00  0.00    +0.179 C 
BRANCH   5   6
ATOM      6  O   LIG    1        4.848  24.720  25.633  0.00  0.00    -0.386 OA
ATOM      7  H   LIG    1        4.910  24.424  24.708  0.00  0.00    +0.210 HD
ENDBRANCH   5   6
BRANCH   4   8
ATOM      8  O   LIG    1        6.962  25.623  23.879  0.00  0.00    -0.386 OA
ATOM      9  H   LIG    1        7.921  25.472  23.817  0.00  0.00    +0.210 HD
ENDBRANCH   4   8
BRANCH   3  10
ATOM     10  O   LIG    1        8.319  27.973  25.025  0.00  0.00    -0.383 OA
ATOM     11  H   LIG    1        7.772  28.006  24.222  0.00  0.00    +0.210 HD
ENDBRANCH   3  10
BRANCH  36  37
ATOM     37  C   LIG    1        5.666  24.419  28.459  0.00  0.00    +0.190 C 
BRANCH  37  38
ATOM     38  O   LIG    1        5.995  23.182  27.855  0.00  0.00    -0.392 OA
ATOM     39  H   LIG    1        6.955  23.054  27.946  0.00  0.00    +0.210 HD
ENDBRANCH  37  38
ENDBRANCH  36  37
ENDBRANCH  12   2
ENDBRANCH  13  12
TORSDOF 11
ENDMDL
MODEL 8
REMARK VINA RESULT:      -7.1     16.644     21.142
REMARK  Name = 5280637
REMARK                            x       y       z     vdW  Elec       q    Type
REMARK                         _______ _______ _______ _____ _____    ______ ____
ROOT
ATOM     13  C   LIG    1       31.667  11.407   1.393  0.00  0.00    +0.131 A 
ATOM     14  C   LIG    1       32.544  10.406   0.976  0.00  0.00    +0.092 A 
ATOM     15  C   LIG    1       33.914  10.659   0.904  0.00  0.00    +0.135 A 
ATOM     16  C   LIG    1       34.401  11.921   1.254  0.00  0.00    +0.105 A 
ATOM     17  C   LIG    1       35.839  12.219   1.187  0.00  0.00    +0.197 A 
ATOM     18  C   LIG    1       36.242  13.585   1.581  0.00  0.00    +0.098 A 
ATOM     19  C   LIG    1       35.303  14.460   1.972  0.00  0.00    +0.139 A 
ATOM     30  O   LIG    1       33.946  14.179   2.026  0.00  0.00    -0.454 OA
ATOM     31  O   LIG    1       36.662  11.389   0.827  0.00  0.00    -0.287 OA
ATOM     32  C   LIG    1       33.524  12.923   1.672  0.00  0.00    +0.146 A 
ATOM     35  C   LIG    1       32.156  12.667   1.742  0.00  0.00    +0.093 A 
ENDROOT
BRANCH  19  20
ATOM     20  C   LIG    1       35.645  15.842   2.368  0.00  0.00    +0.021 A 
ATOM     21  C   LIG    1       36.798  16.091   3.116  0.00  0.00    +0.015 A 
ATOM     22  C   LIG    1       37.121  17.395   3.491  0.00  0.00    +0.050 A 
ATOM     23  C   LIG    1       36.292  18.454   3.119  0.00  0.00    +0.158 A 
ATOM     24  C   LIG    1       35.139  18.207   2.373  0.00  0.00    +0.159 A 
ATOM     29  C   LIG    1       34.816  16.903   1.997  0.00  0.00    +0.060 A 
BRANCH  24  25
ATOM     25  O   LIG    1       34.323  19.234   2.002  0.00  0.00    -0.503 OA
ATOM     26  H   LIG    1       34.593  20.031   2.490  0.00  0.00    +0.292 HD
ENDBRANCH  24  25
BRANCH  23  27
ATOM     27  O   LIG    1       36.617  19.722   3.492  0.00  0.00    -0.503 OA
ATOM     28  H   LIG    1       36.399  20.333   2.766  0.00  0.00    +0.292 HD
ENDBRANCH  23  27
ENDBRANCH  19  20
BRANCH  15  33
ATOM     33  O   LIG    1       34.729   9.649   0.490  0.00  0.00    -0.506 OA
ATOM     34  H   LIG    1       34.220   8.835   0.356  0.00  0.00    +0.292 HD
ENDBRANCH  15  33
BRANCH  13  12
ATOM     12  O   LIG    1       30.328  11.154   1.461  0.00  0.00    -0.461 OA
BRANCH  12   2
ATOM      1  O   LIG    1       29.114  12.534   2.899  0.00  0.00    -0.331 OA
ATOM      2  C   LIG    1       29.467  12.289   1.540  0.00  0.00    +0.339 C 
ATOM      3  C   LIG    1       28.220  11.992   0.707  0.00  0.00    +0.214 C 
ATOM      4  C   LIG    1       27.174  13.098   0.857  0.00  0.00    +0.180 C 
ATOM      5  C   LIG    1       26.941  13.443   2.328  0.00  0.00    +0.177 C 
ATOM     36  C   LIG    1       28.270  13.677   3.049  0.00  0.00    +0.179 C 
BRANCH   5   6
ATOM      6  O   LIG    1       26.143  14.621   2.416  0.00  0.00    -0.386 OA
ATOM      7  H   LIG    1       26.020  14.967   1.516  0.00  0.00    +0.210 HD
ENDBRANCH   5   6
BRANCH   4   8
ATOM      8  O   LIG    1       25.933  12.657   0.304  0.00  0.00    -0.386 OA
ATOM      9  H   LIG    1       25.904  11.689   0.391  0.00  0.00    +0.210 HD
ENDBRANCH   4   8
BRANCH   3  10
ATOM     10  O   LIG    1       28.609  11.891  -0.663  0.00  0.00    -0.383 OA
ATOM     11  H   LIG    1       28.443  10.979  -0.957  0.00  0.00    +0.210 HD
ENDBRANCH   3  10
BRANCH  36  37
ATOM     37  C   LIG    1       28.069  13.907   4.544  0.00  0.00    +0.190 C 
BRANCH  37  38
ATOM     38  O   LIG    1       27.438  15.161   4.725  0.00  0.00    -0.392 OA
ATOM     39  H   LIG    1       26.941  15.123   5.561  0.00  0.00    +0.210 HD
ENDBRANCH  37  38
ENDBRANCH  36  37
ENDBRANCH  12   2
ENDBRANCH  13  12
TORSDOF 11
ENDMDL
MODEL 9
REMARK VINA RESULT:      -7.1     25.867     30.529
REMARK  Name = 5280637
REMARK                            x       y       z     vdW  Elec       q    Type
REMARK                         _______ _______ _______ _____ _____    ______ ____
ROOT
ATOM     13  C   LIG    1       27.499  39.981  17.806  0.00  0.00    +0.131 A 
ATOM     14  C   LIG    1       27.056  38.832  18.460  0.00  0.00    +0.092 A 
ATOM     15  C   LIG    1       26.726  37.691  17.726  0.00  0.00    +0.135 A 
ATOM     16  C   LIG    1       26.843  37.709  16.335  0.00  0.00    +0.105 A 
ATOM     17  C   LIG    1       26.502  36.523  15.535  0.00  0.00    +0.197 A 
ATOM     18  C   LIG    1       26.665  36.653  14.072  0.00  0.00    +0.098 A 
ATOM     19  C   LIG    1       27.107  37.812  13.561  0.00  0.00    +0.139 A 
ATOM     30  O   LIG    1       27.421  38.931  14.316  0.00  0.00    -0.454 OA
ATOM     31  O   LIG    1       26.104  35.484  16.043  0.00  0.00    -0.287 OA
ATOM     32  C   LIG    1       27.287  38.857  15.680  0.00  0.00    +0.146 A 
ATOM     35  C   LIG    1       27.615  39.996  16.415  0.00  0.00    +0.093 A 
ENDROOT
BRANCH  19  20
ATOM     20  C   LIG    1       27.282  38.003  12.106  0.00  0.00    +0.021 A 
ATOM     21  C   LIG    1       27.541  36.906  11.281  0.00  0.00    +0.015 A 
ATOM     22  C   LIG    1       27.707  37.087   9.908  0.00  0.00    +0.050 A 
ATOM     23  C   LIG    1       27.613  38.364   9.356  0.00  0.00    +0.158 A 
ATOM     24  C   LIG    1       27.355  39.462  10.178  0.00  0.00    +0.159 A 
ATOM     29  C   LIG    1       27.189  39.281  11.551  0.00  0.00    +0.060 A 
BRANCH  24  25
ATOM     25  O   LIG    1       27.260  40.714   9.648  0.00  0.00    -0.503 OA
ATOM     26  H   LIG    1       26.338  40.862   9.377  0.00  0.00    +0.292 HD
ENDBRANCH  24  25
BRANCH  23  27
ATOM     27  O   LIG    1       27.778  38.527   8.014  0.00  0.00    -0.503 OA
ATOM     28  H   LIG    1       27.376  39.372   7.745  0.00  0.00    +0.292 HD
ENDBRANCH  23  27
ENDBRANCH  19  20
BRANCH  15  33
ATOM     33  O   LIG    1       26.297  36.595  18.412  0.00  0.00    -0.506 OA
ATOM     34  H   LIG    1       27.044  36.143  18.833  0.00  0.00    +0.292 HD
ENDBRANCH  15  33
BRANCH  13  12
ATOM     12  O   LIG    1       27.820  41.094  18.527  0.00  0.00    -0.461 OA
BRANCH  12   2
ATOM      1  O   LIG    1       29.829  40.206  19.315  0.00  0.00    -0.331 OA
ATOM      2  C   LIG    1       29.210  41.347  18.725  0.00  0.00    +0.339 C 
ATOM      3  C   LIG    1       29.340  42.562  19.645  0.00  0.00    +0.214 C 
ATOM      4  C   LIG    1       30.797  42.813  20.032  0.00  0.00    +0.180 C 
ATOM      5  C   LIG    1       31.473  41.527  20.509  0.00  0.00    +0.177 C 
ATOM     36  C   LIG    1       31.232  40.387  19.517  0.00  0.00    +0.179 C 
BRANCH   5   6
ATOM      6  O   LIG    1       32.875  41.751  20.638  0.00  0.00    -0.386 OA
ATOM      7  H   LIG    1       33.334  40.932  20.384  0.00  0.00    +0.210 HD
ENDBRANCH   5   6
BRANCH   4   8
ATOM      8  O   LIG    1       30.849  43.762  21.099  0.00  0.00    -0.386 OA
ATOM      9  H   LIG    1       30.815  43.263  21.933  0.00  0.00    +0.210 HD
ENDBRANCH   4   8
BRANCH   3  10
ATOM     10  O   LIG    1       28.830  43.703  18.955  0.00  0.00    -0.383 OA
ATOM     11  H   LIG    1       28.079  43.414  18.409  0.00  0.00    +0.210 HD
ENDBRANCH   3  10
BRANCH  36  37
ATOM     37  C   LIG    1       31.796  39.065  20.028  0.00  0.00    +0.190 C 
BRANCH  37  38
ATOM     38  O   LIG    1       31.825  39.105  21.443  0.00  0.00    -0.392 OA
ATOM     39  H   LIG    1       30.942  38.853  21.764  0.00  0.00    +0.210 HD
ENDBRANCH  37  38
ENDBRANCH  36  37
ENDBRANCH  12   2
ENDBRANCH  13  12
TORSDOF 11
ENDMDL
