REMARK VINA RESULT:      -5.9      1.870      2.712
REMARK  Name = 4485
REMARK  10 active torsions:
REMARK  status: ('A' for Active; 'I' for Inactive)
REMARK    1  A    between atoms: O_1  and  C_17
REMARK    2  A    between atoms: O_1  and  C_24
REMARK    3  A    between atoms: O_2  and  C_18
REMARK    4  A    between atoms: O_2  and  C_25
REMARK    5  A    between atoms: N_8  and  C_15
REMARK    6  A    between atoms: C_9  and  C_12
REMARK    7  A    between atoms: C_10  and  C_17
REMARK    8  A    between atoms: C_11  and  C_18
REMARK    9  A    between atoms: C_13  and  C_19
REMARK   10  A    between atoms: C_14  and  C_20
REMARK                            x       y       z     vdW  Elec       q    Type
REMARK                         _______ _______ _______ _____ _____    ______ ____
ROOT
ATOM      1  C   UNL     1     175.480 174.528 169.192  0.00  0.00    +0.065 C 
ATOM      2  C   UNL     1     174.353 175.267 169.067  0.00  0.00    +0.016 C 
ATOM      3  C   UNL     1     172.967 174.719 168.860  0.00  0.00    +0.061 C 
ATOM      4  N   UNL     1     174.432 176.649 169.135  0.00  0.00    -0.321 N 
ATOM      5  H   UNL     1     173.568 177.171 169.044  0.00  0.00    +0.152 HD
ATOM      6  C   UNL     1     175.610 177.373 169.222  0.00  0.00    +0.016 C 
ATOM      7  C   UNL     1     175.443 178.868 169.166  0.00  0.00    +0.061 C 
ATOM      8  C   UNL     1     176.787 176.720 169.341  0.00  0.00    +0.065 C 
ATOM      9  C   UNL     1     176.839 175.192 169.444  0.00  0.00    +0.102 C 
ENDROOT
BRANCH   9  10
ATOM     10  C   UNL     1     177.365 174.787 170.792  0.00  0.00    +0.042 A 
ATOM     11  C   UNL     1     176.586 175.055 171.914  0.00  0.00    +0.011 A 
ATOM     12  C   UNL     1     177.047 174.691 173.179  0.00  0.00    +0.001 A 
ATOM     13  C   UNL     1     178.284 174.061 173.316  0.00  0.00    +0.007 A 
ATOM     14  C   UNL     1     179.060 173.794 172.187  0.00  0.00    +0.084 A 
ATOM     15  C   UNL     1     178.599 174.159 170.922  0.00  0.00    +0.277 A 
BRANCH  15  16
ATOM     16  N   UNL     1     179.406 173.876 169.786  0.00  0.00    +0.080 N 
ATOM     17  O   UNL     1     179.201 172.818 169.146  0.00  0.00    +0.041 OA
ATOM     18  O   UNL     1     180.300 174.693 169.459  0.00  0.00    -0.576 OA
ENDBRANCH  15  16
ENDBRANCH   9  10
BRANCH   1  19
ATOM     19  C   UNL     1     175.481 173.065 169.036  0.00  0.00    +0.337 C 
ATOM     20  O   UNL     1     175.975 172.494 168.081  0.00  0.00    -0.245 OA
BRANCH  19  21
ATOM     21  O   UNL     1     174.857 172.520 170.107  0.00  0.00    -0.465 OA
ATOM     22  C   UNL     1     175.613 171.528 170.812  0.00  0.00    +0.280 C 
ENDBRANCH  19  21
ENDBRANCH   1  19
BRANCH   8  23
ATOM     23  C   UNL     1     178.080 177.423 169.332  0.00  0.00    +0.337 C 
ATOM     24  O   UNL     1     178.538 177.994 170.304  0.00  0.00    -0.245 OA
BRANCH  23  25
ATOM     25  O   UNL     1     178.620 177.308 168.094  0.00  0.00    -0.465 OA
ATOM     26  C   UNL     1     179.124 178.526 167.537  0.00  0.00    +0.280 C 
ENDBRANCH  23  25
ENDBRANCH   8  23
TORSDOF 6
