REMARK VINA RESULT:      -6.2      2.408      4.319
REMARK  Name = 4485
REMARK  10 active torsions:
REMARK  status: ('A' for Active; 'I' for Inactive)
REMARK    1  A    between atoms: O_1  and  C_17
REMARK    2  A    between atoms: O_1  and  C_24
REMARK    3  A    between atoms: O_2  and  C_18
REMARK    4  A    between atoms: O_2  and  C_25
REMARK    5  A    between atoms: N_8  and  C_15
REMARK    6  A    between atoms: C_9  and  C_12
REMARK    7  A    between atoms: C_10  and  C_17
REMARK    8  A    between atoms: C_11  and  C_18
REMARK    9  A    between atoms: C_13  and  C_19
REMARK   10  A    between atoms: C_14  and  C_20
REMARK                            x       y       z     vdW  Elec       q    Type
REMARK                         _______ _______ _______ _____ _____    ______ ____
ROOT
ATOM      1  C   UNL     1     178.162 175.122 169.886  0.00  0.00    +0.065 C 
ATOM      2  C   UNL     1     176.880 174.782 169.621  0.00  0.00    +0.016 C 
ATOM      3  C   UNL     1     176.426 173.477 169.023  0.00  0.00    +0.061 C 
ATOM      4  N   UNL     1     175.861 175.676 169.913  0.00  0.00    -0.321 N 
ATOM      5  H   UNL     1     174.912 175.386 169.708  0.00  0.00    +0.152 HD
ATOM      6  C   UNL     1     176.050 176.968 170.375  0.00  0.00    +0.016 C 
ATOM      7  C   UNL     1     174.792 177.785 170.509  0.00  0.00    +0.061 C 
ATOM      8  C   UNL     1     177.298 177.400 170.659  0.00  0.00    +0.065 C 
ATOM      9  C   UNL     1     178.506 176.466 170.539  0.00  0.00    +0.102 C 
ENDROOT
BRANCH   9  10
ATOM     10  C   UNL     1     179.114 176.237 171.894  0.00  0.00    +0.042 A 
ATOM     11  C   UNL     1     178.320 175.674 172.888  0.00  0.00    +0.011 A 
ATOM     12  C   UNL     1     178.855 175.448 174.157  0.00  0.00    +0.001 A 
ATOM     13  C   UNL     1     180.181 175.788 174.424  0.00  0.00    +0.007 A 
ATOM     14  C   UNL     1     180.972 176.353 173.423  0.00  0.00    +0.084 A 
ATOM     15  C   UNL     1     180.437 176.578 172.155  0.00  0.00    +0.277 A 
BRANCH  15  16
ATOM     16  N   UNL     1     181.262 177.153 171.150  0.00  0.00    +0.080 N 
ATOM     17  O   UNL     1     181.987 176.400 170.458  0.00  0.00    +0.041 OA
ATOM     18  O   UNL     1     181.241 178.397 170.986  0.00  0.00    -0.576 OA
ENDBRANCH  15  16
ENDBRANCH   9  10
BRANCH   1  19
ATOM     19  C   UNL     1     179.296 174.260 169.515  0.00  0.00    +0.337 C 
ATOM     20  O   UNL     1     179.995 174.458 168.538  0.00  0.00    -0.245 OA
BRANCH  19  21
ATOM     21  O   UNL     1     179.393 173.265 170.428  0.00  0.00    -0.465 OA
ATOM     22  C   UNL     1     180.714 173.025 170.926  0.00  0.00    +0.280 C 
ENDBRANCH  19  21
ENDBRANCH   1  19
BRANCH   8  23
ATOM     23  C   UNL     1     177.578 178.791 171.051  0.00  0.00    +0.337 C 
ATOM     24  O   UNL     1     177.540 179.183 172.202  0.00  0.00    -0.245 OA
BRANCH  23  25
ATOM     25  O   UNL     1     177.870 179.500 169.933  0.00  0.00    -0.465 OA
ATOM     26  C   UNL     1     177.106 180.697 169.757  0.00  0.00    +0.280 C 
ENDBRANCH  23  25
ENDBRANCH   8  23
TORSDOF 6
