REMARK VINA RESULT:      -6.2      0.000      0.000
REMARK  Name = 4485
REMARK  10 active torsions:
REMARK  status: ('A' for Active; 'I' for Inactive)
REMARK    1  A    between atoms: O_1  and  C_17
REMARK    2  A    between atoms: O_1  and  C_24
REMARK    3  A    between atoms: O_2  and  C_18
REMARK    4  A    between atoms: O_2  and  C_25
REMARK    5  A    between atoms: N_8  and  C_15
REMARK    6  A    between atoms: C_9  and  C_12
REMARK    7  A    between atoms: C_10  and  C_17
REMARK    8  A    between atoms: C_11  and  C_18
REMARK    9  A    between atoms: C_13  and  C_19
REMARK   10  A    between atoms: C_14  and  C_20
REMARK                            x       y       z     vdW  Elec       q    Type
REMARK                         _______ _______ _______ _____ _____    ______ ____
ROOT
ATOM      1  C   UNL     1     175.947 176.271 169.242  0.00  0.00    +0.065 C 
ATOM      2  C   UNL     1     175.676 177.385 168.525  0.00  0.00    +0.016 C 
ATOM      3  C   UNL     1     174.301 177.883 168.169  0.00  0.00    +0.061 C 
ATOM      4  N   UNL     1     176.720 178.170 168.061  0.00  0.00    -0.321 N 
ATOM      5  H   UNL     1     176.481 179.002 167.533  0.00  0.00    +0.152 HD
ATOM      6  C   UNL     1     178.064 177.855 168.184  0.00  0.00    +0.016 C 
ATOM      7  C   UNL     1     179.005 178.810 167.499  0.00  0.00    +0.061 C 
ATOM      8  C   UNL     1     178.430 176.754 168.877  0.00  0.00    +0.065 C 
ATOM      9  C   UNL     1     177.390 175.880 169.583  0.00  0.00    +0.102 C 
ENDROOT
BRANCH   9  10
ATOM     10  C   UNL     1     177.598 175.935 171.070  0.00  0.00    +0.042 A 
ATOM     11  C   UNL     1     177.399 177.150 171.721  0.00  0.00    +0.011 A 
ATOM     12  C   UNL     1     177.584 177.234 173.101  0.00  0.00    +0.001 A 
ATOM     13  C   UNL     1     177.968 176.104 173.823  0.00  0.00    +0.007 A 
ATOM     14  C   UNL     1     178.165 174.889 173.165  0.00  0.00    +0.084 A 
ATOM     15  C   UNL     1     177.980 174.805 171.785  0.00  0.00    +0.277 A 
BRANCH  15  16
ATOM     16  N   UNL     1     178.186 173.557 171.136  0.00  0.00    +0.080 N 
ATOM     17  O   UNL     1     177.207 172.791 170.972  0.00  0.00    +0.041 OA
ATOM     18  O   UNL     1     179.341 173.259 170.747  0.00  0.00    -0.576 OA
ENDBRANCH  15  16
ENDBRANCH   9  10
BRANCH   1  19
ATOM     19  C   UNL     1     174.892 175.343 169.682  0.00  0.00    +0.337 C 
ATOM     20  O   UNL     1     174.135 175.579 170.605  0.00  0.00    -0.245 OA
BRANCH  19  21
ATOM     21  O   UNL     1     174.935 174.242 168.894  0.00  0.00    -0.465 OA
ATOM     22  C   UNL     1     173.658 173.707 168.527  0.00  0.00    +0.280 C 
ENDBRANCH  19  21
ENDBRANCH   1  19
BRANCH   8  23
ATOM     23  C   UNL     1     179.830 176.306 168.955  0.00  0.00    +0.337 C 
ATOM     24  O   UNL     1     180.291 175.426 168.252  0.00  0.00    -0.245 OA
BRANCH  23  25
ATOM     25  O   UNL     1     180.459 177.032 169.910  0.00  0.00    -0.465 OA
ATOM     26  C   UNL     1     181.300 176.279 170.790  0.00  0.00    +0.280 C 
ENDBRANCH  23  25
ENDBRANCH   8  23
TORSDOF 6
