MODEL 1
REMARK VINA RESULT:    -8.390      0.000      0.000
REMARK INTER + INTRA:         -12.630
REMARK INTER:                 -12.145
REMARK INTRA:                  -0.485
REMARK UNBOUND:                -1.297
REMARK  Name = 5316673
REMARK  10 active torsions:
REMARK  status: ('A' for Active; 'I' for Inactive)
REMARK    1  A    between atoms: O_2  and  C_15
REMARK    2  A    between atoms: O_2  and  C_17
REMARK    3  A    between atoms: O_3  and  C_11
REMARK    4  A    between atoms: O_4  and  C_12
REMARK    5  A    between atoms: O_5  and  C_13
REMARK    6  A    between atoms: O_8  and  C_23
REMARK    7  A    between atoms: O_9  and  C_28
REMARK    8  A    between atoms: O_10  and  C_31
REMARK    9  A    between atoms: C_14  and  C_16
REMARK   10  A    between atoms: C_18  and  C_22
REMARK                            x       y       z     vdW  Elec       q    Type
REMARK                         _______ _______ _______ _____ _____    ______ ____
ROOT
ATOM      1  O   UNL     1      92.521  14.099  38.899  0.00  0.00    +0.000 OA
ATOM      2  O   UNL     1      88.643  12.881  39.193  0.00  0.00    +0.000 OA
ATOM      3  C   UNL     1      90.674  13.401  40.295  0.00  0.00    +0.000 A 
ATOM      4  C   UNL     1      91.947  13.801  40.125  0.00  0.00    +0.000 A 
ATOM      5  C   UNL     1      89.809  13.243  39.101  0.00  0.00    +0.000 A 
ATOM      6  C   UNL     1      90.427  13.548  37.802  0.00  0.00    +0.000 A 
ATOM      7  C   UNL     1      91.756  13.963  37.769  0.00  0.00    +0.000 A 
ATOM      8  C   UNL     1      89.696  13.427  36.617  0.00  0.00    +0.000 A 
ATOM      9  C   UNL     1      92.365  14.259  36.550  0.00  0.00    +0.000 A 
ATOM     10  C   UNL     1      90.307  13.725  35.398  0.00  0.00    +0.000 A 
ATOM     11  C   UNL     1      91.639  14.140  35.365  0.00  0.00    +0.000 A 
ENDROOT
BRANCH   4  12
ATOM     12  C   UNL     1      92.874  13.992  41.255  0.00  0.00    +0.000 A 
ATOM     13  C   UNL     1      93.853  13.034  41.524  0.00  0.00    +0.000 A 
ATOM     14  C   UNL     1      92.774  15.130  42.055  0.00  0.00    +0.000 A 
ATOM     15  C   UNL     1      94.730  13.215  42.594  0.00  0.00    +0.000 A 
ATOM     16  C   UNL     1      93.652  15.311  43.124  0.00  0.00    +0.000 A 
ATOM     17  C   UNL     1      94.630  14.354  43.394  0.00  0.00    +0.000 A 
BRANCH  17  18
ATOM     18  O   UNL     1      95.486  14.530  44.436  0.00  0.00    +0.000 OA
ATOM     19  H   UNL     1      96.369  14.742  44.086  0.00  0.00    +0.000 HD
ENDBRANCH  17  18
ENDBRANCH   4  12
BRANCH   8  20
ATOM     20  O   UNL     1      88.394  13.026  36.595  0.00  0.00    +0.000 OA
ATOM     21  H   UNL     1      87.979  13.225  37.451  0.00  0.00    +0.000 HD
ENDBRANCH   8  20
BRANCH  11  22
ATOM     22  O   UNL     1      92.231  14.429  34.173  0.00  0.00    +0.000 OA
ATOM     23  H   UNL     1      91.584  14.874  33.599  0.00  0.00    +0.000 HD
ENDBRANCH  11  22
BRANCH   3  24
ATOM     24  O   UNL     1      90.124  13.144  41.533  0.00  0.00    +0.000 OA
BRANCH  24  30
ATOM     25  O   UNL     1      89.240  15.239  42.207  0.00  0.00    +0.000 OA
ATOM     26  C   UNL     1      88.650  13.218  44.159  0.00  0.00    +0.000 C 
ATOM     27  C   UNL     1      89.019  14.643  44.570  0.00  0.00    +0.000 C 
ATOM     28  C   UNL     1      88.044  13.192  42.755  0.00  0.00    +0.000 C 
ATOM     29  C   UNL     1      89.885  15.297  43.483  0.00  0.00    +0.000 C 
ATOM     30  C   UNL     1      88.947  13.912  41.757  0.00  0.00    +0.000 C 
ATOM     31  C   UNL     1      90.157  16.770  43.779  0.00  0.00    +0.000 C 
BRANCH  26  32
ATOM     32  O   UNL     1      87.720  12.685  45.100  0.00  0.00    +0.000 OA
ATOM     33  H   UNL     1      86.910  13.220  45.051  0.00  0.00    +0.000 HD
ENDBRANCH  26  32
BRANCH  27  34
ATOM     34  O   UNL     1      89.735  14.579  45.801  0.00  0.00    +0.000 OA
ATOM     35  H   UNL     1      89.180  14.113  46.448  0.00  0.00    +0.000 HD
ENDBRANCH  27  34
BRANCH  28  36
ATOM     36  O   UNL     1      86.780  13.858  42.758  0.00  0.00    +0.000 OA
ATOM     37  H   UNL     1      86.292  13.556  43.542  0.00  0.00    +0.000 HD
ENDBRANCH  28  36
ENDBRANCH  24  30
ENDBRANCH   3  24
TORSDOF 9
ENDMDL
MODEL 2
REMARK VINA RESULT:    -7.924     14.808     17.180
REMARK INTER + INTRA:         -12.001
REMARK INTER:                 -11.063
REMARK INTRA:                  -0.938
REMARK UNBOUND:                -1.297
REMARK  Name = 5316673
REMARK  10 active torsions:
REMARK  status: ('A' for Active; 'I' for Inactive)
REMARK    1  A    between atoms: O_2  and  C_15
REMARK    2  A    between atoms: O_2  and  C_17
REMARK    3  A    between atoms: O_3  and  C_11
REMARK    4  A    between atoms: O_4  and  C_12
REMARK    5  A    between atoms: O_5  and  C_13
REMARK    6  A    between atoms: O_8  and  C_23
REMARK    7  A    between atoms: O_9  and  C_28
REMARK    8  A    between atoms: O_10  and  C_31
REMARK    9  A    between atoms: C_14  and  C_16
REMARK   10  A    between atoms: C_18  and  C_22
REMARK                            x       y       z     vdW  Elec       q    Type
REMARK                         _______ _______ _______ _____ _____    ______ ____
ROOT
ATOM      1  O   UNL     1      81.003  22.688  37.237  0.00  0.00    +0.000 OA
ATOM      2  O   UNL     1      79.784  25.761  39.619  0.00  0.00    +0.000 OA
ATOM      3  C   UNL     1      80.440  25.028  37.465  0.00  0.00    +0.000 A 
ATOM      4  C   UNL     1      80.845  23.971  36.738  0.00  0.00    +0.000 A 
ATOM      5  C   UNL     1      80.154  24.837  38.907  0.00  0.00    +0.000 A 
ATOM      6  C   UNL     1      80.336  23.476  39.434  0.00  0.00    +0.000 A 
ATOM      7  C   UNL     1      80.752  22.468  38.567  0.00  0.00    +0.000 A 
ATOM      8  C   UNL     1      80.095  23.193  40.781  0.00  0.00    +0.000 A 
ATOM      9  C   UNL     1      80.931  21.169  39.042  0.00  0.00    +0.000 A 
ATOM     10  C   UNL     1      80.274  21.892  41.253  0.00  0.00    +0.000 A 
ATOM     11  C   UNL     1      80.691  20.882  40.385  0.00  0.00    +0.000 A 
ENDROOT
BRANCH   4  12
ATOM     12  C   UNL     1      81.144  24.069  35.298  0.00  0.00    +0.000 A 
ATOM     13  C   UNL     1      82.455  24.283  34.870  0.00  0.00    +0.000 A 
ATOM     14  C   UNL     1      80.117  23.947  34.363  0.00  0.00    +0.000 A 
ATOM     15  C   UNL     1      82.738  24.375  33.506  0.00  0.00    +0.000 A 
ATOM     16  C   UNL     1      80.399  24.039  32.999  0.00  0.00    +0.000 A 
ATOM     17  C   UNL     1      81.710  24.253  32.571  0.00  0.00    +0.000 A 
BRANCH  17  18
ATOM     18  O   UNL     1      81.985  24.342  31.242  0.00  0.00    +0.000 OA
ATOM     19  H   UNL     1      82.851  23.932  31.072  0.00  0.00    +0.000 HD
ENDBRANCH  17  18
ENDBRANCH   4  12
BRANCH   8  20
ATOM     20  O   UNL     1      79.686  24.141  41.669  0.00  0.00    +0.000 OA
ATOM     21  H   UNL     1      79.188  23.718  42.389  0.00  0.00    +0.000 HD
ENDBRANCH   8  20
BRANCH  11  22
ATOM     22  O   UNL     1      80.865  19.614  40.851  0.00  0.00    +0.000 OA
ATOM     23  H   UNL     1      80.020  19.289  41.205  0.00  0.00    +0.000 HD
ENDBRANCH  11  22
BRANCH   3  24
ATOM     24  O   UNL     1      80.262  26.286  36.930  0.00  0.00    +0.000 OA
BRANCH  24  30
ATOM     25  O   UNL     1      78.292  26.617  35.650  0.00  0.00    +0.000 OA
ATOM     26  C   UNL     1      79.329  29.129  36.575  0.00  0.00    +0.000 C 
ATOM     27  C   UNL     1      78.718  28.980  35.182  0.00  0.00    +0.000 C 
ATOM     28  C   UNL     1      78.765  28.080  37.536  0.00  0.00    +0.000 C 
ATOM     29  C   UNL     1      78.853  27.528  34.700  0.00  0.00    +0.000 C 
ATOM     30  C   UNL     1      78.893  26.677  36.947  0.00  0.00    +0.000 C 
ATOM     31  C   UNL     1      78.128  27.296  33.377  0.00  0.00    +0.000 C 
BRANCH  26  32
ATOM     32  O   UNL     1      79.055  30.438  37.070  0.00  0.00    +0.000 OA
ATOM     33  H   UNL     1      79.618  31.063  36.581  0.00  0.00    +0.000 HD
ENDBRANCH  26  32
BRANCH  27  34
ATOM     34  O   UNL     1      79.409  29.860  34.298  0.00  0.00    +0.000 OA
ATOM     35  H   UNL     1      79.756  30.601  34.822  0.00  0.00    +0.000 HD
ENDBRANCH  27  34
BRANCH  28  36
ATOM     36  O   UNL     1      77.379  28.331  37.770  0.00  0.00    +0.000 OA
ATOM     37  H   UNL     1      77.303  29.215  38.167  0.00  0.00    +0.000 HD
ENDBRANCH  28  36
ENDBRANCH  24  30
ENDBRANCH   3  24
TORSDOF 9
ENDMDL
MODEL 3
REMARK VINA RESULT:    -7.922      2.552      6.519
REMARK INTER + INTRA:         -11.998
REMARK INTER:                 -11.103
REMARK INTRA:                  -0.895
REMARK UNBOUND:                -1.297
REMARK  Name = 5316673
REMARK  10 active torsions:
REMARK  status: ('A' for Active; 'I' for Inactive)
REMARK    1  A    between atoms: O_2  and  C_15
REMARK    2  A    between atoms: O_2  and  C_17
REMARK    3  A    between atoms: O_3  and  C_11
REMARK    4  A    between atoms: O_4  and  C_12
REMARK    5  A    between atoms: O_5  and  C_13
REMARK    6  A    between atoms: O_8  and  C_23
REMARK    7  A    between atoms: O_9  and  C_28
REMARK    8  A    between atoms: O_10  and  C_31
REMARK    9  A    between atoms: C_14  and  C_16
REMARK   10  A    between atoms: C_18  and  C_22
REMARK                            x       y       z     vdW  Elec       q    Type
REMARK                         _______ _______ _______ _____ _____    ______ ____
ROOT
ATOM      1  O   UNL     1      93.571  15.658  42.909  0.00  0.00    +0.000 OA
ATOM      2  O   UNL     1      90.074  14.120  41.488  0.00  0.00    +0.000 OA
ATOM      3  C   UNL     1      92.439  14.003  41.557  0.00  0.00    +0.000 A 
ATOM      4  C   UNL     1      93.555  14.565  42.057  0.00  0.00    +0.000 A 
ATOM      5  C   UNL     1      91.123  14.587  41.912  0.00  0.00    +0.000 A 
ATOM      6  C   UNL     1      91.147  15.755  42.806  0.00  0.00    +0.000 A 
ATOM      7  C   UNL     1      92.376  16.231  43.260  0.00  0.00    +0.000 A 
ATOM      8  C   UNL     1      89.960  16.379  43.198  0.00  0.00    +0.000 A 
ATOM      9  C   UNL     1      92.425  17.336  44.109  0.00  0.00    +0.000 A 
ATOM     10  C   UNL     1      90.012  17.485  44.048  0.00  0.00    +0.000 A 
ATOM     11  C   UNL     1      91.243  17.962  44.502  0.00  0.00    +0.000 A 
ENDROOT
BRANCH   4  12
ATOM     12  C   UNL     1      94.902  14.046  41.762  0.00  0.00    +0.000 A 
ATOM     13  C   UNL     1      95.630  14.563  40.689  0.00  0.00    +0.000 A 
ATOM     14  C   UNL     1      95.451  13.038  42.555  0.00  0.00    +0.000 A 
ATOM     15  C   UNL     1      96.906  14.071  40.411  0.00  0.00    +0.000 A 
ATOM     16  C   UNL     1      96.727  12.547  42.277  0.00  0.00    +0.000 A 
ATOM     17  C   UNL     1      97.454  13.064  41.205  0.00  0.00    +0.000 A 
BRANCH  17  18
ATOM     18  O   UNL     1      98.699  12.585  40.934  0.00  0.00    +0.000 OA
ATOM     19  H   UNL     1      99.353  13.115  41.422  0.00  0.00    +0.000 HD
ENDBRANCH  17  18
ENDBRANCH   4  12
BRANCH   8  20
ATOM     20  O   UNL     1      88.735  15.953  42.784  0.00  0.00    +0.000 OA
ATOM     21  H   UNL     1      88.049  16.323  43.366  0.00  0.00    +0.000 HD
ENDBRANCH   8  20
BRANCH  11  22
ATOM     22  O   UNL     1      91.288  19.042  45.332  0.00  0.00    +0.000 OA
ATOM     23  H   UNL     1      91.252  18.734  46.253  0.00  0.00    +0.000 HD
ENDBRANCH  11  22
BRANCH   3  24
ATOM     24  O   UNL     1      92.456  12.895  40.737  0.00  0.00    +0.000 OA
BRANCH  24  30
ATOM     25  O   UNL     1      91.052  12.623  38.844  0.00  0.00    +0.000 OA
ATOM     26  C   UNL     1      93.593  11.362  38.406  0.00  0.00    +0.000 C 
ATOM     27  C   UNL     1      92.292  10.733  37.910  0.00  0.00    +0.000 C 
ATOM     28  C   UNL     1      93.453  12.879  38.539  0.00  0.00    +0.000 C 
ATOM     29  C   UNL     1      91.117  11.195  38.784  0.00  0.00    +0.000 C 
ATOM     30  C   UNL     1      92.228  13.242  39.376  0.00  0.00    +0.000 C 
ATOM     31  C   UNL     1      89.775  10.710  38.240  0.00  0.00    +0.000 C 
BRANCH  26  32
ATOM     32  O   UNL     1      94.643  11.049  37.493  0.00  0.00    +0.000 OA
ATOM     33  H   UNL     1      94.413  10.214  37.052  0.00  0.00    +0.000 HD
ENDBRANCH  26  32
BRANCH  27  34
ATOM     34  O   UNL     1      92.430   9.315  37.978  0.00  0.00    +0.000 OA
ATOM     35  H   UNL     1      92.330   8.959  37.080  0.00  0.00    +0.000 HD
ENDBRANCH  27  34
BRANCH  28  36
ATOM     36  O   UNL     1      93.288  13.468  37.248  0.00  0.00    +0.000 OA
ATOM     37  H   UNL     1      94.070  13.236  36.718  0.00  0.00    +0.000 HD
ENDBRANCH  28  36
ENDBRANCH  24  30
ENDBRANCH   3  24
TORSDOF 9
ENDMDL
MODEL 4
REMARK VINA RESULT:    -7.905     15.237     17.460
REMARK INTER + INTRA:         -11.975
REMARK INTER:                 -10.753
REMARK INTRA:                  -1.222
REMARK UNBOUND:                -1.297
REMARK  Name = 5316673
REMARK  10 active torsions:
REMARK  status: ('A' for Active; 'I' for Inactive)
REMARK    1  A    between atoms: O_2  and  C_15
REMARK    2  A    between atoms: O_2  and  C_17
REMARK    3  A    between atoms: O_3  and  C_11
REMARK    4  A    between atoms: O_4  and  C_12
REMARK    5  A    between atoms: O_5  and  C_13
REMARK    6  A    between atoms: O_8  and  C_23
REMARK    7  A    between atoms: O_9  and  C_28
REMARK    8  A    between atoms: O_10  and  C_31
REMARK    9  A    between atoms: C_14  and  C_16
REMARK   10  A    between atoms: C_18  and  C_22
REMARK                            x       y       z     vdW  Elec       q    Type
REMARK                         _______ _______ _______ _____ _____    ______ ____
ROOT
ATOM      1  O   UNL     1      83.033  24.517  36.203  0.00  0.00    +0.000 OA
ATOM      2  O   UNL     1      82.679  28.152  38.013  0.00  0.00    +0.000 OA
ATOM      3  C   UNL     1      81.858  26.622  36.402  0.00  0.00    +0.000 A 
ATOM      4  C   UNL     1      82.036  25.411  35.843  0.00  0.00    +0.000 A 
ATOM      5  C   UNL     1      82.790  27.062  37.468  0.00  0.00    +0.000 A 
ATOM      6  C   UNL     1      83.854  26.115  37.837  0.00  0.00    +0.000 A 
ATOM      7  C   UNL     1      83.919  24.887  37.182  0.00  0.00    +0.000 A 
ATOM      8  C   UNL     1      84.785  26.437  38.828  0.00  0.00    +0.000 A 
ATOM      9  C   UNL     1      84.917  23.972  37.515  0.00  0.00    +0.000 A 
ATOM     10  C   UNL     1      85.782  25.519  39.159  0.00  0.00    +0.000 A 
ATOM     11  C   UNL     1      85.849  24.289  38.504  0.00  0.00    +0.000 A 
ENDROOT
BRANCH   4  12
ATOM     12  C   UNL     1      81.154  24.890  34.784  0.00  0.00    +0.000 A 
ATOM     13  C   UNL     1      81.178  25.462  33.511  0.00  0.00    +0.000 A 
ATOM     14  C   UNL     1      80.294  23.826  35.053  0.00  0.00    +0.000 A 
ATOM     15  C   UNL     1      80.342  24.969  32.509  0.00  0.00    +0.000 A 
ATOM     16  C   UNL     1      79.458  23.332  34.051  0.00  0.00    +0.000 A 
ATOM     17  C   UNL     1      79.482  23.904  32.778  0.00  0.00    +0.000 A 
BRANCH  17  18
ATOM     18  O   UNL     1      78.668  23.423  31.801  0.00  0.00    +0.000 OA
ATOM     19  H   UNL     1      78.786  22.459  31.739  0.00  0.00    +0.000 HD
ENDBRANCH  17  18
ENDBRANCH   4  12
BRANCH   8  20
ATOM     20  O   UNL     1      84.764  27.623  39.497  0.00  0.00    +0.000 OA
ATOM     21  H   UNL     1      84.851  27.458  40.452  0.00  0.00    +0.000 HD
ENDBRANCH   8  20
BRANCH  11  22
ATOM     22  O   UNL     1      86.824  23.397  38.830  0.00  0.00    +0.000 OA
ATOM     23  H   UNL     1      87.671  23.708  38.468  0.00  0.00    +0.000 HD
ENDBRANCH  11  22
BRANCH   3  24
ATOM     24  O   UNL     1      80.835  27.473  36.043  0.00  0.00    +0.000 OA
BRANCH  24  30
ATOM     25  O   UNL     1      78.599  26.682  36.000  0.00  0.00    +0.000 OA
ATOM     26  C   UNL     1      78.659  29.515  36.459  0.00  0.00    +0.000 C 
ATOM     27  C   UNL     1      77.591  28.870  35.576  0.00  0.00    +0.000 C 
ATOM     28  C   UNL     1      79.202  28.516  37.482  0.00  0.00    +0.000 C 
ATOM     29  C   UNL     1      78.124  27.561  34.976  0.00  0.00    +0.000 C 
ATOM     30  C   UNL     1      79.654  27.227  36.799  0.00  0.00    +0.000 C 
ATOM     31  C   UNL     1      77.045  26.806  34.205  0.00  0.00    +0.000 C 
BRANCH  26  32
ATOM     32  O   UNL     1      78.096  30.640  37.130  0.00  0.00    +0.000 OA
ATOM     33  H   UNL     1      78.242  31.422  36.571  0.00  0.00    +0.000 HD
ENDBRANCH  26  32
BRANCH  27  34
ATOM     34  O   UNL     1      77.258  29.790  34.539  0.00  0.00    +0.000 OA
ATOM     35  H   UNL     1      78.057  29.949  34.009  0.00  0.00    +0.000 HD
ENDBRANCH  27  34
BRANCH  28  36
ATOM     36  O   UNL     1      78.179  28.176  38.419  0.00  0.00    +0.000 OA
ATOM     37  H   UNL     1      78.156  27.206  38.489  0.00  0.00    +0.000 HD
ENDBRANCH  28  36
ENDBRANCH  24  30
ENDBRANCH   3  24
TORSDOF 9
ENDMDL
MODEL 5
REMARK VINA RESULT:    -7.899     15.490     18.100
REMARK INTER + INTRA:         -11.967
REMARK INTER:                 -10.644
REMARK INTRA:                  -1.322
REMARK UNBOUND:                -1.297
REMARK  Name = 5316673
REMARK  10 active torsions:
REMARK  status: ('A' for Active; 'I' for Inactive)
REMARK    1  A    between atoms: O_2  and  C_15
REMARK    2  A    between atoms: O_2  and  C_17
REMARK    3  A    between atoms: O_3  and  C_11
REMARK    4  A    between atoms: O_4  and  C_12
REMARK    5  A    between atoms: O_5  and  C_13
REMARK    6  A    between atoms: O_8  and  C_23
REMARK    7  A    between atoms: O_9  and  C_28
REMARK    8  A    between atoms: O_10  and  C_31
REMARK    9  A    between atoms: C_14  and  C_16
REMARK   10  A    between atoms: C_18  and  C_22
REMARK                            x       y       z     vdW  Elec       q    Type
REMARK                         _______ _______ _______ _____ _____    ______ ____
ROOT
ATOM      1  O   UNL     1      81.467  27.443  37.214  0.00  0.00    +0.000 OA
ATOM      2  O   UNL     1      82.834  23.927  35.670  0.00  0.00    +0.000 OA
ATOM      3  C   UNL     1      81.164  25.606  35.670  0.00  0.00    +0.000 A 
ATOM      4  C   UNL     1      80.767  26.765  36.227  0.00  0.00    +0.000 A 
ATOM      5  C   UNL     1      82.424  24.981  36.139  0.00  0.00    +0.000 A 
ATOM      6  C   UNL     1      83.154  25.698  37.195  0.00  0.00    +0.000 A 
ATOM      7  C   UNL     1      82.635  26.897  37.679  0.00  0.00    +0.000 A 
ATOM      8  C   UNL     1      84.351  25.190  37.707  0.00  0.00    +0.000 A 
ATOM      9  C   UNL     1      83.310  27.596  38.679  0.00  0.00    +0.000 A 
ATOM     10  C   UNL     1      85.025  25.892  38.707  0.00  0.00    +0.000 A 
ATOM     11  C   UNL     1      84.505  27.093  39.193  0.00  0.00    +0.000 A 
ENDROOT
BRANCH   4  12
ATOM     12  C   UNL     1      79.534  27.459  35.817  0.00  0.00    +0.000 A 
ATOM     13  C   UNL     1      78.289  26.943  36.180  0.00  0.00    +0.000 A 
ATOM     14  C   UNL     1      79.610  28.632  35.067  0.00  0.00    +0.000 A 
ATOM     15  C   UNL     1      77.121  27.601  35.791  0.00  0.00    +0.000 A 
ATOM     16  C   UNL     1      78.443  29.291  34.679  0.00  0.00    +0.000 A 
ATOM     17  C   UNL     1      77.198  28.775  35.041  0.00  0.00    +0.000 A 
BRANCH  17  18
ATOM     18  O   UNL     1      76.059  29.417  34.663  0.00  0.00    +0.000 OA
ATOM     19  H   UNL     1      75.539  29.627  35.457  0.00  0.00    +0.000 HD
ENDBRANCH  17  18
ENDBRANCH   4  12
BRANCH   8  20
ATOM     20  O   UNL     1      84.901  24.023  37.268  0.00  0.00    +0.000 OA
ATOM     21  H   UNL     1      85.264  24.152  36.375  0.00  0.00    +0.000 HD
ENDBRANCH   8  20
BRANCH  11  22
ATOM     22  O   UNL     1      85.166  27.774  40.169  0.00  0.00    +0.000 OA
ATOM     23  H   UNL     1      84.985  28.724  40.070  0.00  0.00    +0.000 HD
ENDBRANCH  11  22
BRANCH   3  24
ATOM     24  O   UNL     1      80.461  24.974  34.667  0.00  0.00    +0.000 OA
BRANCH  24  30
ATOM     25  O   UNL     1      79.999  26.262  32.728  0.00  0.00    +0.000 OA
ATOM     26  C   UNL     1      79.842  23.457  32.138  0.00  0.00    +0.000 C 
ATOM     27  C   UNL     1      78.868  24.460  31.521  0.00  0.00    +0.000 C 
ATOM     28  C   UNL     1      81.161  24.135  32.515  0.00  0.00    +0.000 C 
ATOM     29  C   UNL     1      78.722  25.684  32.436  0.00  0.00    +0.000 C 
ATOM     30  C   UNL     1      80.912  25.371  33.376  0.00  0.00    +0.000 C 
ATOM     31  C   UNL     1      77.874  26.779  31.795  0.00  0.00    +0.000 C 
BRANCH  26  32
ATOM     32  O   UNL     1      80.085  22.405  31.207  0.00  0.00    +0.000 OA
ATOM     33  H   UNL     1      79.274  22.277  30.686  0.00  0.00    +0.000 HD
ENDBRANCH  26  32
BRANCH  27  34
ATOM     34  O   UNL     1      77.608  23.812  31.359  0.00  0.00    +0.000 OA
ATOM     35  H   UNL     1      77.752  22.853  31.419  0.00  0.00    +0.000 HD
ENDBRANCH  27  34
BRANCH  28  36
ATOM     36  O   UNL     1      81.845  24.556  31.334  0.00  0.00    +0.000 OA
ATOM     37  H   UNL     1      81.959  25.520  31.390  0.00  0.00    +0.000 HD
ENDBRANCH  28  36
ENDBRANCH  24  30
ENDBRANCH   3  24
TORSDOF 9
ENDMDL
MODEL 6
REMARK VINA RESULT:    -7.878     11.315     13.726
REMARK INTER + INTRA:         -11.938
REMARK INTER:                 -10.889
REMARK INTRA:                  -1.050
REMARK UNBOUND:                -1.297
REMARK  Name = 5316673
REMARK  10 active torsions:
REMARK  status: ('A' for Active; 'I' for Inactive)
REMARK    1  A    between atoms: O_2  and  C_15
REMARK    2  A    between atoms: O_2  and  C_17
REMARK    3  A    between atoms: O_3  and  C_11
REMARK    4  A    between atoms: O_4  and  C_12
REMARK    5  A    between atoms: O_5  and  C_13
REMARK    6  A    between atoms: O_8  and  C_23
REMARK    7  A    between atoms: O_9  and  C_28
REMARK    8  A    between atoms: O_10  and  C_31
REMARK    9  A    between atoms: C_14  and  C_16
REMARK   10  A    between atoms: C_18  and  C_22
REMARK                            x       y       z     vdW  Elec       q    Type
REMARK                         _______ _______ _______ _____ _____    ______ ____
ROOT
ATOM      1  O   UNL     1      84.334  12.967  28.182  0.00  0.00    +0.000 OA
ATOM      2  O   UNL     1      85.434  11.325  31.746  0.00  0.00    +0.000 OA
ATOM      3  C   UNL     1      83.985  12.781  30.567  0.00  0.00    +0.000 A 
ATOM      4  C   UNL     1      83.679  13.290  29.360  0.00  0.00    +0.000 A 
ATOM      5  C   UNL     1      85.109  11.820  30.675  0.00  0.00    +0.000 A 
ATOM      6  C   UNL     1      85.809  11.492  29.424  0.00  0.00    +0.000 A 
ATOM      7  C   UNL     1      85.382  12.085  28.237  0.00  0.00    +0.000 A 
ATOM      8  C   UNL     1      86.883  10.598  29.419  0.00  0.00    +0.000 A 
ATOM      9  C   UNL     1      86.028  11.788  27.037  0.00  0.00    +0.000 A 
ATOM     10  C   UNL     1      87.528  10.303  28.217  0.00  0.00    +0.000 A 
ATOM     11  C   UNL     1      87.101  10.897  27.028  0.00  0.00    +0.000 A 
ENDROOT
BRANCH   4  12
ATOM     12  C   UNL     1      82.575  14.245  29.160  0.00  0.00    +0.000 A 
ATOM     13  C   UNL     1      82.795  15.612  29.330  0.00  0.00    +0.000 A 
ATOM     14  C   UNL     1      81.309  13.782  28.801  0.00  0.00    +0.000 A 
ATOM     15  C   UNL     1      81.748  16.516  29.141  0.00  0.00    +0.000 A 
ATOM     16  C   UNL     1      80.263  14.685  28.611  0.00  0.00    +0.000 A 
ATOM     17  C   UNL     1      80.482  16.052  28.781  0.00  0.00    +0.000 A 
BRANCH  17  18
ATOM     18  O   UNL     1      79.462  16.934  28.595  0.00  0.00    +0.000 OA
ATOM     19  H   UNL     1      79.799  17.837  28.727  0.00  0.00    +0.000 HD
ENDBRANCH  17  18
ENDBRANCH   4  12
BRANCH   8  20
ATOM     20  O   UNL     1      87.338   9.991  30.550  0.00  0.00    +0.000 OA
ATOM     21  H   UNL     1      87.113  10.536  31.324  0.00  0.00    +0.000 HD
ENDBRANCH   8  20
BRANCH  11  22
ATOM     22  O   UNL     1      87.734  10.606  25.858  0.00  0.00    +0.000 OA
ATOM     23  H   UNL     1      87.979   9.665  25.857  0.00  0.00    +0.000 HD
ENDBRANCH  11  22
BRANCH   3  24
ATOM     24  O   UNL     1      83.292  13.099  31.716  0.00  0.00    +0.000 OA
BRANCH  24  30
ATOM     25  O   UNL     1      81.207  11.967  31.742  0.00  0.00    +0.000 OA
ATOM     26  C   UNL     1      81.758  13.130  34.309  0.00  0.00    +0.000 C 
ATOM     27  C   UNL     1      80.347  13.120  33.721  0.00  0.00    +0.000 C 
ATOM     28  C   UNL     1      82.597  11.984  33.740  0.00  0.00    +0.000 C 
ATOM     29  C   UNL     1      80.415  13.073  32.188  0.00  0.00    +0.000 C 
ATOM     30  C   UNL     1      82.558  11.985  32.214  0.00  0.00    +0.000 C 
ATOM     31  C   UNL     1      79.033  12.913  31.559  0.00  0.00    +0.000 C 
BRANCH  26  32
ATOM     32  O   UNL     1      81.676  13.015  35.728  0.00  0.00    +0.000 OA
ATOM     33  H   UNL     1      81.123  12.241  35.930  0.00  0.00    +0.000 HD
ENDBRANCH  26  32
BRANCH  27  34
ATOM     34  O   UNL     1      79.679  14.305  34.149  0.00  0.00    +0.000 OA
ATOM     35  H   UNL     1      78.858  14.043  34.598  0.00  0.00    +0.000 HD
ENDBRANCH  27  34
BRANCH  28  36
ATOM     36  O   UNL     1      82.075  10.731  34.188  0.00  0.00    +0.000 OA
ATOM     37  H   UNL     1      82.831  10.165  34.419  0.00  0.00    +0.000 HD
ENDBRANCH  28  36
ENDBRANCH  24  30
ENDBRANCH   3  24
TORSDOF 9
ENDMDL
MODEL 7
REMARK VINA RESULT:    -7.773      9.731     12.776
REMARK INTER + INTRA:         -11.797
REMARK INTER:                 -10.780
REMARK INTRA:                  -1.017
REMARK UNBOUND:                -1.297
REMARK  Name = 5316673
REMARK  10 active torsions:
REMARK  status: ('A' for Active; 'I' for Inactive)
REMARK    1  A    between atoms: O_2  and  C_15
REMARK    2  A    between atoms: O_2  and  C_17
REMARK    3  A    between atoms: O_3  and  C_11
REMARK    4  A    between atoms: O_4  and  C_12
REMARK    5  A    between atoms: O_5  and  C_13
REMARK    6  A    between atoms: O_8  and  C_23
REMARK    7  A    between atoms: O_9  and  C_28
REMARK    8  A    between atoms: O_10  and  C_31
REMARK    9  A    between atoms: C_14  and  C_16
REMARK   10  A    between atoms: C_18  and  C_22
REMARK                            x       y       z     vdW  Elec       q    Type
REMARK                         _______ _______ _______ _____ _____    ______ ____
ROOT
ATOM      1  O   UNL     1      84.158  14.568  28.807  0.00  0.00    +0.000 OA
ATOM      2  O   UNL     1      80.985  13.780  31.240  0.00  0.00    +0.000 OA
ATOM      3  C   UNL     1      83.170  13.197  30.536  0.00  0.00    +0.000 A 
ATOM      4  C   UNL     1      84.178  13.509  29.701  0.00  0.00    +0.000 A 
ATOM      5  C   UNL     1      81.935  14.017  30.505  0.00  0.00    +0.000 A 
ATOM      6  C   UNL     1      81.915  15.131  29.545  0.00  0.00    +0.000 A 
ATOM      7  C   UNL     1      83.033  15.349  28.743  0.00  0.00    +0.000 A 
ATOM      8  C   UNL     1      80.796  15.961  29.436  0.00  0.00    +0.000 A 
ATOM      9  C   UNL     1      83.040  16.400  27.826  0.00  0.00    +0.000 A 
ATOM     10  C   UNL     1      80.806  17.011  28.518  0.00  0.00    +0.000 A 
ATOM     11  C   UNL     1      81.925  17.230  27.714  0.00  0.00    +0.000 A 
ENDROOT
BRANCH   4  12
ATOM     12  C   UNL     1      85.443  12.754  29.670  0.00  0.00    +0.000 A 
ATOM     13  C   UNL     1      86.458  13.056  30.579  0.00  0.00    +0.000 A 
ATOM     14  C   UNL     1      85.626  11.737  28.734  0.00  0.00    +0.000 A 
ATOM     15  C   UNL     1      87.656  12.340  30.550  0.00  0.00    +0.000 A 
ATOM     16  C   UNL     1      86.823  11.021  28.705  0.00  0.00    +0.000 A 
ATOM     17  C   UNL     1      87.838  11.322  29.613  0.00  0.00    +0.000 A 
BRANCH  17  18
ATOM     18  O   UNL     1      89.006  10.625  29.586  0.00  0.00    +0.000 OA
ATOM     19  H   UNL     1      89.220  10.407  28.662  0.00  0.00    +0.000 HD
ENDBRANCH  17  18
ENDBRANCH   4  12
BRANCH   8  20
ATOM     20  O   UNL     1      79.679  15.790  30.196  0.00  0.00    +0.000 OA
ATOM     21  H   UNL     1      79.706  16.400  30.954  0.00  0.00    +0.000 HD
ENDBRANCH   8  20
BRANCH  11  22
ATOM     22  O   UNL     1      81.929  18.257  26.819  0.00  0.00    +0.000 OA
ATOM     23  H   UNL     1      81.014  18.440  26.545  0.00  0.00    +0.000 HD
ENDBRANCH  11  22
BRANCH   3  24
ATOM     24  O   UNL     1      83.234  12.156  31.437  0.00  0.00    +0.000 OA
BRANCH  24  30
ATOM     25  O   UNL     1      84.674  12.446  33.300  0.00  0.00    +0.000 OA
ATOM     26  C   UNL     1      82.687  10.452  33.861  0.00  0.00    +0.000 C 
ATOM     27  C   UNL     1      84.128  10.303  34.347  0.00  0.00    +0.000 C 
ATOM     28  C   UNL     1      82.325  11.925  33.661  0.00  0.00    +0.000 C 
ATOM     29  C   UNL     1      85.078  11.078  33.422  0.00  0.00    +0.000 C 
ATOM     30  C   UNL     1      83.354  12.624  32.776  0.00  0.00    +0.000 C 
ATOM     31  C   UNL     1      86.511  11.082  33.948  0.00  0.00    +0.000 C 
BRANCH  26  32
ATOM     32  O   UNL     1      81.807   9.861  34.815  0.00  0.00    +0.000 OA
ATOM     33  H   UNL     1      81.546   8.988  34.477  0.00  0.00    +0.000 HD
ENDBRANCH  26  32
BRANCH  27  34
ATOM     34  O   UNL     1      84.457   8.916  34.342  0.00  0.00    +0.000 OA
ATOM     35  H   UNL     1      83.633   8.411  34.235  0.00  0.00    +0.000 HD
ENDBRANCH  27  34
BRANCH  28  36
ATOM     36  O   UNL     1      82.305  12.596  34.922  0.00  0.00    +0.000 OA
ATOM     37  H   UNL     1      81.963  11.971  35.582  0.00  0.00    +0.000 HD
ENDBRANCH  28  36
ENDBRANCH  24  30
ENDBRANCH   3  24
TORSDOF 9
ENDMDL
MODEL 8
REMARK VINA RESULT:    -7.761      1.705      2.378
REMARK INTER + INTRA:         -11.781
REMARK INTER:                 -10.683
REMARK INTRA:                  -1.098
REMARK UNBOUND:                -1.297
REMARK  Name = 5316673
REMARK  10 active torsions:
REMARK  status: ('A' for Active; 'I' for Inactive)
REMARK    1  A    between atoms: O_2  and  C_15
REMARK    2  A    between atoms: O_2  and  C_17
REMARK    3  A    between atoms: O_3  and  C_11
REMARK    4  A    between atoms: O_4  and  C_12
REMARK    5  A    between atoms: O_5  and  C_13
REMARK    6  A    between atoms: O_8  and  C_23
REMARK    7  A    between atoms: O_9  and  C_28
REMARK    8  A    between atoms: O_10  and  C_31
REMARK    9  A    between atoms: C_14  and  C_16
REMARK   10  A    between atoms: C_18  and  C_22
REMARK                            x       y       z     vdW  Elec       q    Type
REMARK                         _______ _______ _______ _____ _____    ______ ____
ROOT
ATOM      1  O   UNL     1      91.399  14.601  38.687  0.00  0.00    +0.000 OA
ATOM      2  O   UNL     1      89.108  11.253  38.298  0.00  0.00    +0.000 OA
ATOM      3  C   UNL     1      90.055  12.883  39.731  0.00  0.00    +0.000 A 
ATOM      4  C   UNL     1      90.826  13.985  39.788  0.00  0.00    +0.000 A 
ATOM      5  C   UNL     1      89.800  12.256  38.412  0.00  0.00    +0.000 A 
ATOM      6  C   UNL     1      90.421  12.907  37.249  0.00  0.00    +0.000 A 
ATOM      7  C   UNL     1      91.191  14.051  37.448  0.00  0.00    +0.000 A 
ATOM      8  C   UNL     1      90.244  12.392  35.962  0.00  0.00    +0.000 A 
ATOM      9  C   UNL     1      91.789  14.688  36.361  0.00  0.00    +0.000 A 
ATOM     10  C   UNL     1      90.843  13.031  34.876  0.00  0.00    +0.000 A 
ATOM     11  C   UNL     1      91.615  14.177  35.075  0.00  0.00    +0.000 A 
ENDROOT
BRANCH   4  12
ATOM     12  C   UNL     1      91.124  14.677  41.054  0.00  0.00    +0.000 A 
ATOM     13  C   UNL     1      92.278  14.354  41.771  0.00  0.00    +0.000 A 
ATOM     14  C   UNL     1      90.255  15.655  41.537  0.00  0.00    +0.000 A 
ATOM     15  C   UNL     1      92.560  15.009  42.970  0.00  0.00    +0.000 A 
ATOM     16  C   UNL     1      90.538  16.311  42.735  0.00  0.00    +0.000 A 
ATOM     17  C   UNL     1      91.690  15.988  43.452  0.00  0.00    +0.000 A 
BRANCH  17  18
ATOM     18  O   UNL     1      91.967  16.628  44.621  0.00  0.00    +0.000 OA
ATOM     19  H   UNL     1      92.228  15.968  45.286  0.00  0.00    +0.000 HD
ENDBRANCH  17  18
ENDBRANCH   4  12
BRANCH   8  20
ATOM     20  O   UNL     1      89.501  11.278  35.713  0.00  0.00    +0.000 OA
ATOM     21  H   UNL     1      88.684  11.308  36.241  0.00  0.00    +0.000 HD
ENDBRANCH   8  20
BRANCH  11  22
ATOM     22  O   UNL     1      92.198  14.796  34.012  0.00  0.00    +0.000 OA
ATOM     23  H   UNL     1      92.528  14.121  33.395  0.00  0.00    +0.000 HD
ENDBRANCH  11  22
BRANCH   3  24
ATOM     24  O   UNL     1      89.473  12.314  40.843  0.00  0.00    +0.000 OA
BRANCH  24  30
ATOM     25  O   UNL     1      87.775  13.591  41.898  0.00  0.00    +0.000 OA
ATOM     26  C   UNL     1      87.547  10.821  42.616  0.00  0.00    +0.000 C 
ATOM     27  C   UNL     1      87.285  11.934  43.630  0.00  0.00    +0.000 C 
ATOM     28  C   UNL     1      87.303  11.312  41.187  0.00  0.00    +0.000 C 
ATOM     29  C   UNL     1      88.070  13.196  43.242  0.00  0.00    +0.000 C 
ATOM     30  C   UNL     1      88.080  12.598  40.914  0.00  0.00    +0.000 C 
ATOM     31  C   UNL     1      87.728  14.381  44.141  0.00  0.00    +0.000 C 
BRANCH  26  32
ATOM     32  O   UNL     1      86.692   9.716  42.901  0.00  0.00    +0.000 OA
ATOM     33  H   UNL     1      86.656   9.157  42.107  0.00  0.00    +0.000 HD
ENDBRANCH  26  32
BRANCH  27  34
ATOM     34  O   UNL     1      87.698  11.471  44.914  0.00  0.00    +0.000 OA
ATOM     35  H   UNL     1      87.786  10.504  44.871  0.00  0.00    +0.000 HD
ENDBRANCH  27  34
BRANCH  28  36
ATOM     36  O   UNL     1      85.915  11.593  41.000  0.00  0.00    +0.000 OA
ATOM     37  H   UNL     1      85.755  12.501  41.307  0.00  0.00    +0.000 HD
ENDBRANCH  28  36
ENDBRANCH  24  30
ENDBRANCH   3  24
TORSDOF 9
ENDMDL
MODEL 9
REMARK VINA RESULT:    -7.700      1.724      5.001
REMARK INTER + INTRA:         -11.698
REMARK INTER:                 -10.350
REMARK INTRA:                  -1.347
REMARK UNBOUND:                -1.297
REMARK  Name = 5316673
REMARK  10 active torsions:
REMARK  status: ('A' for Active; 'I' for Inactive)
REMARK    1  A    between atoms: O_2  and  C_15
REMARK    2  A    between atoms: O_2  and  C_17
REMARK    3  A    between atoms: O_3  and  C_11
REMARK    4  A    between atoms: O_4  and  C_12
REMARK    5  A    between atoms: O_5  and  C_13
REMARK    6  A    between atoms: O_8  and  C_23
REMARK    7  A    between atoms: O_9  and  C_28
REMARK    8  A    between atoms: O_10  and  C_31
REMARK    9  A    between atoms: C_14  and  C_16
REMARK   10  A    between atoms: C_18  and  C_22
REMARK                            x       y       z     vdW  Elec       q    Type
REMARK                         _______ _______ _______ _____ _____    ______ ____
ROOT
ATOM      1  O   UNL     1      89.253  12.914  38.329  0.00  0.00    +0.000 OA
ATOM      2  O   UNL     1      92.837  14.326  36.997  0.00  0.00    +0.000 OA
ATOM      3  C   UNL     1      91.403  13.900  38.833  0.00  0.00    +0.000 A 
ATOM      4  C   UNL     1      90.199  13.425  39.204  0.00  0.00    +0.000 A 
ATOM      5  C   UNL     1      91.758  13.905  37.393  0.00  0.00    +0.000 A 
ATOM      6  C   UNL     1      90.744  13.375  36.469  0.00  0.00    +0.000 A 
ATOM      7  C   UNL     1      89.539  12.904  36.988  0.00  0.00    +0.000 A 
ATOM      8  C   UNL     1      90.981  13.339  35.093  0.00  0.00    +0.000 A 
ATOM      9  C   UNL     1      88.563  12.395  36.133  0.00  0.00    +0.000 A 
ATOM     10  C   UNL     1      90.002  12.828  34.239  0.00  0.00    +0.000 A 
ATOM     11  C   UNL     1      88.795  12.358  34.758  0.00  0.00    +0.000 A 
ENDROOT
BRANCH   4  12
ATOM     12  C   UNL     1      89.768  13.375  40.611  0.00  0.00    +0.000 A 
ATOM     13  C   UNL     1      89.433  14.553  41.281  0.00  0.00    +0.000 A 
ATOM     14  C   UNL     1      89.693  12.151  41.275  0.00  0.00    +0.000 A 
ATOM     15  C   UNL     1      89.023  14.505  42.614  0.00  0.00    +0.000 A 
ATOM     16  C   UNL     1      89.283  12.103  42.608  0.00  0.00    +0.000 A 
ATOM     17  C   UNL     1      88.948  13.280  43.278  0.00  0.00    +0.000 A 
BRANCH  17  18
ATOM     18  O   UNL     1      88.549  13.234  44.577  0.00  0.00    +0.000 OA
ATOM     19  H   UNL     1      87.693  13.690  44.660  0.00  0.00    +0.000 HD
ENDBRANCH  17  18
ENDBRANCH   4  12
BRANCH   8  20
ATOM     20  O   UNL     1      92.141  13.785  34.535  0.00  0.00    +0.000 OA
ATOM     21  H   UNL     1      92.298  14.706  34.806  0.00  0.00    +0.000 HD
ENDBRANCH   8  20
BRANCH  11  22
ATOM     22  O   UNL     1      87.843  11.861  33.921  0.00  0.00    +0.000 OA
ATOM     23  H   UNL     1      87.052  11.637  34.440  0.00  0.00    +0.000 HD
ENDBRANCH  11  22
BRANCH   3  24
ATOM     24  O   UNL     1      92.335  14.371  39.732  0.00  0.00    +0.000 OA
BRANCH  24  30
ATOM     25  O   UNL     1      93.016  12.787  41.362  0.00  0.00    +0.000 OA
ATOM     26  C   UNL     1      94.909  14.938  41.193  0.00  0.00    +0.000 C 
ATOM     27  C   UNL     1      94.538  14.303  42.532  0.00  0.00    +0.000 C 
ATOM     28  C   UNL     1      94.693  13.955  40.041  0.00  0.00    +0.000 C 
ATOM     29  C   UNL     1      93.127  13.701  42.457  0.00  0.00    +0.000 C 
ATOM     30  C   UNL     1      93.284  13.368  40.082  0.00  0.00    +0.000 C 
ATOM     31  C   UNL     1      92.768  12.927  43.723  0.00  0.00    +0.000 C 
BRANCH  26  32
ATOM     32  O   UNL     1      96.274  15.350  41.231  0.00  0.00    +0.000 OA
ATOM     33  H   UNL     1      96.289  16.319  41.309  0.00  0.00    +0.000 HD
ENDBRANCH  26  32
BRANCH  27  34
ATOM     34  O   UNL     1      94.590  15.316  43.534  0.00  0.00    +0.000 OA
ATOM     35  H   UNL     1      94.899  16.138  43.116  0.00  0.00    +0.000 HD
ENDBRANCH  27  34
BRANCH  28  36
ATOM     36  O   UNL     1      95.619  12.872  40.146  0.00  0.00    +0.000 OA
ATOM     37  H   UNL     1      95.163  12.139  40.593  0.00  0.00    +0.000 HD
ENDBRANCH  28  36
ENDBRANCH  24  30
ENDBRANCH   3  24
TORSDOF 9
ENDMDL
MODEL 10
REMARK VINA RESULT:    -7.528      2.969      6.714
REMARK INTER + INTRA:         -11.466
REMARK INTER:                 -10.169
REMARK INTRA:                  -1.297
REMARK UNBOUND:                -1.297
REMARK  Name = 5316673
REMARK  10 active torsions:
REMARK  status: ('A' for Active; 'I' for Inactive)
REMARK    1  A    between atoms: O_2  and  C_15
REMARK    2  A    between atoms: O_2  and  C_17
REMARK    3  A    between atoms: O_3  and  C_11
REMARK    4  A    between atoms: O_4  and  C_12
REMARK    5  A    between atoms: O_5  and  C_13
REMARK    6  A    between atoms: O_8  and  C_23
REMARK    7  A    between atoms: O_9  and  C_28
REMARK    8  A    between atoms: O_10  and  C_31
REMARK    9  A    between atoms: C_14  and  C_16
REMARK   10  A    between atoms: C_18  and  C_22
REMARK                            x       y       z     vdW  Elec       q    Type
REMARK                         _______ _______ _______ _____ _____    ______ ____
ROOT
ATOM      1  O   UNL     1      93.909  15.219  42.866  0.00  0.00    +0.000 OA
ATOM      2  O   UNL     1      90.915  13.902  40.435  0.00  0.00    +0.000 OA
ATOM      3  C   UNL     1      93.225  13.906  40.954  0.00  0.00    +0.000 A 
ATOM      4  C   UNL     1      94.165  14.382  41.791  0.00  0.00    +0.000 A 
ATOM      5  C   UNL     1      91.812  14.303  41.164  0.00  0.00    +0.000 A 
ATOM      6  C   UNL     1      91.549  15.201  42.298  0.00  0.00    +0.000 A 
ATOM      7  C   UNL     1      92.616  15.613  43.094  0.00  0.00    +0.000 A 
ATOM      8  C   UNL     1      90.251  15.636  42.579  0.00  0.00    +0.000 A 
ATOM      9  C   UNL     1      92.391  16.463  44.176  0.00  0.00    +0.000 A 
ATOM     10  C   UNL     1      90.029  16.486  43.663  0.00  0.00    +0.000 A 
ATOM     11  C   UNL     1      91.097  16.899  44.460  0.00  0.00    +0.000 A 
ENDROOT
BRANCH   4  12
ATOM     12  C   UNL     1      95.591  14.034  41.661  0.00  0.00    +0.000 A 
ATOM     13  C   UNL     1      96.220  13.284  42.656  0.00  0.00    +0.000 A 
ATOM     14  C   UNL     1      96.312  14.452  40.543  0.00  0.00    +0.000 A 
ATOM     15  C   UNL     1      97.570  12.954  42.532  0.00  0.00    +0.000 A 
ATOM     16  C   UNL     1      97.662  14.121  40.419  0.00  0.00    +0.000 A 
ATOM     17  C   UNL     1      98.291  13.372  41.413  0.00  0.00    +0.000 A 
BRANCH  17  18
ATOM     18  O   UNL     1      99.607  13.050  41.292  0.00  0.00    +0.000 OA
ATOM     19  H   UNL     1     100.117  13.862  41.130  0.00  0.00    +0.000 HD
ENDBRANCH  17  18
ENDBRANCH   4  12
BRANCH   8  20
ATOM     20  O   UNL     1      89.174  15.262  41.834  0.00  0.00    +0.000 OA
ATOM     21  H   UNL     1      88.444  15.887  41.982  0.00  0.00    +0.000 HD
ENDBRANCH   8  20
BRANCH  11  22
ATOM     22  O   UNL     1      90.876  17.730  45.516  0.00  0.00    +0.000 OA
ATOM     23  H   UNL     1      91.556  18.426  45.519  0.00  0.00    +0.000 HD
ENDBRANCH  11  22
BRANCH   3  24
ATOM     24  O   UNL     1      93.510  13.048  39.912  0.00  0.00    +0.000 OA
BRANCH  24  30
ATOM     25  O   UNL     1      94.593  11.018  40.488  0.00  0.00    +0.000 OA
ATOM     26  C   UNL     1      93.289  10.780  37.942  0.00  0.00    +0.000 C 
ATOM     27  C   UNL     1      94.648  10.134  38.208  0.00  0.00    +0.000 C 
ATOM     28  C   UNL     1      92.503  10.959  39.243  0.00  0.00    +0.000 C 
ATOM     29  C   UNL     1      95.393  10.907  39.306  0.00  0.00    +0.000 C 
ATOM     30  C   UNL     1      93.343  11.686  40.290  0.00  0.00    +0.000 C 
ATOM     31  C   UNL     1      96.692  10.216  39.710  0.00  0.00    +0.000 C 
BRANCH  26  32
ATOM     32  O   UNL     1      92.549   9.962  37.038  0.00  0.00    +0.000 OA
ATOM     33  H   UNL     1      92.312  10.509  36.270  0.00  0.00    +0.000 HD
ENDBRANCH  26  32
BRANCH  27  34
ATOM     34  O   UNL     1      95.395  10.158  36.994  0.00  0.00    +0.000 OA
ATOM     35  H   UNL     1      94.862  10.613  36.320  0.00  0.00    +0.000 HD
ENDBRANCH  27  34
BRANCH  28  36
ATOM     36  O   UNL     1      92.149   9.683  39.777  0.00  0.00    +0.000 OA
ATOM     37  H   UNL     1      91.932   9.102  39.029  0.00  0.00    +0.000 HD
ENDBRANCH  28  36
ENDBRANCH  24  30
ENDBRANCH   3  24
TORSDOF 9
ENDMDL
