14376672
  -OEChem-10132307283D

 79 82  0     1  0  0  0  0  0999 V2000
    0.0627    1.0469    0.9806 O   0  0  0  0  0  0  0  0  0  0  0  0
    1.7542    0.3471   -2.9172 O   0  0  0  0  0  0  0  0  0  0  0  0
   -2.8129   -2.8751   -0.3520 O   0  0  0  0  0  0  0  0  0  0  0  0
    6.7076    1.3754   -0.8824 O   0  0  0  0  0  0  0  0  0  0  0  0
    4.6686   -1.8460    2.3704 O   0  0  0  0  0  0  0  0  0  0  0  0
    5.5554    3.3996    0.8097 O   0  0  0  0  0  0  0  0  0  0  0  0
   -5.4457   -1.9779   -0.6038 O   0  0  0  0  0  0  0  0  0  0  0  0
   -6.8413    2.2987   -1.1441 O   0  0  0  0  0  0  0  0  0  0  0  0
   -0.5052   -1.0041   -0.2309 C   0  0  1  0  0  0  0  0  0  0  0  0
    0.2811   -0.3817    0.9516 C   0  0  1  0  0  0  0  0  0  0  0  0
   -1.9636   -0.7009    0.2000 C   0  0  2  0  0  0  0  0  0  0  0  0
    2.3316    0.0164   -0.5422 C   0  0  2  0  0  0  0  0  0  0  0  0
    3.8894   -0.2452   -0.7516 C   0  0  2  0  0  0  0  0  0  0  0  0
   -0.0769   -0.2996   -1.5255 C   0  0  0  0  0  0  0  0  0  0  0  0
    1.7740   -0.5685    0.7727 C   0  0  0  0  0  0  0  0  0  0  0  0
   -0.4764   -0.9352    2.1684 C   0  0  0  0  0  0  0  0  0  0  0  0
    1.4422   -0.4273   -1.7619 C   0  0  1  0  0  0  0  0  0  0  0  0
   -1.9559   -0.9511    1.7259 C   0  0  0  0  0  0  0  0  0  0  0  0
    4.6319   -0.2030    0.6147 C   0  0  1  0  0  0  0  0  0  0  0  0
   -3.0612   -1.4732   -0.5201 C   0  0  2  0  0  0  0  0  0  0  0  0
   -0.2789   -2.5347   -0.3725 C   0  0  0  0  0  0  0  0  0  0  0  0
    4.5233    0.8108   -1.7313 C   0  0  0  0  0  0  0  0  0  0  0  0
    2.5251   -1.1531    1.7170 C   0  0  0  0  0  0  0  0  0  0  0  0
    4.7402    1.1896    1.2612 C   0  0  0  0  0  0  0  0  0  0  0  0
    4.1301   -1.6499   -1.3722 C   0  0  0  0  0  0  0  0  0  0  0  0
    3.9972   -1.1524    1.6095 C   0  0  0  0  0  0  0  0  0  0  0  0
    5.3904    1.8915   -1.0755 C   0  0  1  0  0  0  0  0  0  0  0  0
   -4.4714   -1.1589    0.0502 C   0  0  1  0  0  0  0  0  0  0  0  0
    4.7928    2.3329    0.2527 C   0  0  2  0  0  0  0  0  0  0  0  0
   -3.0055   -1.1745   -2.0274 C   0  0  0  0  0  0  0  0  0  0  0  0
   -4.8989    0.3142   -0.0956 C   0  0  0  0  0  0  0  0  0  0  0  0
   -6.3211    0.5579    0.4410 C   0  0  0  0  0  0  0  0  0  0  0  0
   -6.8376    1.9998    0.2534 C   0  0  0  0  0  0  0  0  0  0  0  0
   -8.2810    2.0976    0.7591 C   0  0  0  0  0  0  0  0  0  0  0  0
   -5.9644    3.0338    0.9680 C   0  0  0  0  0  0  0  0  0  0  0  0
   -2.1394    0.3724    0.0452 H   0  0  0  0  0  0  0  0  0  0  0  0
    2.2353    1.1067   -0.4631 H   0  0  0  0  0  0  0  0  0  0  0  0
   -0.3755    0.7555   -1.5455 H   0  0  0  0  0  0  0  0  0  0  0  0
   -0.5499   -0.7282   -2.4108 H   0  0  0  0  0  0  0  0  0  0  0  0
   -0.3527   -0.3096    3.0594 H   0  0  0  0  0  0  0  0  0  0  0  0
   -0.1644   -1.9539    2.4231 H   0  0  0  0  0  0  0  0  0  0  0  0
    1.6398   -1.4732   -2.0174 H   0  0  0  0  0  0  0  0  0  0  0  0
   -2.4048   -1.9018    2.0278 H   0  0  0  0  0  0  0  0  0  0  0  0
   -2.5133   -0.1574    2.2372 H   0  0  0  0  0  0  0  0  0  0  0  0
    5.6544   -0.5745    0.4545 H   0  0  0  0  0  0  0  0  0  0  0  0
    0.7900   -2.7730   -0.4133 H   0  0  0  0  0  0  0  0  0  0  0  0
   -0.6540   -3.1106    0.4789 H   0  0  0  0  0  0  0  0  0  0  0  0
   -0.6901   -2.9351   -1.3041 H   0  0  0  0  0  0  0  0  0  0  0  0
    3.7356    1.3445   -2.2675 H   0  0  0  0  0  0  0  0  0  0  0  0
    5.1260    0.3031   -2.4953 H   0  0  0  0  0  0  0  0  0  0  0  0
    2.1092   -1.5742    2.6242 H   0  0  0  0  0  0  0  0  0  0  0  0
    3.9073    1.3810    1.9506 H   0  0  0  0  0  0  0  0  0  0  0  0
    5.6287    1.2009    1.9077 H   0  0  0  0  0  0  0  0  0  0  0  0
    5.1977   -1.9009   -1.3709 H   0  0  0  0  0  0  0  0  0  0  0  0
    3.6074   -2.4384   -0.8210 H   0  0  0  0  0  0  0  0  0  0  0  0
    3.8038   -1.6978   -2.4162 H   0  0  0  0  0  0  0  0  0  0  0  0
    5.4914    2.7455   -1.7553 H   0  0  0  0  0  0  0  0  0  0  0  0
    0.3862    1.4674    0.1709 H   0  0  0  0  0  0  0  0  0  0  0  0
    3.7843    2.7260    0.0843 H   0  0  0  0  0  0  0  0  0  0  0  0
   -4.5234   -1.4385    1.1087 H   0  0  0  0  0  0  0  0  0  0  0  0
   -2.8478   -0.1132   -2.2424 H   0  0  0  0  0  0  0  0  0  0  0  0
   -2.2586   -1.7850   -2.5407 H   0  0  0  0  0  0  0  0  0  0  0  0
   -3.9458   -1.4591   -2.5150 H   0  0  0  0  0  0  0  0  0  0  0  0
    2.5079   -0.0758   -3.3615 H   0  0  0  0  0  0  0  0  0  0  0  0
   -3.1292   -3.1480    0.5248 H   0  0  0  0  0  0  0  0  0  0  0  0
   -4.1967    0.9583    0.4398 H   0  0  0  0  0  0  0  0  0  0  0  0
   -4.8749    0.5922   -1.1542 H   0  0  0  0  0  0  0  0  0  0  0  0
    7.2700    2.1087   -0.5817 H   0  0  0  0  0  0  0  0  0  0  0  0
    6.4465    3.0671    1.0094 H   0  0  0  0  0  0  0  0  0  0  0  0
   -5.1652   -2.9031   -0.5005 H   0  0  0  0  0  0  0  0  0  0  0  0
   -6.3529    0.2895    1.5046 H   0  0  0  0  0  0  0  0  0  0  0  0
   -7.0089   -0.1192   -0.0817 H   0  0  0  0  0  0  0  0  0  0  0  0
   -8.6885    3.0994    0.5816 H   0  0  0  0  0  0  0  0  0  0  0  0
   -8.3495    1.8789    1.8297 H   0  0  0  0  0  0  0  0  0  0  0  0
   -8.9321    1.4011    0.2184 H   0  0  0  0  0  0  0  0  0  0  0  0
   -6.3858    4.0393    0.8522 H   0  0  0  0  0  0  0  0  0  0  0  0
   -5.8807    2.8176    2.0379 H   0  0  0  0  0  0  0  0  0  0  0  0
   -4.9576    3.0829    0.5405 H   0  0  0  0  0  0  0  0  0  0  0  0
   -5.9264    2.4597   -1.4293 H   0  0  0  0  0  0  0  0  0  0  0  0
  1 10  1  0  0  0  0
  1 58  1  0  0  0  0
  2 17  1  0  0  0  0
  2 64  1  0  0  0  0
  3 20  1  0  0  0  0
  3 65  1  0  0  0  0
  4 27  1  0  0  0  0
  4 68  1  0  0  0  0
  5 26  2  0  0  0  0
  6 29  1  0  0  0  0
  6 69  1  0  0  0  0
  7 28  1  0  0  0  0
  7 70  1  0  0  0  0
  8 33  1  0  0  0  0
  8 79  1  0  0  0  0
  9 10  1  0  0  0  0
  9 11  1  0  0  0  0
  9 14  1  0  0  0  0
  9 21  1  0  0  0  0
 10 15  1  0  0  0  0
 10 16  1  0  0  0  0
 11 18  1  0  0  0  0
 11 20  1  0  0  0  0
 11 36  1  0  0  0  0
 12 13  1  0  0  0  0
 12 15  1  0  0  0  0
 12 17  1  0  0  0  0
 12 37  1  0  0  0  0
 13 19  1  0  0  0  0
 13 22  1  0  0  0  0
 13 25  1  0  0  0  0
 14 17  1  0  0  0  0
 14 38  1  0  0  0  0
 14 39  1  0  0  0  0
 15 23  2  0  0  0  0
 16 18  1  0  0  0  0
 16 40  1  0  0  0  0
 16 41  1  0  0  0  0
 17 42  1  0  0  0  0
 18 43  1  0  0  0  0
 18 44  1  0  0  0  0
 19 24  1  0  0  0  0
 19 26  1  0  0  0  0
 19 45  1  0  0  0  0
 20 28  1  0  0  0  0
 20 30  1  0  0  0  0
 21 46  1  0  0  0  0
 21 47  1  0  0  0  0
 21 48  1  0  0  0  0
 22 27  1  0  0  0  0
 22 49  1  0  0  0  0
 22 50  1  0  0  0  0
 23 26  1  0  0  0  0
 23 51  1  0  0  0  0
 24 29  1  0  0  0  0
 24 52  1  0  0  0  0
 24 53  1  0  0  0  0
 25 54  1  0  0  0  0
 25 55  1  0  0  0  0
 25 56  1  0  0  0  0
 27 29  1  0  0  0  0
 27 57  1  0  0  0  0
 28 31  1  0  0  0  0
 28 60  1  0  0  0  0
 29 59  1  0  0  0  0
 30 61  1  0  0  0  0
 30 62  1  0  0  0  0
 30 63  1  0  0  0  0
 31 32  1  0  0  0  0
 31 66  1  0  0  0  0
 31 67  1  0  0  0  0
 32 33  1  0  0  0  0
 32 71  1  0  0  0  0
 32 72  1  0  0  0  0
 33 34  1  0  0  0  0
 33 35  1  0  0  0  0
 34 73  1  0  0  0  0
 34 74  1  0  0  0  0
 34 75  1  0  0  0  0
 35 76  1  0  0  0  0
 35 77  1  0  0  0  0
 35 78  1  0  0  0  0
M  END
> <PUBCHEM_COMPOUND_CID>
14376672

> <PUBCHEM_CONFORMER_RMSD>
1

> <PUBCHEM_CONFORMER_DIVERSEORDER>
1
4
3
2

> <PUBCHEM_MMFF94_PARTIAL_CHARGES>
28
1 -0.68
10 0.42
12 0.14
15 -0.28
17 0.28
19 0.06
2 -0.68
20 0.28
23 -0.14
26 0.49
27 0.28
28 0.28
29 0.28
3 -0.68
33 0.28
4 -0.68
5 -0.57
51 0.15
58 0.4
6 -0.68
64 0.4
65 0.4
68 0.4
69 0.4
7 -0.68
70 0.4
79 0.4
8 -0.68

> <PUBCHEM_EFFECTIVE_ROTOR_COUNT>
6.8

> <PUBCHEM_PHARMACOPHORE_FEATURES>
20
1 1 acceptor
1 1 donor
1 2 acceptor
1 2 donor
1 3 acceptor
1 3 donor
1 4 acceptor
1 4 donor
1 5 acceptor
1 6 acceptor
1 6 donor
1 7 acceptor
1 7 donor
1 8 acceptor
1 8 donor
3 33 34 35 hydrophobe
5 9 10 11 16 18 rings
6 12 13 15 19 23 26 rings
6 13 19 22 24 27 29 rings
6 9 10 12 14 15 17 rings

> <PUBCHEM_HEAVY_ATOM_COUNT>
35

> <PUBCHEM_ATOM_DEF_STEREO_COUNT>
11

> <PUBCHEM_ATOM_UDEF_STEREO_COUNT>
0

> <PUBCHEM_BOND_DEF_STEREO_COUNT>
0

> <PUBCHEM_BOND_UDEF_STEREO_COUNT>
0

> <PUBCHEM_ISOTOPIC_ATOM_COUNT>
0

> <PUBCHEM_COMPONENT_COUNT>
1

> <PUBCHEM_CACTVS_TAUTO_COUNT>
5

> <PUBCHEM_CONFORMER_ID>
00DB5EE000000001

> <PUBCHEM_MMFF94_ENERGY>
149.2132

> <PUBCHEM_FEATURE_SELFOVERLAP>
101.657

> <PUBCHEM_SHAPE_FINGERPRINT>
10 15 14345799374333232863
10554248 39 17131841919414847445
10693767 8 13038916495068873300
10816530 90 18131348613548038921
10906281 52 16733559328911797934
11456790 92 17386274395156774064
11475781 23 17060327496990092497
11578080 2 18262516013267513536
11646440 116 16153425060535416804
11991303 11 16701733951923984501
12035758 1 15863782911284653771
12236239 1 18260264165750323571
12422481 6 17386002815647140829
12788726 201 18131073718513499224
13140716 1 15865769849466709230
13533116 47 17967524663033958586
13690498 29 17201913954878959879
13782708 43 12468355765235972401
13911987 19 16271934830666598437
15082195 135 17275110522229418912
15183329 4 17989209222740557377
15188451 53 9151173130314694825
15238133 3 18341887476785155003
15324884 4 15911616168398756987
15392192 104 15937278654274499947
15475509 35 11530477852627867444
1577012 14 18333449838002726679
15840311 113 18187643562246266233
16994733 274 18339922740086124616
17349148 13 16009296721718138726
18222031 100 12751240302441125186
20028762 73 10519983751589202373
20715895 44 18343867701400362301
20775438 99 12823283620678044956
21033648 29 18261111928460647772
21130935 74 17603586322682585035
21424621 283 18334298673621509859
21521239 73 12895347794288845597
21814621 53 18336278880936178731
22122407 14 18262810673588393657
22149856 69 16660370251630699555
23559900 14 15554167085924139562
23569914 152 14544266489109775053
23569914 2 17626055959287958249
23569943 247 16952509322315039403
24771293 8 17603870069696715716
2748736 6 18342452592045853285
3472631 163 18342459244306389161
3633792 109 18202011984572443814
3680242 22 15792003515590702576
3918712 181 18270962341755660473
392239 28 15502380062770545711
394071 54 16732985357887756884
4093350 32 18335144163646034814
504579 68 13758361051199868657
5104073 3 17168143472447706323
59682541 52 15554449552932612165
6328613 192 18411979174493198225

> <PUBCHEM_SHAPE_MULTIPOLES>
673.33
18.19
2.89
2.08
22.86
1.46
0.16
15.87
-0.38
1.42
-0.23
-1.93
-0.48
-1.43

> <PUBCHEM_SHAPE_SELFOVERLAP>
1425.813

> <PUBCHEM_SHAPE_VOLUME>
373.6

> <PUBCHEM_COORDINATE_TYPE>
2
5
10

$$$$
