MODEL 1
REMARK VINA RESULT:      -8.2      0.000      0.000
REMARK  13 active torsions:
REMARK  status: ('A' for Active; 'I' for Inactive)
REMARK    1  A    between atoms: C_2  and  O_12 
REMARK    2  A    between atoms: C_3  and  O_10 
REMARK    3  A    between atoms: C_4  and  O_8 
REMARK    4  A    between atoms: C_5  and  O_6 
REMARK    5  A    between atoms: C_22  and  C_23 
REMARK    6  A    between atoms: O_12  and  C_13 
REMARK    7  A    between atoms: C_13  and  C_14 
REMARK    8  A    between atoms: C_15  and  C_16 
REMARK    9  A    between atoms: C_23  and  O_24 
REMARK   10  A    between atoms: O_24  and  C_25 
REMARK   11  A    between atoms: C_26  and  O_34 
REMARK   12  A    between atoms: C_27  and  O_32 
REMARK   13  A    between atoms: C_28  and  O_30 
ROOT
ATOM      1  O   LIG     1     152.859 155.518 151.755  0.00  0.00    -0.341 OA
ATOM      2  C   LIG     1     153.173 154.162 152.062  0.00  0.00     0.282 C 
ATOM      3  C   LIG     1     154.615 153.843 151.667  0.00  0.00     0.201 C 
ATOM      4  C   LIG     1     155.596 154.834 152.293  0.00  0.00     0.179 C 
ATOM      5  C   LIG     1     155.139 156.276 152.078  0.00  0.00     0.177 C 
ATOM      6  C   LIG     1     153.670 156.446 152.477  0.00  0.00     0.178 C 
ENDROOT
BRANCH   6   7
ATOM      7  C   LIG     1     153.157 157.848 152.162  0.00  0.00     0.197 C 
BRANCH   7   8
ATOM      8  O   LIG     1     154.109 158.503 151.344  0.00  0.00    -0.346 OA
BRANCH   8   9
ATOM      9  C   LIG     1     153.567 158.844 150.073  0.00  0.00     0.281 C 
ATOM     10  O   LIG     1     153.828 157.836 149.090  0.00  0.00    -0.346 OA
ATOM     11  C   LIG     1     155.208 157.701 148.757  0.00  0.00     0.197 C 
ATOM     12  C   LIG     1     155.752 159.003 148.184  0.00  0.00     0.171 C 
ATOM     13  C   LIG     1     155.560 160.151 149.177  0.00  0.00     0.178 C 
ATOM     14  C   LIG     1     154.097 160.217 149.630  0.00  0.00     0.201 C 
BRANCH  12  15
ATOM     15  O   LIG     1     157.130 158.867 147.866  0.00  0.00    -0.387 OA
ATOM     16  H   LIG     1     157.447 159.732 147.555  0.00  0.00     0.210 HD
ENDBRANCH  12  15
BRANCH  13  17
ATOM     17  O   LIG     1     156.402 159.941 150.309  0.00  0.00    -0.386 OA
ATOM     18  H   LIG     1     155.907 159.395 150.944  0.00  0.00     0.210 HD
ENDBRANCH  13  17
BRANCH  14  19
ATOM     19  O   LIG     1     153.288 160.674 148.549  0.00  0.00    -0.384 OA
ATOM     20  H   LIG     1     153.456 161.622 148.418  0.00  0.00     0.210 HD
ENDBRANCH  14  19
ENDBRANCH   8   9
ENDBRANCH   7   8
ENDBRANCH   6   7
BRANCH   5  21
ATOM     21  O   LIG     1     155.945 157.149 152.865  0.00  0.00    -0.386 OA
ATOM     22  H   LIG     1     155.531 157.230 153.742  0.00  0.00     0.210 HD
ENDBRANCH   5  21
BRANCH   2  23
ATOM     23  O   LIG     1     152.313 153.290 151.331  0.00  0.00    -0.345 OA
BRANCH  23  24
ATOM     24  C   LIG     1     152.209 153.686 149.972  0.00  0.00     0.190 C 
BRANCH  24  25
ATOM     25  C   LIG     1     152.364 152.479 149.105  0.00  0.00     0.001 C 
ATOM     26  C   LIG     1     151.555 152.206 148.070  0.00  0.00     0.006 C 
BRANCH  26  27
ATOM     27  C   LIG     1     151.677 151.038 147.181  0.00  0.00    -0.025 A 
ATOM     28  C   LIG     1     150.541 150.520 146.579  0.00  0.00     0.008 A 
ATOM     29  C   LIG     1     150.659 149.414 145.738  0.00  0.00     0.001 A 
ATOM     30  C   LIG     1     151.909 148.840 145.508  0.00  0.00     0.000 A 
ATOM     31  C   LIG     1     153.043 149.373 146.120  0.00  0.00     0.001 A 
ATOM     32  C   LIG     1     152.926 150.479 146.962  0.00  0.00     0.008 A 
ENDBRANCH  26  27
ENDBRANCH  24  25
ENDBRANCH  23  24
ENDBRANCH   2  23
BRANCH   4  33
ATOM     33  O   LIG     1     156.879 154.683 151.684  0.00  0.00    -0.386 OA
ATOM     34  H   LIG     1     157.162 155.561 151.378  0.00  0.00     0.210 HD
ENDBRANCH   4  33
BRANCH   3  35
ATOM     35  O   LIG     1     154.922 152.524 152.117  0.00  0.00    -0.384 OA
ATOM     36  H   LIG     1     155.205 152.001 151.349  0.00  0.00     0.210 HD
ENDBRANCH   3  35
TORSDOF 13
ENDMDL
MODEL 2
REMARK VINA RESULT:      -8.0      3.284      5.791
REMARK  13 active torsions:
REMARK  status: ('A' for Active; 'I' for Inactive)
REMARK    1  A    between atoms: C_2  and  O_12 
REMARK    2  A    between atoms: C_3  and  O_10 
REMARK    3  A    between atoms: C_4  and  O_8 
REMARK    4  A    between atoms: C_5  and  O_6 
REMARK    5  A    between atoms: C_22  and  C_23 
REMARK    6  A    between atoms: O_12  and  C_13 
REMARK    7  A    between atoms: C_13  and  C_14 
REMARK    8  A    between atoms: C_15  and  C_16 
REMARK    9  A    between atoms: C_23  and  O_24 
REMARK   10  A    between atoms: O_24  and  C_25 
REMARK   11  A    between atoms: C_26  and  O_34 
REMARK   12  A    between atoms: C_27  and  O_32 
REMARK   13  A    between atoms: C_28  and  O_30 
ROOT
ATOM      1  O   LIG     1     150.801 152.415 148.331  0.00  0.00    -0.341 OA
ATOM      2  C   LIG     1     150.895 151.156 147.668  0.00  0.00     0.282 C 
ATOM      3  C   LIG     1     152.083 151.145 146.705  0.00  0.00     0.201 C 
ATOM      4  C   LIG     1     153.378 151.539 147.414  0.00  0.00     0.179 C 
ATOM      5  C   LIG     1     153.191 152.809 148.243  0.00  0.00     0.177 C 
ATOM      6  C   LIG     1     151.949 152.701 149.131  0.00  0.00     0.178 C 
ENDROOT
BRANCH   6   7
ATOM      7  C   LIG     1     151.675 154.001 149.882  0.00  0.00     0.197 C 
BRANCH   7   8
ATOM      8  O   LIG     1     152.579 154.093 150.968  0.00  0.00    -0.346 OA
BRANCH   8   9
ATOM      9  C   LIG     1     152.937 155.443 151.244  0.00  0.00     0.281 C 
ATOM     10  O   LIG     1     154.242 155.764 150.750  0.00  0.00    -0.346 OA
ATOM     11  C   LIG     1     155.295 155.073 151.418  0.00  0.00     0.197 C 
ATOM     12  C   LIG     1     155.307 155.417 152.902  0.00  0.00     0.171 C 
ATOM     13  C   LIG     1     153.961 155.075 153.545  0.00  0.00     0.178 C 
ATOM     14  C   LIG     1     152.819 155.717 152.751  0.00  0.00     0.201 C 
BRANCH  12  15
ATOM     15  O   LIG     1     156.350 154.717 153.565  0.00  0.00    -0.387 OA
ATOM     16  H   LIG     1     156.621 155.250 154.332  0.00  0.00     0.210 HD
ENDBRANCH  12  15
BRANCH  13  17
ATOM     17  O   LIG     1     153.794 153.658 153.562  0.00  0.00    -0.386 OA
ATOM     18  H   LIG     1     153.867 153.366 154.487  0.00  0.00     0.210 HD
ENDBRANCH  13  17
BRANCH  14  19
ATOM     19  O   LIG     1     152.844 157.129 152.946  0.00  0.00    -0.384 OA
ATOM     20  H   LIG     1     153.216 157.543 152.149  0.00  0.00     0.210 HD
ENDBRANCH  14  19
ENDBRANCH   8   9
ENDBRANCH   7   8
ENDBRANCH   6   7
BRANCH   5  21
ATOM     21  O   LIG     1     154.340 153.012 149.062  0.00  0.00    -0.386 OA
ATOM     22  H   LIG     1     154.809 152.162 149.136  0.00  0.00     0.210 HD
ENDBRANCH   5  21
BRANCH   2  23
ATOM     23  O   LIG     1     149.710 150.920 146.910  0.00  0.00    -0.345 OA
BRANCH  23  24
ATOM     24  C   LIG     1     149.513 151.930 145.932  0.00  0.00     0.190 C 
BRANCH  24  25
ATOM     25  C   LIG     1     148.677 151.372 144.826  0.00  0.00     0.001 C 
ATOM     26  C   LIG     1     148.915 150.184 144.248  0.00  0.00     0.006 C 
BRANCH  26  27
ATOM     27  C   LIG     1     148.111 149.589 143.167  0.00  0.00    -0.025 A 
ATOM     28  C   LIG     1     146.776 149.941 143.041  0.00  0.00     0.008 A 
ATOM     29  C   LIG     1     146.016 149.377 142.017  0.00  0.00     0.001 A 
ATOM     30  C   LIG     1     146.598 148.468 141.134  0.00  0.00     0.000 A 
ATOM     31  C   LIG     1     147.942 148.123 141.274  0.00  0.00     0.001 A 
ATOM     32  C   LIG     1     148.703 148.687 142.298  0.00  0.00     0.008 A 
ENDBRANCH  26  27
ENDBRANCH  24  25
ENDBRANCH  23  24
ENDBRANCH   2  23
BRANCH   4  33
ATOM     33  O   LIG     1     154.394 151.792 146.443  0.00  0.00    -0.386 OA
ATOM     34  H   LIG     1     153.990 152.310 145.727  0.00  0.00     0.210 HD
ENDBRANCH   4  33
BRANCH   3  35
ATOM     35  O   LIG     1     152.215 149.827 146.174  0.00  0.00    -0.384 OA
ATOM     36  H   LIG     1     151.368 149.366 146.298  0.00  0.00     0.210 HD
ENDBRANCH   3  35
TORSDOF 13
ENDMDL
MODEL 3
REMARK VINA RESULT:      -8.0      2.939      4.278
REMARK  13 active torsions:
REMARK  status: ('A' for Active; 'I' for Inactive)
REMARK    1  A    between atoms: C_2  and  O_12 
REMARK    2  A    between atoms: C_3  and  O_10 
REMARK    3  A    between atoms: C_4  and  O_8 
REMARK    4  A    between atoms: C_5  and  O_6 
REMARK    5  A    between atoms: C_22  and  C_23 
REMARK    6  A    between atoms: O_12  and  C_13 
REMARK    7  A    between atoms: C_13  and  C_14 
REMARK    8  A    between atoms: C_15  and  C_16 
REMARK    9  A    between atoms: C_23  and  O_24 
REMARK   10  A    between atoms: O_24  and  C_25 
REMARK   11  A    between atoms: C_26  and  O_34 
REMARK   12  A    between atoms: C_27  and  O_32 
REMARK   13  A    between atoms: C_28  and  O_30 
ROOT
ATOM      1  O   LIG     1     153.005 155.994 151.158  0.00  0.00    -0.341 OA
ATOM      2  C   LIG     1     153.091 154.609 151.483  0.00  0.00     0.282 C 
ATOM      3  C   LIG     1     154.542 154.130 151.411  0.00  0.00     0.201 C 
ATOM      4  C   LIG     1     155.457 154.998 152.273  0.00  0.00     0.179 C 
ATOM      5  C   LIG     1     155.222 156.485 152.009  0.00  0.00     0.177 C 
ATOM      6  C   LIG     1     153.729 156.818 152.073  0.00  0.00     0.178 C 
ENDROOT
BRANCH   6   7
ATOM      7  C   LIG     1     153.458 158.272 151.698  0.00  0.00     0.197 C 
BRANCH   7   8
ATOM      8  O   LIG     1     154.382 158.659 150.698  0.00  0.00    -0.346 OA
BRANCH   8   9
ATOM      9  C   LIG     1     153.725 159.116 149.521  0.00  0.00     0.281 C 
ATOM     10  O   LIG     1     154.098 158.354 148.367  0.00  0.00    -0.346 OA
ATOM     11  C   LIG     1     155.462 158.520 147.986  0.00  0.00     0.197 C 
ATOM     12  C   LIG     1     155.751 159.976 147.644  0.00  0.00     0.171 C 
ATOM     13  C   LIG     1     155.422 160.883 148.831  0.00  0.00     0.178 C 
ATOM     14  C   LIG     1     153.995 160.615 149.320  0.00  0.00     0.201 C 
BRANCH  12  15
ATOM     15  O   LIG     1     157.114 160.137 147.277  0.00  0.00    -0.387 OA
ATOM     16  H   LIG     1     157.370 159.361 146.750  0.00  0.00     0.210 HD
ENDBRANCH  12  15
BRANCH  13  17
ATOM     17  O   LIG     1     156.345 160.630 149.888  0.00  0.00    -0.386 OA
ATOM     18  H   LIG     1     156.486 161.468 150.362  0.00  0.00     0.210 HD
ENDBRANCH  13  17
BRANCH  14  19
ATOM     19  O   LIG     1     153.066 161.106 148.356  0.00  0.00    -0.384 OA
ATOM     20  H   LIG     1     153.370 161.976 148.051  0.00  0.00     0.210 HD
ENDBRANCH  14  19
ENDBRANCH   8   9
ENDBRANCH   7   8
ENDBRANCH   6   7
BRANCH   5  21
ATOM     21  O   LIG     1     155.919 157.254 152.985  0.00  0.00    -0.386 OA
ATOM     22  H   LIG     1     156.506 156.653 153.477  0.00  0.00     0.210 HD
ENDBRANCH   5  21
BRANCH   2  23
ATOM     23  O   LIG     1     152.329 153.846 150.549  0.00  0.00    -0.345 OA
BRANCH  23  24
ATOM     24  C   LIG     1     151.066 153.484 151.085  0.00  0.00     0.190 C 
BRANCH  24  25
ATOM     25  C   LIG     1     150.012 154.331 150.450  0.00  0.00     0.001 C 
ATOM     26  C   LIG     1     148.870 154.674 151.067  0.00  0.00     0.006 C 
BRANCH  26  27
ATOM     27  C   LIG     1     147.811 155.517 150.487  0.00  0.00    -0.025 A 
ATOM     28  C   LIG     1     147.974 156.893 150.465  0.00  0.00     0.008 A 
ATOM     29  C   LIG     1     146.971 157.691 149.915  0.00  0.00     0.001 A 
ATOM     30  C   LIG     1     145.817 157.103 149.396  0.00  0.00     0.000 A 
ATOM     31  C   LIG     1     145.667 155.717 149.426  0.00  0.00     0.001 A 
ATOM     32  C   LIG     1     146.671 154.919 149.975  0.00  0.00     0.008 A 
ENDBRANCH  26  27
ENDBRANCH  24  25
ENDBRANCH  23  24
ENDBRANCH   2  23
BRANCH   4  33
ATOM     33  O   LIG     1     156.821 154.705 151.963  0.00  0.00    -0.386 OA
ATOM     34  H   LIG     1     156.978 154.991 151.047  0.00  0.00     0.210 HD
ENDBRANCH   4  33
BRANCH   3  35
ATOM     35  O   LIG     1     154.591 152.781 151.875  0.00  0.00    -0.384 OA
ATOM     36  H   LIG     1     153.775 152.604 152.371  0.00  0.00     0.210 HD
ENDBRANCH   3  35
TORSDOF 13
ENDMDL
MODEL 4
REMARK VINA RESULT:      -8.0      1.406      1.761
REMARK  13 active torsions:
REMARK  status: ('A' for Active; 'I' for Inactive)
REMARK    1  A    between atoms: C_2  and  O_12 
REMARK    2  A    between atoms: C_3  and  O_10 
REMARK    3  A    between atoms: C_4  and  O_8 
REMARK    4  A    between atoms: C_5  and  O_6 
REMARK    5  A    between atoms: C_22  and  C_23 
REMARK    6  A    between atoms: O_12  and  C_13 
REMARK    7  A    between atoms: C_13  and  C_14 
REMARK    8  A    between atoms: C_15  and  C_16 
REMARK    9  A    between atoms: C_23  and  O_24 
REMARK   10  A    between atoms: O_24  and  C_25 
REMARK   11  A    between atoms: C_26  and  O_34 
REMARK   12  A    between atoms: C_27  and  O_32 
REMARK   13  A    between atoms: C_28  and  O_30 
ROOT
ATOM      1  O   LIG     1     153.459 155.583 150.215  0.00  0.00    -0.341 OA
ATOM      2  C   LIG     1     153.931 154.273 150.524  0.00  0.00     0.282 C 
ATOM      3  C   LIG     1     155.266 154.347 151.266  0.00  0.00     0.201 C 
ATOM      4  C   LIG     1     155.170 155.247 152.497  0.00  0.00     0.179 C 
ATOM      5  C   LIG     1     154.511 156.583 152.156  0.00  0.00     0.177 C 
ATOM      6  C   LIG     1     153.208 156.365 151.383  0.00  0.00     0.178 C 
ENDROOT
BRANCH   6   7
ATOM      7  C   LIG     1     152.592 157.685 150.930  0.00  0.00     0.197 C 
BRANCH   7   8
ATOM      8  O   LIG     1     153.638 158.578 150.594  0.00  0.00    -0.346 OA
BRANCH   8   9
ATOM      9  C   LIG     1     153.390 159.241 149.358  0.00  0.00     0.281 C 
ATOM     10  O   LIG     1     153.678 158.403 148.233  0.00  0.00    -0.346 OA
ATOM     11  C   LIG     1     155.061 158.090 148.088  0.00  0.00     0.197 C 
ATOM     12  C   LIG     1     155.881 159.359 147.893  0.00  0.00     0.171 C 
ATOM     13  C   LIG     1     155.678 160.318 149.068  0.00  0.00     0.178 C 
ATOM     14  C   LIG     1     154.183 160.556 149.302  0.00  0.00     0.201 C 
BRANCH  12  15
ATOM     15  O   LIG     1     157.260 159.042 147.762  0.00  0.00    -0.387 OA
ATOM     16  H   LIG     1     157.768 159.837 148.001  0.00  0.00     0.210 HD
ENDBRANCH  12  15
BRANCH  13  17
ATOM     17  O   LIG     1     156.262 159.756 150.242  0.00  0.00    -0.386 OA
ATOM     18  H   LIG     1     155.579 159.751 150.935  0.00  0.00     0.210 HD
ENDBRANCH  13  17
BRANCH  14  19
ATOM     19  O   LIG     1     153.657 161.342 148.235  0.00  0.00    -0.384 OA
ATOM     20  H   LIG     1     153.597 162.265 148.533  0.00  0.00     0.210 HD
ENDBRANCH  14  19
ENDBRANCH   8   9
ENDBRANCH   7   8
ENDBRANCH   6   7
BRANCH   5  21
ATOM     21  O   LIG     1     154.233 157.293 153.360  0.00  0.00    -0.386 OA
ATOM     22  H   LIG     1     154.551 156.755 154.106  0.00  0.00     0.210 HD
ENDBRANCH   5  21
BRANCH   2  23
ATOM     23  O   LIG     1     154.137 153.538 149.319  0.00  0.00    -0.345 OA
BRANCH  23  24
ATOM     24  C   LIG     1     152.962 152.845 148.929  0.00  0.00     0.190 C 
BRANCH  24  25
ATOM     25  C   LIG     1     153.343 151.728 148.012  0.00  0.00     0.001 C 
ATOM     26  C   LIG     1     153.168 151.774 146.682  0.00  0.00     0.006 C 
BRANCH  26  27
ATOM     27  C   LIG     1     153.541 150.705 145.739  0.00  0.00    -0.025 A 
ATOM     28  C   LIG     1     154.054 151.044 144.497  0.00  0.00     0.008 A 
ATOM     29  C   LIG     1     154.407 150.032 143.605  0.00  0.00     0.001 A 
ATOM     30  C   LIG     1     154.243 148.695 143.965  0.00  0.00     0.000 A 
ATOM     31  C   LIG     1     153.725 148.369 145.219  0.00  0.00     0.001 A 
ATOM     32  C   LIG     1     153.372 149.381 146.111  0.00  0.00     0.008 A 
ENDBRANCH  26  27
ENDBRANCH  24  25
ENDBRANCH  23  24
ENDBRANCH   2  23
BRANCH   4  33
ATOM     33  O   LIG     1     156.482 155.515 152.994  0.00  0.00    -0.386 OA
ATOM     34  H   LIG     1     156.511 155.213 153.918  0.00  0.00     0.210 HD
ENDBRANCH   4  33
BRANCH   3  35
ATOM     35  O   LIG     1     155.625 153.026 151.671  0.00  0.00    -0.384 OA
ATOM     36  H   LIG     1     156.436 153.084 152.204  0.00  0.00     0.210 HD
ENDBRANCH   3  35
TORSDOF 13
ENDMDL
MODEL 5
REMARK VINA RESULT:      -7.8      3.456      6.494
REMARK  13 active torsions:
REMARK  status: ('A' for Active; 'I' for Inactive)
REMARK    1  A    between atoms: C_2  and  O_12 
REMARK    2  A    between atoms: C_3  and  O_10 
REMARK    3  A    between atoms: C_4  and  O_8 
REMARK    4  A    between atoms: C_5  and  O_6 
REMARK    5  A    between atoms: C_22  and  C_23 
REMARK    6  A    between atoms: O_12  and  C_13 
REMARK    7  A    between atoms: C_13  and  C_14 
REMARK    8  A    between atoms: C_15  and  C_16 
REMARK    9  A    between atoms: C_23  and  O_24 
REMARK   10  A    between atoms: O_24  and  C_25 
REMARK   11  A    between atoms: C_26  and  O_34 
REMARK   12  A    between atoms: C_27  and  O_32 
REMARK   13  A    between atoms: C_28  and  O_30 
ROOT
ATOM      1  O   LIG     1     153.127 158.126 149.292  0.00  0.00    -0.341 OA
ATOM      2  C   LIG     1     152.992 159.540 149.170  0.00  0.00     0.282 C 
ATOM      3  C   LIG     1     154.133 160.252 149.897  0.00  0.00     0.201 C 
ATOM      4  C   LIG     1     155.495 159.745 149.426  0.00  0.00     0.179 C 
ATOM      5  C   LIG     1     155.546 158.217 149.420  0.00  0.00     0.177 C 
ATOM      6  C   LIG     1     154.329 157.636 148.696  0.00  0.00     0.178 C 
ENDROOT
BRANCH   6   7
ATOM      7  C   LIG     1     154.297 156.113 148.778  0.00  0.00     0.197 C 
BRANCH   7   8
ATOM      8  O   LIG     1     155.053 155.706 149.904  0.00  0.00    -0.346 OA
BRANCH   8   9
ATOM      9  C   LIG     1     154.499 154.550 150.522  0.00  0.00     0.281 C 
ATOM     10  O   LIG     1     153.158 154.772 150.973  0.00  0.00    -0.346 OA
ATOM     11  C   LIG     1     153.059 155.712 152.040  0.00  0.00     0.197 C 
ATOM     12  C   LIG     1     153.840 155.230 153.255  0.00  0.00     0.171 C 
ATOM     13  C   LIG     1     155.308 154.995 152.895  0.00  0.00     0.178 C 
ATOM     14  C   LIG     1     155.410 154.083 151.668  0.00  0.00     0.201 C 
BRANCH  12  15
ATOM     15  O   LIG     1     153.747 156.175 154.312  0.00  0.00    -0.387 OA
ATOM     16  H   LIG     1     153.212 155.775 155.018  0.00  0.00     0.210 HD
ENDBRANCH  12  15
BRANCH  13  17
ATOM     17  O   LIG     1     155.929 156.248 152.612  0.00  0.00    -0.386 OA
ATOM     18  H   LIG     1     155.431 156.935 153.087  0.00  0.00     0.210 HD
ENDBRANCH  13  17
BRANCH  14  19
ATOM     19  O   LIG     1     155.020 152.760 152.030  0.00  0.00    -0.384 OA
ATOM     20  H   LIG     1     154.837 152.743 152.984  0.00  0.00     0.210 HD
ENDBRANCH  14  19
ENDBRANCH   8   9
ENDBRANCH   7   8
ENDBRANCH   6   7
BRANCH   5  21
ATOM     21  O   LIG     1     156.736 157.787 148.764  0.00  0.00    -0.386 OA
ATOM     22  H   LIG     1     157.399 158.493 148.853  0.00  0.00     0.210 HD
ENDBRANCH   5  21
BRANCH   2  23
ATOM     23  O   LIG     1     151.763 159.960 149.760  0.00  0.00    -0.345 OA
BRANCH  23  24
ATOM     24  C   LIG     1     151.407 159.132 150.856  0.00  0.00     0.190 C 
BRANCH  24  25
ATOM     25  C   LIG     1     150.047 158.563 150.608  0.00  0.00     0.001 C 
ATOM     26  C   LIG     1     149.799 157.246 150.545  0.00  0.00     0.006 C 
BRANCH  26  27
ATOM     27  C   LIG     1     148.476 156.640 150.318  0.00  0.00    -0.025 A 
ATOM     28  C   LIG     1     147.459 157.412 149.779  0.00  0.00     0.008 A 
ATOM     29  C   LIG     1     146.207 156.838 149.564  0.00  0.00     0.001 A 
ATOM     30  C   LIG     1     145.986 155.501 149.891  0.00  0.00     0.000 A 
ATOM     31  C   LIG     1     147.019 154.735 150.432  0.00  0.00     0.001 A 
ATOM     32  C   LIG     1     148.272 155.310 150.647  0.00  0.00     0.008 A 
ENDBRANCH  26  27
ENDBRANCH  24  25
ENDBRANCH  23  24
ENDBRANCH   2  23
BRANCH   4  33
ATOM     33  O   LIG     1     156.511 160.217 150.313  0.00  0.00    -0.386 OA
ATOM     34  H   LIG     1     156.913 161.002 149.904  0.00  0.00     0.210 HD
ENDBRANCH   4  33
BRANCH   3  35
ATOM     35  O   LIG     1     154.029 161.650 149.630  0.00  0.00    -0.384 OA
ATOM     36  H   LIG     1     153.255 161.992 150.109  0.00  0.00     0.210 HD
ENDBRANCH   3  35
TORSDOF 13
ENDMDL
MODEL 6
REMARK VINA RESULT:      -7.8      3.657      5.340
REMARK  13 active torsions:
REMARK  status: ('A' for Active; 'I' for Inactive)
REMARK    1  A    between atoms: C_2  and  O_12 
REMARK    2  A    between atoms: C_3  and  O_10 
REMARK    3  A    between atoms: C_4  and  O_8 
REMARK    4  A    between atoms: C_5  and  O_6 
REMARK    5  A    between atoms: C_22  and  C_23 
REMARK    6  A    between atoms: O_12  and  C_13 
REMARK    7  A    between atoms: C_13  and  C_14 
REMARK    8  A    between atoms: C_15  and  C_16 
REMARK    9  A    between atoms: C_23  and  O_24 
REMARK   10  A    between atoms: O_24  and  C_25 
REMARK   11  A    between atoms: C_26  and  O_34 
REMARK   12  A    between atoms: C_27  and  O_32 
REMARK   13  A    between atoms: C_28  and  O_30 
ROOT
ATOM      1  O   LIG     1     153.242 156.284 150.881  0.00  0.00    -0.341 OA
ATOM      2  C   LIG     1     152.896 155.094 151.586  0.00  0.00     0.282 C 
ATOM      3  C   LIG     1     154.156 154.357 152.042  0.00  0.00     0.201 C 
ATOM      4  C   LIG     1     155.076 155.275 152.846  0.00  0.00     0.179 C 
ATOM      5  C   LIG     1     155.294 156.607 152.129  0.00  0.00     0.177 C 
ATOM      6  C   LIG     1     153.959 157.215 151.694  0.00  0.00     0.178 C 
ENDROOT
BRANCH   6   7
ATOM      7  C   LIG     1     154.157 158.486 150.874  0.00  0.00     0.197 C 
BRANCH   7   8
ATOM      8  O   LIG     1     153.222 159.455 151.314  0.00  0.00    -0.346 OA
BRANCH   8   9
ATOM      9  C   LIG     1     152.353 159.865 150.264  0.00  0.00     0.281 C 
ATOM     10  O   LIG     1     152.492 161.258 149.964  0.00  0.00    -0.346 OA
ATOM     11  C   LIG     1     152.056 162.118 151.014  0.00  0.00     0.197 C 
ATOM     12  C   LIG     1     150.579 161.894 151.314  0.00  0.00     0.171 C 
ATOM     13  C   LIG     1     150.320 160.433 151.687  0.00  0.00     0.178 C 
ATOM     14  C   LIG     1     150.901 159.504 150.616  0.00  0.00     0.201 C 
BRANCH  12  15
ATOM     15  O   LIG     1     150.152 162.744 152.369  0.00  0.00    -0.387 OA
ATOM     16  H   LIG     1     150.900 162.850 152.982  0.00  0.00     0.210 HD
ENDBRANCH  12  15
BRANCH  13  17
ATOM     17  O   LIG     1     150.932 160.153 152.945  0.00  0.00    -0.386 OA
ATOM     18  H   LIG     1     150.764 159.217 153.150  0.00  0.00     0.210 HD
ENDBRANCH  13  17
BRANCH  14  19
ATOM     19  O   LIG     1     150.121 159.607 149.428  0.00  0.00    -0.384 OA
ATOM     20  H   LIG     1     149.557 160.396 149.497  0.00  0.00     0.210 HD
ENDBRANCH  14  19
ENDBRANCH   8   9
ENDBRANCH   7   8
ENDBRANCH   6   7
BRANCH   5  21
ATOM     21  O   LIG     1     155.961 157.511 153.006  0.00  0.00    -0.386 OA
ATOM     22  H   LIG     1     156.583 156.998 153.551  0.00  0.00     0.210 HD
ENDBRANCH   5  21
BRANCH   2  23
ATOM     23  O   LIG     1     152.162 154.222 150.728  0.00  0.00    -0.345 OA
BRANCH  23  24
ATOM     24  C   LIG     1     150.879 153.934 151.260  0.00  0.00     0.190 C 
BRANCH  24  25
ATOM     25  C   LIG     1     149.887 154.880 150.664  0.00  0.00     0.001 C 
ATOM     26  C   LIG     1     148.574 154.841 150.940  0.00  0.00     0.006 C 
BRANCH  26  27
ATOM     27  C   LIG     1     147.563 155.761 150.389  0.00  0.00    -0.025 A 
ATOM     28  C   LIG     1     146.393 155.244 149.856  0.00  0.00     0.008 A 
ATOM     29  C   LIG     1     145.437 156.115 149.335  0.00  0.00     0.001 A 
ATOM     30  C   LIG     1     145.663 157.491 149.352  0.00  0.00     0.000 A 
ATOM     31  C   LIG     1     146.845 157.997 149.891  0.00  0.00     0.001 A 
ATOM     32  C   LIG     1     147.802 157.126 150.413  0.00  0.00     0.008 A 
ENDBRANCH  26  27
ENDBRANCH  24  25
ENDBRANCH  23  24
ENDBRANCH   2  23
BRANCH   4  33
ATOM     33  O   LIG     1     156.350 154.647 153.009  0.00  0.00    -0.386 OA
ATOM     34  H   LIG     1     157.026 155.344 152.961  0.00  0.00     0.210 HD
ENDBRANCH   4  33
BRANCH   3  35
ATOM     35  O   LIG     1     153.758 153.254 152.856  0.00  0.00    -0.384 OA
ATOM     36  H   LIG     1     153.675 152.473 152.284  0.00  0.00     0.210 HD
ENDBRANCH   3  35
TORSDOF 13
ENDMDL
MODEL 7
REMARK VINA RESULT:      -7.8      4.198      7.327
REMARK  13 active torsions:
REMARK  status: ('A' for Active; 'I' for Inactive)
REMARK    1  A    between atoms: C_2  and  O_12 
REMARK    2  A    between atoms: C_3  and  O_10 
REMARK    3  A    between atoms: C_4  and  O_8 
REMARK    4  A    between atoms: C_5  and  O_6 
REMARK    5  A    between atoms: C_22  and  C_23 
REMARK    6  A    between atoms: O_12  and  C_13 
REMARK    7  A    between atoms: C_13  and  C_14 
REMARK    8  A    between atoms: C_15  and  C_16 
REMARK    9  A    between atoms: C_23  and  O_24 
REMARK   10  A    between atoms: O_24  and  C_25 
REMARK   11  A    between atoms: C_26  and  O_34 
REMARK   12  A    between atoms: C_27  and  O_32 
REMARK   13  A    between atoms: C_28  and  O_30 
ROOT
ATOM      1  O   LIG     1     151.055 152.742 145.976  0.00  0.00    -0.341 OA
ATOM      2  C   LIG     1     150.825 151.449 145.422  0.00  0.00     0.282 C 
ATOM      3  C   LIG     1     152.140 150.826 144.951  0.00  0.00     0.201 C 
ATOM      4  C   LIG     1     153.182 150.815 146.069  0.00  0.00     0.179 C 
ATOM      5  C   LIG     1     153.284 152.182 146.745  0.00  0.00     0.177 C 
ATOM      6  C   LIG     1     151.897 152.703 147.129  0.00  0.00     0.178 C 
ENDROOT
BRANCH   6   7
ATOM      7  C   LIG     1     151.963 154.117 147.699  0.00  0.00     0.197 C 
BRANCH   7   8
ATOM      8  O   LIG     1     152.494 154.049 149.010  0.00  0.00    -0.346 OA
BRANCH   8   9
ATOM      9  C   LIG     1     151.472 153.867 149.985  0.00  0.00     0.281 C 
ATOM     10  O   LIG     1     151.485 154.900 150.976  0.00  0.00    -0.346 OA
ATOM     11  C   LIG     1     152.644 154.885 151.807  0.00  0.00     0.197 C 
ATOM     12  C   LIG     1     152.744 153.568 152.566  0.00  0.00     0.171 C 
ATOM     13  C   LIG     1     152.777 152.387 151.594  0.00  0.00     0.178 C 
ATOM     14  C   LIG     1     151.598 152.473 150.619  0.00  0.00     0.201 C 
BRANCH  12  15
ATOM     15  O   LIG     1     153.907 153.554 153.382  0.00  0.00    -0.387 OA
ATOM     16  H   LIG     1     154.590 153.046 152.911  0.00  0.00     0.210 HD
ENDBRANCH  12  15
BRANCH  13  17
ATOM     17  O   LIG     1     154.003 152.412 150.864  0.00  0.00    -0.386 OA
ATOM     18  H   LIG     1     154.618 152.993 151.344  0.00  0.00     0.210 HD
ENDBRANCH  13  17
BRANCH  14  19
ATOM     19  O   LIG     1     150.387 152.196 151.318  0.00  0.00    -0.384 OA
ATOM     20  H   LIG     1     150.030 151.353 150.993  0.00  0.00     0.210 HD
ENDBRANCH  14  19
ENDBRANCH   8   9
ENDBRANCH   7   8
ENDBRANCH   6   7
BRANCH   5  21
ATOM     21  O   LIG     1     154.087 152.070 147.917  0.00  0.00    -0.386 OA
ATOM     22  H   LIG     1     154.999 151.876 147.639  0.00  0.00     0.210 HD
ENDBRANCH   5  21
BRANCH   2  23
ATOM     23  O   LIG     1     149.959 151.554 144.294  0.00  0.00    -0.345 OA
BRANCH  23  24
ATOM     24  C   LIG     1     148.627 151.201 144.630  0.00  0.00     0.190 C 
BRANCH  24  25
ATOM     25  C   LIG     1     148.266 149.941 143.912  0.00  0.00     0.001 C 
ATOM     26  C   LIG     1     147.066 149.730 143.351  0.00  0.00     0.006 C 
BRANCH  26  27
ATOM     27  C   LIG     1     146.671 148.512 142.622  0.00  0.00    -0.025 A 
ATOM     28  C   LIG     1     146.276 148.612 141.297  0.00  0.00     0.008 A 
ATOM     29  C   LIG     1     145.903 147.458 140.608  0.00  0.00     0.001 A 
ATOM     30  C   LIG     1     145.928 146.221 141.251  0.00  0.00     0.000 A 
ATOM     31  C   LIG     1     146.327 146.137 142.584  0.00  0.00     0.001 A 
ATOM     32  C   LIG     1     146.701 147.290 143.274  0.00  0.00     0.008 A 
ENDBRANCH  26  27
ENDBRANCH  24  25
ENDBRANCH  23  24
ENDBRANCH   2  23
BRANCH   4  33
ATOM     33  O   LIG     1     154.463 150.496 145.523  0.00  0.00    -0.386 OA
ATOM     34  H   LIG     1     154.390 150.559 144.555  0.00  0.00     0.210 HD
ENDBRANCH   4  33
BRANCH   3  35
ATOM     35  O   LIG     1     151.877 149.487 144.534  0.00  0.00    -0.384 OA
ATOM     36  H   LIG     1     152.512 148.902 144.980  0.00  0.00     0.210 HD
ENDBRANCH   3  35
TORSDOF 13
ENDMDL
MODEL 8
REMARK VINA RESULT:      -7.8      2.786      4.394
REMARK  13 active torsions:
REMARK  status: ('A' for Active; 'I' for Inactive)
REMARK    1  A    between atoms: C_2  and  O_12 
REMARK    2  A    between atoms: C_3  and  O_10 
REMARK    3  A    between atoms: C_4  and  O_8 
REMARK    4  A    between atoms: C_5  and  O_6 
REMARK    5  A    between atoms: C_22  and  C_23 
REMARK    6  A    between atoms: O_12  and  C_13 
REMARK    7  A    between atoms: C_13  and  C_14 
REMARK    8  A    between atoms: C_15  and  C_16 
REMARK    9  A    between atoms: C_23  and  O_24 
REMARK   10  A    between atoms: O_24  and  C_25 
REMARK   11  A    between atoms: C_26  and  O_34 
REMARK   12  A    between atoms: C_27  and  O_32 
REMARK   13  A    between atoms: C_28  and  O_30 
ROOT
ATOM      1  O   LIG     1     152.783 154.892 150.804  0.00  0.00    -0.341 OA
ATOM      2  C   LIG     1     153.511 153.711 151.134  0.00  0.00     0.282 C 
ATOM      3  C   LIG     1     154.938 154.063 151.557  0.00  0.00     0.201 C 
ATOM      4  C   LIG     1     154.946 155.097 152.682  0.00  0.00     0.179 C 
ATOM      5  C   LIG     1     154.027 156.274 152.358  0.00  0.00     0.177 C 
ATOM      6  C   LIG     1     152.648 155.781 151.913  0.00  0.00     0.178 C 
ENDROOT
BRANCH   6   7
ATOM      7  C   LIG     1     151.750 156.934 151.473  0.00  0.00     0.197 C 
BRANCH   7   8
ATOM      8  O   LIG     1     150.436 156.439 151.297  0.00  0.00    -0.346 OA
BRANCH   8   9
ATOM      9  C   LIG     1     149.835 156.946 150.110  0.00  0.00     0.281 C 
ATOM     10  O   LIG     1     148.425 157.140 150.263  0.00  0.00    -0.346 OA
ATOM     11  C   LIG     1     147.692 155.929 150.429  0.00  0.00     0.197 C 
ATOM     12  C   LIG     1     147.866 155.025 149.215  0.00  0.00     0.171 C 
ATOM     13  C   LIG     1     149.346 154.718 148.980  0.00  0.00     0.178 C 
ATOM     14  C   LIG     1     150.153 156.019 148.926  0.00  0.00     0.201 C 
BRANCH  12  15
ATOM     15  O   LIG     1     147.144 153.814 149.390  0.00  0.00    -0.387 OA
ATOM     16  H   LIG     1     147.513 153.160 148.772  0.00  0.00     0.210 HD
ENDBRANCH  12  15
BRANCH  13  17
ATOM     17  O   LIG     1     149.832 153.898 150.041  0.00  0.00    -0.386 OA
ATOM     18  H   LIG     1     150.663 154.292 150.358  0.00  0.00     0.210 HD
ENDBRANCH  13  17
BRANCH  14  19
ATOM     19  O   LIG     1     149.842 156.719 147.723  0.00  0.00    -0.384 OA
ATOM     20  H   LIG     1     150.302 157.575 147.737  0.00  0.00     0.210 HD
ENDBRANCH  14  19
ENDBRANCH   8   9
ENDBRANCH   7   8
ENDBRANCH   6   7
BRANCH   5  21
ATOM     21  O   LIG     1     153.884 157.094 153.516  0.00  0.00    -0.386 OA
ATOM     22  H   LIG     1     153.822 156.509 154.291  0.00  0.00     0.210 HD
ENDBRANCH   5  21
BRANCH   2  23
ATOM     23  O   LIG     1     153.588 152.857 149.994  0.00  0.00    -0.345 OA
BRANCH  23  24
ATOM     24  C   LIG     1     153.120 153.511 148.826  0.00  0.00     0.190 C 
BRANCH  24  25
ATOM     25  C   LIG     1     152.456 152.504 147.943  0.00  0.00     0.001 C 
ATOM     26  C   LIG     1     153.032 151.348 147.581  0.00  0.00     0.006 C 
BRANCH  26  27
ATOM     27  C   LIG     1     152.411 150.321 146.726  0.00  0.00    -0.025 A 
ATOM     28  C   LIG     1     151.051 150.383 146.469  0.00  0.00     0.008 A 
ATOM     29  C   LIG     1     150.464 149.410 145.660  0.00  0.00     0.001 A 
ATOM     30  C   LIG     1     151.243 148.388 145.120  0.00  0.00     0.000 A 
ATOM     31  C   LIG     1     152.611 148.338 145.387  0.00  0.00     0.001 A 
ATOM     32  C   LIG     1     153.199 149.311 146.196  0.00  0.00     0.008 A 
ENDBRANCH  26  27
ENDBRANCH  24  25
ENDBRANCH  23  24
ENDBRANCH   2  23
BRANCH   4  33
ATOM     33  O   LIG     1     156.271 155.605 152.852  0.00  0.00    -0.386 OA
ATOM     34  H   LIG     1     156.560 155.368 153.750  0.00  0.00     0.210 HD
ENDBRANCH   4  33
BRANCH   3  35
ATOM     35  O   LIG     1     155.578 152.869 152.006  0.00  0.00    -0.384 OA
ATOM     36  H   LIG     1     155.385 152.164 151.366  0.00  0.00     0.210 HD
ENDBRANCH   3  35
TORSDOF 13
ENDMDL
MODEL 9
REMARK VINA RESULT:      -7.8      3.794      5.769
REMARK  13 active torsions:
REMARK  status: ('A' for Active; 'I' for Inactive)
REMARK    1  A    between atoms: C_2  and  O_12 
REMARK    2  A    between atoms: C_3  and  O_10 
REMARK    3  A    between atoms: C_4  and  O_8 
REMARK    4  A    between atoms: C_5  and  O_6 
REMARK    5  A    between atoms: C_22  and  C_23 
REMARK    6  A    between atoms: O_12  and  C_13 
REMARK    7  A    between atoms: C_13  and  C_14 
REMARK    8  A    between atoms: C_15  and  C_16 
REMARK    9  A    between atoms: C_23  and  O_24 
REMARK   10  A    between atoms: O_24  and  C_25 
REMARK   11  A    between atoms: C_26  and  O_34 
REMARK   12  A    between atoms: C_27  and  O_32 
REMARK   13  A    between atoms: C_28  and  O_30 
ROOT
ATOM      1  O   LIG     1     152.218 153.621 149.597  0.00  0.00    -0.341 OA
ATOM      2  C   LIG     1     152.520 152.304 150.053  0.00  0.00     0.282 C 
ATOM      3  C   LIG     1     153.458 152.359 151.260  0.00  0.00     0.201 C 
ATOM      4  C   LIG     1     152.895 153.253 152.363  0.00  0.00     0.179 C 
ATOM      5  C   LIG     1     152.435 154.599 151.804  0.00  0.00     0.177 C 
ATOM      6  C   LIG     1     151.536 154.400 150.580  0.00  0.00     0.178 C 
ENDROOT
BRANCH   6   7
ATOM      7  C   LIG     1     151.158 155.730 149.935  0.00  0.00     0.197 C 
BRANCH   7   8
ATOM      8  O   LIG     1     149.747 155.849 149.942  0.00  0.00    -0.346 OA
BRANCH   8   9
ATOM      9  C   LIG     1     149.112 154.594 150.160  0.00  0.00     0.281 C 
ATOM     10  O   LIG     1     148.769 153.945 148.930  0.00  0.00    -0.346 OA
ATOM     11  C   LIG     1     147.759 154.623 148.186  0.00  0.00     0.197 C 
ATOM     12  C   LIG     1     146.469 154.716 148.991  0.00  0.00     0.171 C 
ATOM     13  C   LIG     1     146.714 155.432 150.320  0.00  0.00     0.178 C 
ATOM     14  C   LIG     1     147.884 154.779 151.064  0.00  0.00     0.201 C 
BRANCH  12  15
ATOM     15  O   LIG     1     145.471 155.402 148.249  0.00  0.00    -0.387 OA
ATOM     16  H   LIG     1     145.346 154.924 147.412  0.00  0.00     0.210 HD
ENDBRANCH  12  15
BRANCH  13  17
ATOM     17  O   LIG     1     147.015 156.804 150.067  0.00  0.00    -0.386 OA
ATOM     18  H   LIG     1     146.721 157.006 149.163  0.00  0.00     0.210 HD
ENDBRANCH  13  17
BRANCH  14  19
ATOM     19  O   LIG     1     147.485 153.494 151.535  0.00  0.00    -0.384 OA
ATOM     20  H   LIG     1     146.592 153.568 151.911  0.00  0.00     0.210 HD
ENDBRANCH  14  19
ENDBRANCH   8   9
ENDBRANCH   7   8
ENDBRANCH   6   7
BRANCH   5  21
ATOM     21  O   LIG     1     151.713 155.306 152.809  0.00  0.00    -0.386 OA
ATOM     22  H   LIG     1     150.960 155.749 152.381  0.00  0.00     0.210 HD
ENDBRANCH   5  21
BRANCH   2  23
ATOM     23  O   LIG     1     153.175 151.573 149.019  0.00  0.00    -0.345 OA
BRANCH  23  24
ATOM     24  C   LIG     1     153.411 152.387 147.881  0.00  0.00     0.190 C 
BRANCH  24  25
ATOM     25  C   LIG     1     153.736 151.506 146.717  0.00  0.00     0.001 C 
ATOM     26  C   LIG     1     153.322 150.233 146.619  0.00  0.00     0.006 C 
BRANCH  26  27
ATOM     27  C   LIG     1     153.605 149.333 145.487  0.00  0.00    -0.025 A 
ATOM     28  C   LIG     1     153.348 147.978 145.617  0.00  0.00     0.008 A 
ATOM     29  C   LIG     1     153.616 147.127 144.545  0.00  0.00     0.001 A 
ATOM     30  C   LIG     1     154.138 147.641 143.358  0.00  0.00     0.000 A 
ATOM     31  C   LIG     1     154.391 149.008 143.242  0.00  0.00     0.001 A 
ATOM     32  C   LIG     1     154.123 149.859 144.314  0.00  0.00     0.008 A 
ENDBRANCH  26  27
ENDBRANCH  24  25
ENDBRANCH  23  24
ENDBRANCH   2  23
BRANCH   4  33
ATOM     33  O   LIG     1     153.910 153.504 153.337  0.00  0.00    -0.386 OA
ATOM     34  H   LIG     1     153.511 153.373 154.213  0.00  0.00     0.210 HD
ENDBRANCH   4  33
BRANCH   3  35
ATOM     35  O   LIG     1     153.619 151.032 151.761  0.00  0.00    -0.384 OA
ATOM     36  H   LIG     1     153.778 150.441 151.005  0.00  0.00     0.210 HD
ENDBRANCH   3  35
TORSDOF 13
ENDMDL
MODEL 10
REMARK VINA RESULT:      -7.7      2.076      3.953
REMARK  13 active torsions:
REMARK  status: ('A' for Active; 'I' for Inactive)
REMARK    1  A    between atoms: C_2  and  O_12 
REMARK    2  A    between atoms: C_3  and  O_10 
REMARK    3  A    between atoms: C_4  and  O_8 
REMARK    4  A    between atoms: C_5  and  O_6 
REMARK    5  A    between atoms: C_22  and  C_23 
REMARK    6  A    between atoms: O_12  and  C_13 
REMARK    7  A    between atoms: C_13  and  C_14 
REMARK    8  A    between atoms: C_15  and  C_16 
REMARK    9  A    between atoms: C_23  and  O_24 
REMARK   10  A    between atoms: O_24  and  C_25 
REMARK   11  A    between atoms: C_26  and  O_34 
REMARK   12  A    between atoms: C_27  and  O_32 
REMARK   13  A    between atoms: C_28  and  O_30 
ROOT
ATOM      1  O   LIG     1     154.007 153.179 149.726  0.00  0.00    -0.341 OA
ATOM      2  C   LIG     1     153.009 152.833 148.769  0.00  0.00     0.282 C 
ATOM      3  C   LIG     1     151.790 152.224 149.462  0.00  0.00     0.201 C 
ATOM      4  C   LIG     1     151.260 153.140 150.564  0.00  0.00     0.179 C 
ATOM      5  C   LIG     1     152.388 153.618 151.477  0.00  0.00     0.177 C 
ATOM      6  C   LIG     1     153.557 154.167 150.655  0.00  0.00     0.178 C 
ENDROOT
BRANCH   6   7
ATOM      7  C   LIG     1     154.743 154.543 151.538  0.00  0.00     0.197 C 
BRANCH   7   8
ATOM      8  O   LIG     1     155.162 155.851 151.197  0.00  0.00    -0.346 OA
BRANCH   8   9
ATOM      9  C   LIG     1     154.670 156.820 152.116  0.00  0.00     0.281 C 
ATOM     10  O   LIG     1     153.323 157.206 151.820  0.00  0.00    -0.346 OA
ATOM     11  C   LIG     1     153.186 157.917 150.592  0.00  0.00     0.197 C 
ATOM     12  C   LIG     1     153.998 159.205 150.624  0.00  0.00     0.171 C 
ATOM     13  C   LIG     1     155.473 158.906 150.898  0.00  0.00     0.178 C 
ATOM     14  C   LIG     1     155.611 158.034 152.151  0.00  0.00     0.201 C 
BRANCH  12  15
ATOM     15  O   LIG     1     153.868 159.905 149.395  0.00  0.00    -0.387 OA
ATOM     16  H   LIG     1     153.025 160.390 149.420  0.00  0.00     0.210 HD
ENDBRANCH  12  15
BRANCH  13  17
ATOM     17  O   LIG     1     156.031 158.222 149.777  0.00  0.00    -0.386 OA
ATOM     18  H   LIG     1     156.200 157.304 150.049  0.00  0.00     0.210 HD
ENDBRANCH  13  17
BRANCH  14  19
ATOM     19  O   LIG     1     155.289 158.809 153.303  0.00  0.00    -0.384 OA
ATOM     20  H   LIG     1     156.089 159.279 153.591  0.00  0.00     0.210 HD
ENDBRANCH  14  19
ENDBRANCH   8   9
ENDBRANCH   7   8
ENDBRANCH   6   7
BRANCH   5  21
ATOM     21  O   LIG     1     151.897 154.641 152.339  0.00  0.00    -0.386 OA
ATOM     22  H   LIG     1     151.524 154.213 153.130  0.00  0.00     0.210 HD
ENDBRANCH   5  21
BRANCH   2  23
ATOM     23  O   LIG     1     153.528 151.865 147.859  0.00  0.00    -0.345 OA
BRANCH  23  24
ATOM     24  C   LIG     1     153.593 152.379 146.538  0.00  0.00     0.190 C 
BRANCH  24  25
ATOM     25  C   LIG     1     153.766 151.240 145.586  0.00  0.00     0.001 C 
ATOM     26  C   LIG     1     153.553 149.958 145.923  0.00  0.00     0.006 C 
BRANCH  26  27
ATOM     27  C   LIG     1     153.696 148.806 145.016  0.00  0.00    -0.025 A 
ATOM     28  C   LIG     1     154.219 149.002 143.747  0.00  0.00     0.008 A 
ATOM     29  C   LIG     1     154.354 147.911 142.890  0.00  0.00     0.001 A 
ATOM     30  C   LIG     1     153.964 146.639 143.310  0.00  0.00     0.000 A 
ATOM     31  C   LIG     1     153.440 146.458 144.589  0.00  0.00     0.001 A 
ATOM     32  C   LIG     1     153.304 147.549 145.448  0.00  0.00     0.008 A 
ENDBRANCH  26  27
ENDBRANCH  24  25
ENDBRANCH  23  24
ENDBRANCH   2  23
BRANCH   4  33
ATOM     33  O   LIG     1     150.317 152.426 151.364  0.00  0.00    -0.386 OA
ATOM     34  H   LIG     1     150.801 151.715 151.819  0.00  0.00     0.210 HD
ENDBRANCH   4  33
BRANCH   3  35
ATOM     35  O   LIG     1     150.772 152.023 148.481  0.00  0.00    -0.384 OA
ATOM     36  H   LIG     1     149.910 152.091 148.924  0.00  0.00     0.210 HD
ENDBRANCH   3  35
TORSDOF 13
ENDMDL
