REMARK VINA RESULT:      -6.0      2.769      5.332
REMARK  Name = 4485
REMARK  10 active torsions:
REMARK  status: ('A' for Active; 'I' for Inactive)
REMARK    1  A    between atoms: O_1  and  C_17
REMARK    2  A    between atoms: O_1  and  C_24
REMARK    3  A    between atoms: O_2  and  C_18
REMARK    4  A    between atoms: O_2  and  C_25
REMARK    5  A    between atoms: N_8  and  C_15
REMARK    6  A    between atoms: C_9  and  C_12
REMARK    7  A    between atoms: C_10  and  C_17
REMARK    8  A    between atoms: C_11  and  C_18
REMARK    9  A    between atoms: C_13  and  C_19
REMARK   10  A    between atoms: C_14  and  C_20
REMARK                            x       y       z     vdW  Elec       q    Type
REMARK                         _______ _______ _______ _____ _____    ______ ____
ROOT
ATOM      1  C   UNL     1     180.876 175.115 170.884  0.00  0.00    +0.065 C 
ATOM      2  C   UNL     1     182.139 174.723 170.598  0.00  0.00    +0.016 C 
ATOM      3  C   UNL     1     182.564 173.319 170.264  0.00  0.00    +0.061 C 
ATOM      4  N   UNL     1     183.161 175.660 170.595  0.00  0.00    -0.321 N 
ATOM      5  H   UNL     1     184.094 175.333 170.370  0.00  0.00    +0.152 HD
ATOM      6  C   UNL     1     183.021 176.987 170.967  0.00  0.00    +0.016 C 
ATOM      7  C   UNL     1     184.302 177.778 170.990  0.00  0.00    +0.061 C 
ATOM      8  C   UNL     1     181.798 177.467 171.279  0.00  0.00    +0.065 C 
ATOM      9  C   UNL     1     180.549 176.587 171.169  0.00  0.00    +0.102 C 
ENDROOT
BRANCH   9  10
ATOM     10  C   UNL     1     179.635 177.123 170.104  0.00  0.00    +0.042 A 
ATOM     11  C   UNL     1     180.096 177.156 168.791  0.00  0.00    +0.011 A 
ATOM     12  C   UNL     1     179.271 177.648 167.780  0.00  0.00    +0.001 A 
ATOM     13  C   UNL     1     177.990 178.107 168.087  0.00  0.00    +0.007 A 
ATOM     14  C   UNL     1     177.533 178.073 169.405  0.00  0.00    +0.084 A 
ATOM     15  C   UNL     1     178.359 177.579 170.416  0.00  0.00    +0.277 A 
BRANCH  15  16
ATOM     16  N   UNL     1     177.872 177.553 171.752  0.00  0.00    +0.080 N 
ATOM     17  O   UNL     1     178.053 178.556 172.482  0.00  0.00    +0.041 OA
ATOM     18  O   UNL     1     177.277 176.527 172.161  0.00  0.00    -0.576 OA
ENDBRANCH  15  16
ENDBRANCH   9  10
BRANCH   1  19
ATOM     19  C   UNL     1     179.763 174.159 170.998  0.00  0.00    +0.337 C 
ATOM     20  O   UNL     1     179.322 173.769 172.062  0.00  0.00    -0.245 OA
BRANCH  19  21
ATOM     21  O   UNL     1     179.357 173.826 169.749  0.00  0.00    -0.465 OA
ATOM     22  C   UNL     1     177.948 173.931 169.520  0.00  0.00    +0.280 C 
ENDBRANCH  19  21
ENDBRANCH   1  19
BRANCH   8  23
ATOM     23  C   UNL     1     181.596 178.835 171.783  0.00  0.00    +0.337 C 
ATOM     24  O   UNL     1     181.440 179.098 172.961  0.00  0.00    -0.245 OA
BRANCH  23  25
ATOM     25  O   UNL     1     181.622 179.688 170.729  0.00  0.00    -0.465 OA
ATOM     26  C   UNL     1     180.534 180.615 170.672  0.00  0.00    +0.280 C 
ENDBRANCH  23  25
ENDBRANCH   8  23
TORSDOF 6
