MODEL 1
REMARK VINA RESULT:    -6.744      0.000      0.000
REMARK INTER + INTRA:          -8.013
REMARK INTER:                  -7.927
REMARK INTRA:                  -0.086
REMARK UNBOUND:                -0.086
REMARK  Name = 287064
REMARK  5 active torsions:
REMARK  status: ('A' for Active; 'I' for Inactive)
REMARK    1  A    between atoms: O_1  and  C_11
REMARK    2  A    between atoms: O_1  and  C_12
REMARK    3  A    between atoms: O_2  and  C_8
REMARK    4  A    between atoms: O_3  and  C_9
REMARK    5  A    between atoms: C_5  and  C_11
REMARK                            x       y       z     vdW  Elec       q    Type
REMARK                         _______ _______ _______ _____ _____    ______ ____
ROOT
ATOM      1  C   UNL     1      80.989  83.310 102.919  0.00  0.00    +0.000 A 
ATOM      2  C   UNL     1      80.553  84.634 102.870  0.00  0.00    +0.000 A 
ATOM      3  C   UNL     1      81.453  82.684 101.762  0.00  0.00    +0.000 A 
ATOM      4  C   UNL     1      80.581  85.332 101.663  0.00  0.00    +0.000 A 
ATOM      5  C   UNL     1      81.044  84.706 100.505  0.00  0.00    +0.000 A 
ATOM      6  C   UNL     1      81.480  83.382 100.554  0.00  0.00    +0.000 A 
ENDROOT
BRANCH   4   7
ATOM      7  O   UNL     1      80.152  86.624 101.625  0.00  0.00    +0.000 OA
ATOM      8  H   UNL     1      79.704  86.823 102.466  0.00  0.00    +0.000 HD
ENDBRANCH   4   7
BRANCH   5   9
ATOM      9  O   UNL     1      81.075  85.378  99.320  0.00  0.00    +0.000 OA
ATOM     10  H   UNL     1      81.953  85.780  99.208  0.00  0.00    +0.000 HD
ENDBRANCH   5   9
BRANCH   1  12
ATOM     11  O   UNL     1      81.879  81.856 104.564  0.00  0.00    +0.000 OA
ATOM     12  C   UNL     1      80.959  82.581 104.178  0.00  0.00    +0.000 C 
BRANCH  12  13
ATOM     13  O   UNL     1      79.806  82.778 104.897  0.00  0.00    +0.000 OA
ATOM     14  C   UNL     1      79.635  81.964 106.061  0.00  0.00    +0.000 C 
ENDBRANCH  12  13
ENDBRANCH   1  12
TORSDOF 4
ENDMDL
MODEL 2
REMARK VINA RESULT:    -6.704      2.703      3.943
REMARK INTER + INTRA:          -7.966
REMARK INTER:                  -7.862
REMARK INTRA:                  -0.104
REMARK UNBOUND:                -0.086
REMARK  Name = 287064
REMARK  5 active torsions:
REMARK  status: ('A' for Active; 'I' for Inactive)
REMARK    1  A    between atoms: O_1  and  C_11
REMARK    2  A    between atoms: O_1  and  C_12
REMARK    3  A    between atoms: O_2  and  C_8
REMARK    4  A    between atoms: O_3  and  C_9
REMARK    5  A    between atoms: C_5  and  C_11
REMARK                            x       y       z     vdW  Elec       q    Type
REMARK                         _______ _______ _______ _____ _____    ______ ____
ROOT
ATOM      1  C   UNL     1      82.477  85.436 100.531  0.00  0.00    +0.000 A 
ATOM      2  C   UNL     1      81.678  85.578  99.396  0.00  0.00    +0.000 A 
ATOM      3  C   UNL     1      82.893  86.564 101.237  0.00  0.00    +0.000 A 
ATOM      4  C   UNL     1      81.296  86.849  98.968  0.00  0.00    +0.000 A 
ATOM      5  C   UNL     1      81.713  87.978  99.673  0.00  0.00    +0.000 A 
ATOM      6  C   UNL     1      82.511  87.836 100.808  0.00  0.00    +0.000 A 
ENDROOT
BRANCH   4   7
ATOM      7  O   UNL     1      80.517  86.977  97.857  0.00  0.00    +0.000 OA
ATOM      8  H   UNL     1      79.603  87.148  98.142  0.00  0.00    +0.000 HD
ENDBRANCH   4   7
BRANCH   5   9
ATOM      9  O   UNL     1      81.346  89.224  99.264  0.00  0.00    +0.000 OA
ATOM     10  H   UNL     1      80.438  89.402  99.563  0.00  0.00    +0.000 HD
ENDBRANCH   5   9
BRANCH   1  12
ATOM     11  O   UNL     1      84.012  83.656 100.821  0.00  0.00    +0.000 OA
ATOM     12  C   UNL     1      82.877  84.110 100.977  0.00  0.00    +0.000 C 
BRANCH  12  13
ATOM     13  O   UNL     1      81.865  83.412 101.591  0.00  0.00    +0.000 OA
ATOM     14  C   UNL     1      82.037  83.138 102.986  0.00  0.00    +0.000 C 
ENDBRANCH  12  13
ENDBRANCH   1  12
TORSDOF 4
ENDMDL
MODEL 3
REMARK VINA RESULT:    -6.699      1.698      1.901
REMARK INTER + INTRA:          -7.960
REMARK INTER:                  -7.847
REMARK INTRA:                  -0.113
REMARK UNBOUND:                -0.086
REMARK  Name = 287064
REMARK  5 active torsions:
REMARK  status: ('A' for Active; 'I' for Inactive)
REMARK    1  A    between atoms: O_1  and  C_11
REMARK    2  A    between atoms: O_1  and  C_12
REMARK    3  A    between atoms: O_2  and  C_8
REMARK    4  A    between atoms: O_3  and  C_9
REMARK    5  A    between atoms: C_5  and  C_11
REMARK                            x       y       z     vdW  Elec       q    Type
REMARK                         _______ _______ _______ _____ _____    ______ ____
ROOT
ATOM      1  C   UNL     1      80.784  83.661 102.380  0.00  0.00    +0.000 A 
ATOM      2  C   UNL     1      81.163  84.980 102.634  0.00  0.00    +0.000 A 
ATOM      3  C   UNL     1      81.478  82.906 101.435  0.00  0.00    +0.000 A 
ATOM      4  C   UNL     1      82.235  85.543 101.941  0.00  0.00    +0.000 A 
ATOM      5  C   UNL     1      82.928  84.788 100.996  0.00  0.00    +0.000 A 
ATOM      6  C   UNL     1      82.550  83.470 100.741  0.00  0.00    +0.000 A 
ENDROOT
BRANCH   4   7
ATOM      7  O   UNL     1      82.595  86.832 102.196  0.00  0.00    +0.000 OA
ATOM      8  H   UNL     1      82.435  87.359 101.395  0.00  0.00    +0.000 HD
ENDBRANCH   4   7
BRANCH   5   9
ATOM      9  O   UNL     1      83.976  85.327 100.313  0.00  0.00    +0.000 OA
ATOM     10  H   UNL     1      84.672  85.575 100.945  0.00  0.00    +0.000 HD
ENDBRANCH   5   9
BRANCH   1  12
ATOM     11  O   UNL     1      78.739  82.479 102.547  0.00  0.00    +0.000 OA
ATOM     12  C   UNL     1      79.666  83.074 103.101  0.00  0.00    +0.000 C 
BRANCH  12  13
ATOM     13  O   UNL     1      79.741  83.247 104.461  0.00  0.00    +0.000 OA
ATOM     14  C   UNL     1      80.010  82.074 105.238  0.00  0.00    +0.000 C 
ENDBRANCH  12  13
ENDBRANCH   1  12
TORSDOF 4
ENDMDL
MODEL 4
REMARK VINA RESULT:    -6.646      1.841      2.545
REMARK INTER + INTRA:          -7.897
REMARK INTER:                  -7.801
REMARK INTRA:                  -0.096
REMARK UNBOUND:                -0.086
REMARK  Name = 287064
REMARK  5 active torsions:
REMARK  status: ('A' for Active; 'I' for Inactive)
REMARK    1  A    between atoms: O_1  and  C_11
REMARK    2  A    between atoms: O_1  and  C_12
REMARK    3  A    between atoms: O_2  and  C_8
REMARK    4  A    between atoms: O_3  and  C_9
REMARK    5  A    between atoms: C_5  and  C_11
REMARK                            x       y       z     vdW  Elec       q    Type
REMARK                         _______ _______ _______ _____ _____    ______ ____
ROOT
ATOM      1  C   UNL     1      81.478  83.508 102.268  0.00  0.00    +0.000 A 
ATOM      2  C   UNL     1      81.822  84.860 102.283  0.00  0.00    +0.000 A 
ATOM      3  C   UNL     1      80.392  83.073 101.508  0.00  0.00    +0.000 A 
ATOM      4  C   UNL     1      81.080  85.776 101.539  0.00  0.00    +0.000 A 
ATOM      5  C   UNL     1      79.994  85.342 100.779  0.00  0.00    +0.000 A 
ATOM      6  C   UNL     1      79.650  83.990 100.764  0.00  0.00    +0.000 A 
ENDROOT
BRANCH   4   7
ATOM      7  O   UNL     1      81.424  87.094 101.562  0.00  0.00    +0.000 OA
ATOM      8  H   UNL     1      82.391  87.160 101.484  0.00  0.00    +0.000 HD
ENDBRANCH   4   7
BRANCH   5   9
ATOM      9  O   UNL     1      79.262  86.228 100.048  0.00  0.00    +0.000 OA
ATOM     10  H   UNL     1      78.318  86.014 100.144  0.00  0.00    +0.000 HD
ENDBRANCH   5   9
BRANCH   1  12
ATOM     11  O   UNL     1      82.263  82.533 104.279  0.00  0.00    +0.000 OA
ATOM     12  C   UNL     1      82.251  82.552 103.046  0.00  0.00    +0.000 C 
BRANCH  12  13
ATOM     13  O   UNL     1      82.966  81.671 102.274  0.00  0.00    +0.000 OA
ATOM     14  C   UNL     1      84.175  82.171 101.693  0.00  0.00    +0.000 C 
ENDBRANCH  12  13
ENDBRANCH   1  12
TORSDOF 4
ENDMDL
MODEL 5
REMARK VINA RESULT:    -6.633      2.177      3.176
REMARK INTER + INTRA:          -7.882
REMARK INTER:                  -7.767
REMARK INTRA:                  -0.115
REMARK UNBOUND:                -0.086
REMARK  Name = 287064
REMARK  5 active torsions:
REMARK  status: ('A' for Active; 'I' for Inactive)
REMARK    1  A    between atoms: O_1  and  C_11
REMARK    2  A    between atoms: O_1  and  C_12
REMARK    3  A    between atoms: O_2  and  C_8
REMARK    4  A    between atoms: O_3  and  C_9
REMARK    5  A    between atoms: C_5  and  C_11
REMARK                            x       y       z     vdW  Elec       q    Type
REMARK                         _______ _______ _______ _____ _____    ______ ____
ROOT
ATOM      1  C   UNL     1      81.970  83.365 102.014  0.00  0.00    +0.000 A 
ATOM      2  C   UNL     1      80.657  82.943 101.801  0.00  0.00    +0.000 A 
ATOM      3  C   UNL     1      82.356  84.654 101.646  0.00  0.00    +0.000 A 
ATOM      4  C   UNL     1      79.732  83.810 101.219  0.00  0.00    +0.000 A 
ATOM      5  C   UNL     1      80.119  85.098 100.852  0.00  0.00    +0.000 A 
ATOM      6  C   UNL     1      81.431  85.521 101.064  0.00  0.00    +0.000 A 
ENDROOT
BRANCH   4   7
ATOM      7  O   UNL     1      78.453  83.387 101.015  0.00  0.00    +0.000 OA
ATOM      8  H   UNL     1      78.109  83.034 101.853  0.00  0.00    +0.000 HD
ENDBRANCH   4   7
BRANCH   5   9
ATOM      9  O   UNL     1      79.224  85.954 100.283  0.00  0.00    +0.000 OA
ATOM     10  H   UNL     1      79.056  85.673  99.367  0.00  0.00    +0.000 HD
ENDBRANCH   5   9
BRANCH   1  12
ATOM     11  O   UNL     1      82.761  81.912 103.709  0.00  0.00    +0.000 OA
ATOM     12  C   UNL     1      82.936  82.461 102.619  0.00  0.00    +0.000 C 
BRANCH  12  13
ATOM     13  O   UNL     1      84.063  82.276 101.857  0.00  0.00    +0.000 OA
ATOM     14  C   UNL     1      83.916  81.459 100.691  0.00  0.00    +0.000 C 
ENDBRANCH  12  13
ENDBRANCH   1  12
TORSDOF 4
ENDMDL
MODEL 6
REMARK VINA RESULT:    -6.632      1.955      4.741
REMARK INTER + INTRA:          -7.880
REMARK INTER:                  -7.782
REMARK INTRA:                  -0.098
REMARK UNBOUND:                -0.086
REMARK  Name = 287064
REMARK  5 active torsions:
REMARK  status: ('A' for Active; 'I' for Inactive)
REMARK    1  A    between atoms: O_1  and  C_11
REMARK    2  A    between atoms: O_1  and  C_12
REMARK    3  A    between atoms: O_2  and  C_8
REMARK    4  A    between atoms: O_3  and  C_9
REMARK    5  A    between atoms: C_5  and  C_11
REMARK                            x       y       z     vdW  Elec       q    Type
REMARK                         _______ _______ _______ _____ _____    ______ ____
ROOT
ATOM      1  C   UNL     1      82.067  84.971 101.923  0.00  0.00    +0.000 A 
ATOM      2  C   UNL     1      81.684  84.195 103.018  0.00  0.00    +0.000 A 
ATOM      3  C   UNL     1      82.979  84.466 100.997  0.00  0.00    +0.000 A 
ATOM      4  C   UNL     1      82.215  82.917 103.186  0.00  0.00    +0.000 A 
ATOM      5  C   UNL     1      83.127  82.413 102.260  0.00  0.00    +0.000 A 
ATOM      6  C   UNL     1      83.510  83.187 101.165  0.00  0.00    +0.000 A 
ENDROOT
BRANCH   4   7
ATOM      7  O   UNL     1      81.834  82.169 104.260  0.00  0.00    +0.000 OA
ATOM      8  H   UNL     1      81.917  82.717 105.060  0.00  0.00    +0.000 HD
ENDBRANCH   4   7
BRANCH   5   9
ATOM      9  O   UNL     1      83.652  81.165 102.414  0.00  0.00    +0.000 OA
ATOM     10  H   UNL     1      84.496  81.233 102.892  0.00  0.00    +0.000 HD
ENDBRANCH   5   9
BRANCH   1  12
ATOM     11  O   UNL     1      80.330  86.520 101.487  0.00  0.00    +0.000 OA
ATOM     12  C   UNL     1      81.515  86.305 101.748  0.00  0.00    +0.000 C 
BRANCH  12  13
ATOM     13  O   UNL     1      82.444  87.305 101.902  0.00  0.00    +0.000 OA
ATOM     14  C   UNL     1      82.593  88.209 100.802  0.00  0.00    +0.000 C 
ENDBRANCH  12  13
ENDBRANCH   1  12
TORSDOF 4
ENDMDL
MODEL 7
REMARK VINA RESULT:    -6.590      3.698      5.227
REMARK INTER + INTRA:          -7.832
REMARK INTER:                  -7.729
REMARK INTRA:                  -0.102
REMARK UNBOUND:                -0.086
REMARK  Name = 287064
REMARK  5 active torsions:
REMARK  status: ('A' for Active; 'I' for Inactive)
REMARK    1  A    between atoms: O_1  and  C_11
REMARK    2  A    between atoms: O_1  and  C_12
REMARK    3  A    between atoms: O_2  and  C_8
REMARK    4  A    between atoms: O_3  and  C_9
REMARK    5  A    between atoms: C_5  and  C_11
REMARK                            x       y       z     vdW  Elec       q    Type
REMARK                         _______ _______ _______ _____ _____    ______ ____
ROOT
ATOM      1  C   UNL     1      82.761  86.613 100.570  0.00  0.00    +0.000 A 
ATOM      2  C   UNL     1      81.379  86.808 100.600  0.00  0.00    +0.000 A 
ATOM      3  C   UNL     1      83.283  85.370 100.215  0.00  0.00    +0.000 A 
ATOM      4  C   UNL     1      80.521  85.758 100.276  0.00  0.00    +0.000 A 
ATOM      5  C   UNL     1      81.043  84.514  99.920  0.00  0.00    +0.000 A 
ATOM      6  C   UNL     1      82.423  84.319  99.890  0.00  0.00    +0.000 A 
ENDROOT
BRANCH   4   7
ATOM      7  O   UNL     1      79.174  85.958 100.309  0.00  0.00    +0.000 OA
ATOM      8  H   UNL     1      79.008  86.909 100.424  0.00  0.00    +0.000 HD
ENDBRANCH   4   7
BRANCH   5   9
ATOM      9  O   UNL     1      80.214  83.481  99.601  0.00  0.00    +0.000 OA
ATOM     10  H   UNL     1      80.533  83.060  98.785  0.00  0.00    +0.000 HD
ENDBRANCH   5   9
BRANCH   1  12
ATOM     11  O   UNL     1      84.871  87.566 101.070  0.00  0.00    +0.000 OA
ATOM     12  C   UNL     1      83.657  87.708 100.911  0.00  0.00    +0.000 C 
BRANCH  12  13
ATOM     13  O   UNL     1      83.018  88.917 101.038  0.00  0.00    +0.000 OA
ATOM     14  C   UNL     1      83.794  90.081 100.733  0.00  0.00    +0.000 C 
ENDBRANCH  12  13
ENDBRANCH   1  12
TORSDOF 4
ENDMDL
MODEL 8
REMARK VINA RESULT:    -6.573      2.093      4.427
REMARK INTER + INTRA:          -7.811
REMARK INTER:                  -7.686
REMARK INTRA:                  -0.125
REMARK UNBOUND:                -0.086
REMARK  Name = 287064
REMARK  5 active torsions:
REMARK  status: ('A' for Active; 'I' for Inactive)
REMARK    1  A    between atoms: O_1  and  C_11
REMARK    2  A    between atoms: O_1  and  C_12
REMARK    3  A    between atoms: O_2  and  C_8
REMARK    4  A    between atoms: O_3  and  C_9
REMARK    5  A    between atoms: C_5  and  C_11
REMARK                            x       y       z     vdW  Elec       q    Type
REMARK                         _______ _______ _______ _____ _____    ______ ____
ROOT
ATOM      1  C   UNL     1      81.897  85.094 101.420  0.00  0.00    +0.000 A 
ATOM      2  C   UNL     1      81.463  84.946 102.738  0.00  0.00    +0.000 A 
ATOM      3  C   UNL     1      81.283  84.369 100.398  0.00  0.00    +0.000 A 
ATOM      4  C   UNL     1      80.417  84.074 103.033  0.00  0.00    +0.000 A 
ATOM      5  C   UNL     1      79.803  83.349 102.012  0.00  0.00    +0.000 A 
ATOM      6  C   UNL     1      80.236  83.496 100.694  0.00  0.00    +0.000 A 
ENDROOT
BRANCH   4   7
ATOM      7  O   UNL     1      80.002  83.937 104.324  0.00  0.00    +0.000 OA
ATOM      8  H   UNL     1      79.947  84.821 104.724  0.00  0.00    +0.000 HD
ENDBRANCH   4   7
BRANCH   5   9
ATOM      9  O   UNL     1      78.779  82.493 102.289  0.00  0.00    +0.000 OA
ATOM     10  H   UNL     1      78.305  82.811 103.075  0.00  0.00    +0.000 HD
ENDBRANCH   5   9
BRANCH   1  12
ATOM     11  O   UNL     1      83.975  85.678 100.444  0.00  0.00    +0.000 OA
ATOM     12  C   UNL     1      82.990  86.003 101.111  0.00  0.00    +0.000 C 
BRANCH  12  13
ATOM     13  O   UNL     1      82.819  87.261 101.635  0.00  0.00    +0.000 OA
ATOM     14  C   UNL     1      82.266  88.246 100.756  0.00  0.00    +0.000 C 
ENDBRANCH  12  13
ENDBRANCH   1  12
TORSDOF 4
ENDMDL
MODEL 9
REMARK VINA RESULT:    -6.482      1.650      4.879
REMARK INTER + INTRA:          -7.705
REMARK INTER:                  -7.589
REMARK INTRA:                  -0.116
REMARK UNBOUND:                -0.086
REMARK  Name = 287064
REMARK  5 active torsions:
REMARK  status: ('A' for Active; 'I' for Inactive)
REMARK    1  A    between atoms: O_1  and  C_11
REMARK    2  A    between atoms: O_1  and  C_12
REMARK    3  A    between atoms: O_2  and  C_8
REMARK    4  A    between atoms: O_3  and  C_9
REMARK    5  A    between atoms: C_5  and  C_11
REMARK                            x       y       z     vdW  Elec       q    Type
REMARK                         _______ _______ _______ _____ _____    ______ ____
ROOT
ATOM      1  C   UNL     1      81.058  83.284 101.255  0.00  0.00    +0.000 A 
ATOM      2  C   UNL     1      82.218  82.784 101.848  0.00  0.00    +0.000 A 
ATOM      3  C   UNL     1      79.884  83.391 102.002  0.00  0.00    +0.000 A 
ATOM      4  C   UNL     1      82.203  82.391 103.186  0.00  0.00    +0.000 A 
ATOM      5  C   UNL     1      81.030  82.498 103.932  0.00  0.00    +0.000 A 
ATOM      6  C   UNL     1      79.870  82.998 103.340  0.00  0.00    +0.000 A 
ENDROOT
BRANCH   4   7
ATOM      7  O   UNL     1      83.342  81.904 103.754  0.00  0.00    +0.000 OA
ATOM      8  H   UNL     1      83.658  81.159 103.215  0.00  0.00    +0.000 HD
ENDBRANCH   4   7
BRANCH   5   9
ATOM      9  O   UNL     1      81.003  82.118 105.240  0.00  0.00    +0.000 OA
ATOM     10  H   UNL     1      81.388  81.228 105.318  0.00  0.00    +0.000 HD
ENDBRANCH   5   9
BRANCH   1  12
ATOM     11  O   UNL     1      80.453  83.100  98.973  0.00  0.00    +0.000 OA
ATOM     12  C   UNL     1      81.072  83.692  99.859  0.00  0.00    +0.000 C 
BRANCH  12  13
ATOM     13  O   UNL     1      81.843  84.804  99.623  0.00  0.00    +0.000 OA
ATOM     14  C   UNL     1      81.205  86.072  99.810  0.00  0.00    +0.000 C 
ENDBRANCH  12  13
ENDBRANCH   1  12
TORSDOF 4
ENDMDL
MODEL 10
REMARK VINA RESULT:    -6.450      1.536      4.408
REMARK INTER + INTRA:          -7.666
REMARK INTER:                  -7.633
REMARK INTRA:                  -0.033
REMARK UNBOUND:                -0.086
REMARK  Name = 287064
REMARK  5 active torsions:
REMARK  status: ('A' for Active; 'I' for Inactive)
REMARK    1  A    between atoms: O_1  and  C_11
REMARK    2  A    between atoms: O_1  and  C_12
REMARK    3  A    between atoms: O_2  and  C_8
REMARK    4  A    between atoms: O_3  and  C_9
REMARK    5  A    between atoms: C_5  and  C_11
REMARK                            x       y       z     vdW  Elec       q    Type
REMARK                         _______ _______ _______ _____ _____    ______ ____
ROOT
ATOM      1  C   UNL     1      80.968  83.537 101.559  0.00  0.00    +0.000 A 
ATOM      2  C   UNL     1      80.749  83.181 102.890  0.00  0.00    +0.000 A 
ATOM      3  C   UNL     1      82.152  83.162 100.923  0.00  0.00    +0.000 A 
ATOM      4  C   UNL     1      81.712  82.450 103.584  0.00  0.00    +0.000 A 
ATOM      5  C   UNL     1      82.896  82.075 102.948  0.00  0.00    +0.000 A 
ATOM      6  C   UNL     1      83.116  82.431 101.618  0.00  0.00    +0.000 A 
ENDROOT
BRANCH   4   7
ATOM      7  O   UNL     1      81.488  82.108 104.883  0.00  0.00    +0.000 OA
ATOM      8  H   UNL     1      81.784  82.841 105.449  0.00  0.00    +0.000 HD
ENDBRANCH   4   7
BRANCH   5   9
ATOM      9  O   UNL     1      83.845  81.361 103.616  0.00  0.00    +0.000 OA
ATOM     10  H   UNL     1      83.410  80.803 104.283  0.00  0.00    +0.000 HD
ENDBRANCH   5   9
BRANCH   1  12
ATOM     11  O   UNL     1      78.787  83.950 100.735  0.00  0.00    +0.000 OA
ATOM     12  C   UNL     1      79.964  84.301 100.835  0.00  0.00    +0.000 C 
BRANCH  12  13
ATOM     13  O   UNL     1      80.454  85.455 100.274  0.00  0.00    +0.000 OA
ATOM     14  C   UNL     1      80.957  86.441 101.182  0.00  0.00    +0.000 C 
ENDBRANCH  12  13
ENDBRANCH   1  12
TORSDOF 4
ENDMDL
