MODEL 1
REMARK VINA RESULT:      -6.3      0.000      0.000
REMARK  Name = 445858
REMARK                            x       y       z     vdW  Elec       q    Type
REMARK                         _______ _______ _______ _____ _____    ______ ____
ROOT
ATOM      3  C   LIG    1        6.725  45.702  19.048  0.00  0.00    +0.162 A 
ATOM      4  C   LIG    1        6.496  47.004  19.495  0.00  0.00    +0.158 A 
ATOM      5  C   LIG    1        5.478  47.257  20.413  0.00  0.00    +0.050 A 
ATOM      6  C   LIG    1        4.688  46.208  20.885  0.00  0.00    +0.012 A 
ATOM      7  C   LIG    1        4.917  44.908  20.439  0.00  0.00    -0.021 A 
ATOM     16  C   LIG    1        5.935  44.654  19.521  0.00  0.00    +0.057 A 
ENDROOT
BRANCH   3   1
ATOM      1  O   LIG    1        7.717  45.443  18.150  0.00  0.00    -0.491 OA
ATOM      2  C   LIG    1        8.927  44.889  18.664  0.00  0.00    +0.277 C 
ENDBRANCH   3   1
BRANCH   7   8
ATOM      8  C   LIG    1        4.094  43.815  20.932  0.00  0.00    +0.015 C 
ATOM      9  C   LIG    1        2.999  43.950  21.712  0.00  0.00    +0.092 C 
BRANCH   9  10
ATOM     10  C   LIG    1        2.241  42.757  22.140  0.00  0.00    +0.330 C 
ATOM     11  O   LIG    1        2.476  42.059  23.112  0.00  0.00    -0.246 OA
BRANCH  10  12
ATOM     12  O   LIG    1        1.224  42.554  21.269  0.00  0.00    -0.478 OA
ATOM     13  H   LIG    1        1.533  42.553  20.338  0.00  0.00    +0.295 HD
ENDBRANCH  10  12
ENDBRANCH   9  10
ENDBRANCH   7   8
BRANCH   4  14
ATOM     14  O   LIG    1        7.260  48.036  19.040  0.00  0.00    -0.503 OA
ATOM     15  H   LIG    1        7.575  47.826  18.143  0.00  0.00    +0.292 HD
ENDBRANCH   4  14
TORSDOF 5
ENDMDL
MODEL 2
REMARK VINA RESULT:      -6.0      1.952      6.289
REMARK  Name = 445858
REMARK                            x       y       z     vdW  Elec       q    Type
REMARK                         _______ _______ _______ _____ _____    ______ ____
ROOT
ATOM      3  C   LIG    1        2.615  42.231  23.048  0.00  0.00    +0.162 A 
ATOM      4  C   LIG    1        3.214  42.382  24.300  0.00  0.00    +0.158 A 
ATOM      5  C   LIG    1        4.079  43.451  24.534  0.00  0.00    +0.050 A 
ATOM      6  C   LIG    1        4.345  44.369  23.518  0.00  0.00    +0.012 A 
ATOM      7  C   LIG    1        3.747  44.218  22.268  0.00  0.00    -0.021 A 
ATOM     16  C   LIG    1        2.882  43.149  22.032  0.00  0.00    +0.057 A 
ENDROOT
BRANCH   3   1
ATOM      1  O   LIG    1        1.769  41.191  22.807  0.00  0.00    -0.491 OA
ATOM      2  C   LIG    1        2.291  40.092  22.063  0.00  0.00    +0.277 C 
ENDBRANCH   3   1
BRANCH   7   8
ATOM      8  C   LIG    1        4.024  45.175  21.209  0.00  0.00    +0.015 C 
ATOM      9  C   LIG    1        5.098  45.994  21.156  0.00  0.00    +0.092 C 
BRANCH   9  10
ATOM     10  C   LIG    1        5.270  46.918  20.017  0.00  0.00    +0.330 C 
ATOM     11  O   LIG    1        5.279  48.137  20.067  0.00  0.00    -0.246 OA
BRANCH  10  12
ATOM     12  O   LIG    1        5.420  46.189  18.886  0.00  0.00    -0.478 OA
ATOM     13  H   LIG    1        4.588  45.740  18.626  0.00  0.00    +0.295 HD
ENDBRANCH  10  12
ENDBRANCH   9  10
ENDBRANCH   7   8
BRANCH   4  14
ATOM     14  O   LIG    1        2.962  41.492  25.299  0.00  0.00    -0.503 OA
ATOM     15  H   LIG    1        2.871  40.602  24.916  0.00  0.00    +0.292 HD
ENDBRANCH   4  14
TORSDOF 5
ENDMDL
MODEL 3
REMARK VINA RESULT:      -6.0      1.979      6.481
REMARK  Name = 445858
REMARK                            x       y       z     vdW  Elec       q    Type
REMARK                         _______ _______ _______ _____ _____    ______ ____
ROOT
ATOM      3  C   LIG    1        3.043  42.428  23.797  0.00  0.00    +0.162 A 
ATOM      4  C   LIG    1        2.261  41.809  22.821  0.00  0.00    +0.158 A 
ATOM      5  C   LIG    1        2.228  42.321  21.525  0.00  0.00    +0.050 A 
ATOM      6  C   LIG    1        2.977  43.454  21.203  0.00  0.00    +0.012 A 
ATOM      7  C   LIG    1        3.758  44.072  22.178  0.00  0.00    -0.021 A 
ATOM     16  C   LIG    1        3.792  43.561  23.475  0.00  0.00    +0.057 A 
ENDROOT
BRANCH   3   1
ATOM      1  O   LIG    1        3.082  41.937  25.067  0.00  0.00    -0.491 OA
ATOM      2  C   LIG    1        3.967  42.581  25.982  0.00  0.00    +0.277 C 
ENDBRANCH   3   1
BRANCH   7   8
ATOM      8  C   LIG    1        4.540  45.252  21.842  0.00  0.00    +0.015 C 
ATOM      9  C   LIG    1        4.775  45.704  20.590  0.00  0.00    +0.092 C 
BRANCH   9  10
ATOM     10  C   LIG    1        5.580  46.924  20.382  0.00  0.00    +0.330 C 
ATOM     11  O   LIG    1        5.168  48.008  20.002  0.00  0.00    -0.246 OA
BRANCH  10  12
ATOM     12  O   LIG    1        6.870  46.651  20.684  0.00  0.00    -0.478 OA
ATOM     13  H   LIG    1        7.455  47.423  20.532  0.00  0.00    +0.295 HD
ENDBRANCH  10  12
ENDBRANCH   9  10
ENDBRANCH   7   8
BRANCH   4  14
ATOM     14  O   LIG    1        1.524  40.704  23.124  0.00  0.00    -0.503 OA
ATOM     15  H   LIG    1        1.793  39.974  22.539  0.00  0.00    +0.292 HD
ENDBRANCH   4  14
TORSDOF 5
ENDMDL
MODEL 4
REMARK VINA RESULT:      -5.9     26.841     28.084
REMARK  Name = 445858
REMARK                            x       y       z     vdW  Elec       q    Type
REMARK                         _______ _______ _______ _____ _____    ______ ____
ROOT
ATOM      3  C   LIG    1       12.694  69.157   7.750  0.00  0.00    +0.162 A 
ATOM      4  C   LIG    1       13.355  68.328   6.843  0.00  0.00    +0.158 A 
ATOM      5  C   LIG    1       14.470  67.597   7.253  0.00  0.00    +0.050 A 
ATOM      6  C   LIG    1       14.924  67.695   8.568  0.00  0.00    +0.012 A 
ATOM      7  C   LIG    1       14.263  68.524   9.474  0.00  0.00    -0.021 A 
ATOM     16  C   LIG    1       13.148  69.255   9.065  0.00  0.00    +0.057 A 
ENDROOT
BRANCH   3   1
ATOM      1  O   LIG    1       11.604  69.877   7.361  0.00  0.00    -0.491 OA
ATOM      2  C   LIG    1       11.810  71.259   7.074  0.00  0.00    +0.277 C 
ENDBRANCH   3   1
BRANCH   7   8
ATOM      8  C   LIG    1       14.736  68.625  10.845  0.00  0.00    +0.015 C 
ATOM      9  C   LIG    1       15.912  68.144  11.305  0.00  0.00    +0.092 C 
BRANCH   9  10
ATOM     10  C   LIG    1       16.282  68.321  12.723  0.00  0.00    +0.330 C 
ATOM     11  O   LIG    1       17.112  69.099  13.165  0.00  0.00    -0.246 OA
BRANCH  10  12
ATOM     12  O   LIG    1       15.543  67.471  13.474  0.00  0.00    -0.478 OA
ATOM     13  H   LIG    1       16.055  67.104  14.225  0.00  0.00    +0.295 HD
ENDBRANCH  10  12
ENDBRANCH   9  10
ENDBRANCH   7   8
BRANCH   4  14
ATOM     14  O   LIG    1       12.922  68.225   5.556  0.00  0.00    -0.503 OA
ATOM     15  H   LIG    1       13.306  67.425   5.156  0.00  0.00    +0.292 HD
ENDBRANCH   4  14
TORSDOF 5
ENDMDL
MODEL 5
REMARK VINA RESULT:      -5.7      1.828      1.866
REMARK  Name = 445858
REMARK                            x       y       z     vdW  Elec       q    Type
REMARK                         _______ _______ _______ _____ _____    ______ ____
ROOT
ATOM      3  C   LIG    1        7.400  45.480  21.195  0.00  0.00    +0.162 A 
ATOM      4  C   LIG    1        7.044  46.451  20.259  0.00  0.00    +0.158 A 
ATOM      5  C   LIG    1        5.698  46.696  19.987  0.00  0.00    +0.050 A 
ATOM      6  C   LIG    1        4.708  45.971  20.651  0.00  0.00    +0.012 A 
ATOM      7  C   LIG    1        5.064  45.001  21.586  0.00  0.00    -0.021 A 
ATOM     16  C   LIG    1        6.410  44.755  21.859  0.00  0.00    +0.057 A 
ENDROOT
BRANCH   3   1
ATOM      1  O   LIG    1        8.711  45.230  21.469  0.00  0.00    -0.491 OA
ATOM      2  C   LIG    1        9.168  45.538  22.785  0.00  0.00    +0.277 C 
ENDBRANCH   3   1
BRANCH   7   8
ATOM      8  C   LIG    1        4.033  44.246  22.279  0.00  0.00    +0.015 C 
ATOM      9  C   LIG    1        3.322  43.224  21.750  0.00  0.00    +0.092 C 
BRANCH   9  10
ATOM     10  C   LIG    1        2.305  42.530  22.564  0.00  0.00    +0.330 C 
ATOM     11  O   LIG    1        2.462  42.072  23.684  0.00  0.00    -0.246 OA
BRANCH  10  12
ATOM     12  O   LIG    1        1.149  42.478  21.863  0.00  0.00    -0.478 OA
ATOM     13  H   LIG    1        0.783  43.372  21.691  0.00  0.00    +0.295 HD
ENDBRANCH  10  12
ENDBRANCH   9  10
ENDBRANCH   7   8
BRANCH   4  14
ATOM     14  O   LIG    1        8.001  47.164  19.603  0.00  0.00    -0.503 OA
ATOM     15  H   LIG    1        8.447  47.752  20.237  0.00  0.00    +0.292 HD
ENDBRANCH   4  14
TORSDOF 5
ENDMDL
MODEL 6
REMARK VINA RESULT:      -5.5     27.313     28.539
REMARK  Name = 445858
REMARK                            x       y       z     vdW  Elec       q    Type
REMARK                         _______ _______ _______ _____ _____    ______ ____
ROOT
ATOM      3  C   LIG    1       17.610  68.544  10.670  0.00  0.00    +0.162 A 
ATOM      4  C   LIG    1       17.497  68.204  12.019  0.00  0.00    +0.158 A 
ATOM      5  C   LIG    1       16.241  68.159  12.623  0.00  0.00    +0.050 A 
ATOM      6  C   LIG    1       15.098  68.453  11.880  0.00  0.00    +0.012 A 
ATOM      7  C   LIG    1       15.211  68.793  10.532  0.00  0.00    -0.021 A 
ATOM     16  C   LIG    1       16.467  68.838   9.927  0.00  0.00    +0.057 A 
ENDROOT
BRANCH   3   1
ATOM      1  O   LIG    1       18.832  68.593  10.069  0.00  0.00    -0.491 OA
ATOM      2  C   LIG    1       19.433  69.878   9.928  0.00  0.00    +0.277 C 
ENDBRANCH   3   1
BRANCH   7   8
ATOM      8  C   LIG    1       14.020  69.099   9.757  0.00  0.00    +0.015 C 
ATOM      9  C   LIG    1       13.749  70.289   9.175  0.00  0.00    +0.092 C 
BRANCH   9  10
ATOM     10  C   LIG    1       12.503  70.469   8.403  0.00  0.00    +0.330 C 
ATOM     11  O   LIG    1       12.026  69.682   7.602  0.00  0.00    -0.246 OA
BRANCH  10  12
ATOM     12  O   LIG    1       11.961  71.666   8.729  0.00  0.00    -0.478 OA
ATOM     13  H   LIG    1       11.446  71.621   9.563  0.00  0.00    +0.295 HD
ENDBRANCH  10  12
ENDBRANCH   9  10
ENDBRANCH   7   8
BRANCH   4  14
ATOM     14  O   LIG    1       18.606  67.916  12.755  0.00  0.00    -0.503 OA
ATOM     15  H   LIG    1       19.328  67.660  12.154  0.00  0.00    +0.292 HD
ENDBRANCH   4  14
TORSDOF 5
ENDMDL
MODEL 7
REMARK VINA RESULT:      -5.5      3.873      5.945
REMARK  Name = 445858
REMARK                            x       y       z     vdW  Elec       q    Type
REMARK                         _______ _______ _______ _____ _____    ______ ____
ROOT
ATOM      3  C   LIG    1       11.428  44.033  18.879  0.00  0.00    +0.162 A 
ATOM      4  C   LIG    1       11.174  42.959  19.732  0.00  0.00    +0.158 A 
ATOM      5  C   LIG    1       10.058  42.982  20.568  0.00  0.00    +0.050 A 
ATOM      6  C   LIG    1        9.197  44.080  20.553  0.00  0.00    +0.012 A 
ATOM      7  C   LIG    1        9.452  45.153  19.700  0.00  0.00    -0.021 A 
ATOM     16  C   LIG    1       10.567  45.130  18.863  0.00  0.00    +0.057 A 
ENDROOT
BRANCH   3   1
ATOM      1  O   LIG    1       12.515  44.022  18.057  0.00  0.00    -0.491 OA
ATOM      2  C   LIG    1       12.601  45.060  17.083  0.00  0.00    +0.277 C 
ENDBRANCH   3   1
BRANCH   7   8
ATOM      8  C   LIG    1        8.554  46.296  19.683  0.00  0.00    +0.015 C 
ATOM      9  C   LIG    1        7.203  46.231  19.670  0.00  0.00    +0.092 C 
BRANCH   9  10
ATOM     10  C   LIG    1        6.401  47.470  19.663  0.00  0.00    +0.330 C 
ATOM     11  O   LIG    1        5.295  47.620  20.157  0.00  0.00    -0.246 OA
BRANCH  10  12
ATOM     12  O   LIG    1        7.096  48.433  19.013  0.00  0.00    -0.478 OA
ATOM     13  H   LIG    1        7.061  49.292  19.485  0.00  0.00    +0.295 HD
ENDBRANCH  10  12
ENDBRANCH   9  10
ENDBRANCH   7   8
BRANCH   4  14
ATOM     14  O   LIG    1       12.008  41.882  19.757  0.00  0.00    -0.503 OA
ATOM     15  H   LIG    1       12.176  41.590  18.844  0.00  0.00    +0.292 HD
ENDBRANCH   4  14
TORSDOF 5
ENDMDL
MODEL 8
REMARK VINA RESULT:      -5.5     26.782     27.753
REMARK  Name = 445858
REMARK                            x       y       z     vdW  Elec       q    Type
REMARK                         _______ _______ _______ _____ _____    ______ ____
ROOT
ATOM      3  C   LIG    1       14.609  67.507   7.115  0.00  0.00    +0.162 A 
ATOM      4  C   LIG    1       13.439  68.094   6.632  0.00  0.00    +0.158 A 
ATOM      5  C   LIG    1       12.671  68.906   7.466  0.00  0.00    +0.050 A 
ATOM      6  C   LIG    1       13.072  69.131   8.783  0.00  0.00    +0.012 A 
ATOM      7  C   LIG    1       14.240  68.544   9.266  0.00  0.00    -0.021 A 
ATOM     16  C   LIG    1       15.010  67.732   8.432  0.00  0.00    +0.057 A 
ENDROOT
BRANCH   3   1
ATOM      1  O   LIG    1       15.367  66.711   6.310  0.00  0.00    -0.491 OA
ATOM      2  C   LIG    1       16.776  66.720   6.532  0.00  0.00    +0.277 C 
ENDBRANCH   3   1
BRANCH   7   8
ATOM      8  C   LIG    1       14.659  68.779  10.638  0.00  0.00    +0.015 C 
ATOM      9  C   LIG    1       15.600  68.071  11.302  0.00  0.00    +0.092 C 
BRANCH   9  10
ATOM     10  C   LIG    1       15.943  68.418  12.695  0.00  0.00    +0.330 C 
ATOM     11  O   LIG    1       16.498  69.436  13.074  0.00  0.00    -0.246 OA
BRANCH  10  12
ATOM     12  O   LIG    1       15.536  67.412  13.505  0.00  0.00    -0.478 OA
ATOM     13  H   LIG    1       16.282  67.024  14.010  0.00  0.00    +0.295 HD
ENDBRANCH  10  12
ENDBRANCH   9  10
ENDBRANCH   7   8
BRANCH   4  14
ATOM     14  O   LIG    1       13.037  67.881   5.348  0.00  0.00    -0.503 OA
ATOM     15  H   LIG    1       13.819  67.710   4.795  0.00  0.00    +0.292 HD
ENDBRANCH   4  14
TORSDOF 5
ENDMDL
MODEL 9
REMARK VINA RESULT:      -5.4     27.051     28.785
REMARK  Name = 445858
REMARK                            x       y       z     vdW  Elec       q    Type
REMARK                         _______ _______ _______ _____ _____    ______ ____
ROOT
ATOM      3  C   LIG    1       18.143  69.310  12.768  0.00  0.00    +0.162 A 
ATOM      4  C   LIG    1       19.084  70.289  13.087  0.00  0.00    +0.158 A 
ATOM      5  C   LIG    1       20.353  70.250  12.509  0.00  0.00    +0.050 A 
ATOM      6  C   LIG    1       20.680  69.233  11.612  0.00  0.00    +0.012 A 
ATOM      7  C   LIG    1       19.740  68.254  11.294  0.00  0.00    -0.021 A 
ATOM     16  C   LIG    1       18.470  68.292  11.872  0.00  0.00    +0.057 A 
ENDROOT
BRANCH   3   1
ATOM      1  O   LIG    1       16.900  69.336  13.327  0.00  0.00    -0.491 OA
ATOM      2  C   LIG    1       15.922  68.459  12.772  0.00  0.00    +0.277 C 
ENDBRANCH   3   1
BRANCH   7   8
ATOM      8  C   LIG    1       20.081  67.194  10.359  0.00  0.00    +0.015 C 
ATOM      9  C   LIG    1       19.463  65.995  10.276  0.00  0.00    +0.092 C 
BRANCH   9  10
ATOM     10  C   LIG    1       19.899  65.004   9.273  0.00  0.00    +0.330 C 
ATOM     11  O   LIG    1       19.177  64.352   8.536  0.00  0.00    -0.246 OA
BRANCH  10  12
ATOM     12  O   LIG    1       21.251  64.929   9.296  0.00  0.00    -0.478 OA
ATOM     13  H   LIG    1       21.567  64.001   9.311  0.00  0.00    +0.295 HD
ENDBRANCH  10  12
ENDBRANCH   9  10
ENDBRANCH   7   8
BRANCH   4  14
ATOM     14  O   LIG    1       18.776  71.286  13.962  0.00  0.00    -0.503 OA
ATOM     15  H   LIG    1       18.424  70.893  14.779  0.00  0.00    +0.292 HD
ENDBRANCH   4  14
TORSDOF 5
ENDMDL
