MODEL 1
REMARK VINA RESULT:      -9.2      0.000      0.000
REMARK  13 active torsions:
REMARK  status: ('A' for Active; 'I' for Inactive)
REMARK    1  A    between atoms: C_2  and  O_12 
REMARK    2  A    between atoms: C_3  and  O_10 
REMARK    3  A    between atoms: C_4  and  O_8 
REMARK    4  A    between atoms: C_5  and  O_6 
REMARK    5  A    between atoms: C_22  and  C_23 
REMARK    6  A    between atoms: O_12  and  C_13 
REMARK    7  A    between atoms: C_13  and  C_14 
REMARK    8  A    between atoms: C_15  and  C_16 
REMARK    9  A    between atoms: C_23  and  O_24 
REMARK   10  A    between atoms: O_24  and  C_25 
REMARK   11  A    between atoms: C_26  and  O_34 
REMARK   12  A    between atoms: C_27  and  O_32 
REMARK   13  A    between atoms: C_28  and  O_30 
ROOT
ATOM      1  O   LIG     1     -26.782   5.317   5.142  0.00  0.00    -0.341 OA
ATOM      2  C   LIG     1     -26.686   6.701   5.468  0.00  0.00     0.282 C 
ATOM      3  C   LIG     1     -26.997   6.925   6.949  0.00  0.00     0.201 C 
ATOM      4  C   LIG     1     -26.122   6.045   7.841  0.00  0.00     0.179 C 
ATOM      5  C   LIG     1     -26.125   4.594   7.361  0.00  0.00     0.177 C 
ATOM      6  C   LIG     1     -25.840   4.517   5.859  0.00  0.00     0.178 C 
ENDROOT
BRANCH   6   7
ATOM      7  C   LIG     1     -25.953   3.089   5.334  0.00  0.00     0.197 C 
BRANCH   7   8
ATOM      8  O   LIG     1     -26.576   2.293   6.325  0.00  0.00    -0.346 OA
BRANCH   8   9
ATOM      9  C   LIG     1     -27.794   1.724   5.858  0.00  0.00     0.281 C 
ATOM     10  O   LIG     1     -28.940   2.410   6.374  0.00  0.00    -0.346 OA
ATOM     11  C   LIG     1     -29.109   2.268   7.782  0.00  0.00     0.197 C 
ATOM     12  C   LIG     1     -29.289   0.802   8.156  0.00  0.00     0.171 C 
ATOM     13  C   LIG     1     -28.092  -0.026   7.682  0.00  0.00     0.178 C 
ATOM     14  C   LIG     1     -27.834   0.225   6.193  0.00  0.00     0.201 C 
BRANCH  12  15
ATOM     15  O   LIG     1     -29.445   0.664   9.561  0.00  0.00    -0.387 OA
ATOM     16  H   LIG     1     -29.739   1.523   9.910  0.00  0.00     0.210 HD
ENDBRANCH  12  15
BRANCH  13  17
ATOM     17  O   LIG     1     -26.938   0.341   8.436  0.00  0.00    -0.386 OA
ATOM     18  H   LIG     1     -27.151   1.158   8.919  0.00  0.00     0.210 HD
ENDBRANCH  13  17
BRANCH  14  19
ATOM     19  O   LIG     1     -28.877  -0.370   5.426  0.00  0.00    -0.384 OA
ATOM     20  H   LIG     1     -29.396  -0.950   6.008  0.00  0.00     0.210 HD
ENDBRANCH  14  19
ENDBRANCH   8   9
ENDBRANCH   7   8
ENDBRANCH   6   7
BRANCH   5  21
ATOM     21  O   LIG     1     -25.129   3.860   8.068  0.00  0.00    -0.386 OA
ATOM     22  H   LIG     1     -25.395   2.924   8.076  0.00  0.00     0.210 HD
ENDBRANCH   5  21
BRANCH   2  23
ATOM     23  O   LIG     1     -27.633   7.444   4.702  0.00  0.00    -0.345 OA
BRANCH  23  24
ATOM     24  C   LIG     1     -28.951   6.957   4.897  0.00  0.00     0.190 C 
BRANCH  24  25
ATOM     25  C   LIG     1     -29.920   8.051   4.581  0.00  0.00     0.001 C 
ATOM     26  C   LIG     1     -30.575   8.140   3.413  0.00  0.00     0.006 C 
BRANCH  26  27
ATOM     27  C   LIG     1     -31.548   9.189   3.063  0.00  0.00    -0.025 A 
ATOM     28  C   LIG     1     -31.364   9.926   1.904  0.00  0.00     0.008 A 
ATOM     29  C   LIG     1     -32.285  10.919   1.573  0.00  0.00     0.001 A 
ATOM     30  C   LIG     1     -33.377  11.164   2.405  0.00  0.00     0.000 A 
ATOM     31  C   LIG     1     -33.550  10.414   3.568  0.00  0.00     0.001 A 
ATOM     32  C   LIG     1     -32.629   9.420   3.899  0.00  0.00     0.008 A 
ENDBRANCH  26  27
ENDBRANCH  24  25
ENDBRANCH  23  24
ENDBRANCH   2  23
BRANCH   4  33
ATOM     33  O   LIG     1     -26.628   6.069   9.176  0.00  0.00    -0.386 OA
ATOM     34  H   LIG     1     -26.381   6.926   9.565  0.00  0.00     0.210 HD
ENDBRANCH   4  33
BRANCH   3  35
ATOM     35  O   LIG     1     -26.754   8.298   7.254  0.00  0.00    -0.384 OA
ATOM     36  H   LIG     1     -26.517   8.753   6.428  0.00  0.00     0.210 HD
ENDBRANCH   3  35
TORSDOF 13
ENDMDL
MODEL 2
REMARK VINA RESULT:      -8.8      2.071      2.682
REMARK  13 active torsions:
REMARK  status: ('A' for Active; 'I' for Inactive)
REMARK    1  A    between atoms: C_2  and  O_12 
REMARK    2  A    between atoms: C_3  and  O_10 
REMARK    3  A    between atoms: C_4  and  O_8 
REMARK    4  A    between atoms: C_5  and  O_6 
REMARK    5  A    between atoms: C_22  and  C_23 
REMARK    6  A    between atoms: O_12  and  C_13 
REMARK    7  A    between atoms: C_13  and  C_14 
REMARK    8  A    between atoms: C_15  and  C_16 
REMARK    9  A    between atoms: C_23  and  O_24 
REMARK   10  A    between atoms: O_24  and  C_25 
REMARK   11  A    between atoms: C_26  and  O_34 
REMARK   12  A    between atoms: C_27  and  O_32 
REMARK   13  A    between atoms: C_28  and  O_30 
ROOT
ATOM      1  O   LIG     1     -26.883   5.456   5.288  0.00  0.00    -0.341 OA
ATOM      2  C   LIG     1     -26.819   6.827   5.674  0.00  0.00     0.282 C 
ATOM      3  C   LIG     1     -27.118   6.978   7.166  0.00  0.00     0.201 C 
ATOM      4  C   LIG     1     -26.211   6.084   8.009  0.00  0.00     0.179 C 
ATOM      5  C   LIG     1     -26.182   4.655   7.467  0.00  0.00     0.177 C 
ATOM      6  C   LIG     1     -25.912   4.652   5.960  0.00  0.00     0.178 C 
ENDROOT
BRANCH   6   7
ATOM      7  C   LIG     1     -25.994   3.245   5.374  0.00  0.00     0.197 C 
BRANCH   7   8
ATOM      8  O   LIG     1     -26.572   2.388   6.341  0.00  0.00    -0.346 OA
BRANCH   8   9
ATOM      9  C   LIG     1     -27.796   1.824   5.882  0.00  0.00     0.281 C 
ATOM     10  O   LIG     1     -28.936   2.512   6.411  0.00  0.00    -0.346 OA
ATOM     11  C   LIG     1     -29.093   2.365   7.820  0.00  0.00     0.197 C 
ATOM     12  C   LIG     1     -29.273   0.898   8.190  0.00  0.00     0.171 C 
ATOM     13  C   LIG     1     -28.083   0.069   7.703  0.00  0.00     0.178 C 
ATOM     14  C   LIG     1     -27.837   0.324   6.213  0.00  0.00     0.201 C 
BRANCH  12  15
ATOM     15  O   LIG     1     -29.417   0.756   9.596  0.00  0.00    -0.387 OA
ATOM     16  H   LIG     1     -29.162   1.601  10.005  0.00  0.00     0.210 HD
ENDBRANCH  12  15
BRANCH  13  17
ATOM     17  O   LIG     1     -26.921   0.430   8.448  0.00  0.00    -0.386 OA
ATOM     18  H   LIG     1     -26.492   1.168   7.981  0.00  0.00     0.210 HD
ENDBRANCH  13  17
BRANCH  14  19
ATOM     19  O   LIG     1     -28.889  -0.266   5.453  0.00  0.00    -0.384 OA
ATOM     20  H   LIG     1     -29.132   0.345   4.737  0.00  0.00     0.210 HD
ENDBRANCH  14  19
ENDBRANCH   8   9
ENDBRANCH   7   8
ENDBRANCH   6   7
BRANCH   5  21
ATOM     21  O   LIG     1     -25.159   3.918   8.131  0.00  0.00    -0.386 OA
ATOM     22  H   LIG     1     -25.524   3.591   8.972  0.00  0.00     0.210 HD
ENDBRANCH   5  21
BRANCH   2  23
ATOM     23  O   LIG     1     -27.793   7.577   4.951  0.00  0.00    -0.345 OA
BRANCH  23  24
ATOM     24  C   LIG     1     -28.988   6.834   4.770  0.00  0.00     0.190 C 
BRANCH  24  25
ATOM     25  C   LIG     1     -29.325   6.812   3.314  0.00  0.00     0.001 C 
ATOM     26  C   LIG     1     -28.432   7.071   2.346  0.00  0.00     0.006 C 
BRANCH  26  27
ATOM     27  C   LIG     1     -28.715   7.047   0.900  0.00  0.00    -0.025 A 
ATOM     28  C   LIG     1     -27.668   6.893   0.006  0.00  0.00     0.008 A 
ATOM     29  C   LIG     1     -27.937   6.870  -1.362  0.00  0.00     0.001 A 
ATOM     30  C   LIG     1     -29.248   7.003  -1.819  0.00  0.00     0.000 A 
ATOM     31  C   LIG     1     -30.292   7.158  -0.907  0.00  0.00     0.001 A 
ATOM     32  C   LIG     1     -30.023   7.180   0.462  0.00  0.00     0.008 A 
ENDBRANCH  26  27
ENDBRANCH  24  25
ENDBRANCH  23  24
ENDBRANCH   2  23
BRANCH   4  33
ATOM     33  O   LIG     1     -26.702   6.037   9.350  0.00  0.00    -0.386 OA
ATOM     34  H   LIG     1     -27.441   5.405   9.367  0.00  0.00     0.210 HD
ENDBRANCH   4  33
BRANCH   3  35
ATOM     35  O   LIG     1     -26.909   8.343   7.528  0.00  0.00    -0.384 OA
ATOM     36  H   LIG     1     -25.951   8.490   7.607  0.00  0.00     0.210 HD
ENDBRANCH   3  35
TORSDOF 13
ENDMDL
MODEL 3
REMARK VINA RESULT:      -8.3      1.701      5.200
REMARK  13 active torsions:
REMARK  status: ('A' for Active; 'I' for Inactive)
REMARK    1  A    between atoms: C_2  and  O_12 
REMARK    2  A    between atoms: C_3  and  O_10 
REMARK    3  A    between atoms: C_4  and  O_8 
REMARK    4  A    between atoms: C_5  and  O_6 
REMARK    5  A    between atoms: C_22  and  C_23 
REMARK    6  A    between atoms: O_12  and  C_13 
REMARK    7  A    between atoms: C_13  and  C_14 
REMARK    8  A    between atoms: C_15  and  C_16 
REMARK    9  A    between atoms: C_23  and  O_24 
REMARK   10  A    between atoms: O_24  and  C_25 
REMARK   11  A    between atoms: C_26  and  O_34 
REMARK   12  A    between atoms: C_27  and  O_32 
REMARK   13  A    between atoms: C_28  and  O_30 
ROOT
ATOM      1  O   LIG     1     -27.727   3.463   5.649  0.00  0.00    -0.341 OA
ATOM      2  C   LIG     1     -29.100   3.115   5.490  0.00  0.00     0.282 C 
ATOM      3  C   LIG     1     -29.279   1.597   5.552  0.00  0.00     0.201 C 
ATOM      4  C   LIG     1     -28.664   1.016   6.825  0.00  0.00     0.179 C 
ATOM      5  C   LIG     1     -27.245   1.540   7.044  0.00  0.00     0.177 C 
ATOM      6  C   LIG     1     -27.203   3.065   6.917  0.00  0.00     0.178 C 
ENDROOT
BRANCH   6   7
ATOM      7  C   LIG     1     -25.778   3.601   7.016  0.00  0.00     0.197 C 
BRANCH   7   8
ATOM      8  O   LIG     1     -25.819   5.012   6.903  0.00  0.00    -0.346 OA
BRANCH   8   9
ATOM      9  C   LIG     1     -26.648   5.598   7.901  0.00  0.00     0.281 C 
ATOM     10  O   LIG     1     -27.407   6.699   7.389  0.00  0.00    -0.346 OA
ATOM     11  C   LIG     1     -26.612   7.822   7.018  0.00  0.00     0.197 C 
ATOM     12  C   LIG     1     -25.845   8.358   8.220  0.00  0.00     0.171 C 
ATOM     13  C   LIG     1     -24.962   7.266   8.827  0.00  0.00     0.178 C 
ATOM     14  C   LIG     1     -25.796   6.012   9.111  0.00  0.00     0.201 C 
BRANCH  12  15
ATOM     15  O   LIG     1     -25.045   9.470   7.842  0.00  0.00    -0.387 OA
ATOM     16  H   LIG     1     -24.178   9.367   8.271  0.00  0.00     0.210 HD
ENDBRANCH  12  15
BRANCH  13  17
ATOM     17  O   LIG     1     -23.914   6.946   7.915  0.00  0.00    -0.386 OA
ATOM     18  H   LIG     1     -24.144   7.338   7.055  0.00  0.00     0.210 HD
ENDBRANCH  13  17
BRANCH  14  19
ATOM     19  O   LIG     1     -26.676   6.267  10.203  0.00  0.00    -0.384 OA
ATOM     20  H   LIG     1     -26.164   6.668  10.924  0.00  0.00     0.210 HD
ENDBRANCH  14  19
ENDBRANCH   8   9
ENDBRANCH   7   8
ENDBRANCH   6   7
BRANCH   5  21
ATOM     21  O   LIG     1     -26.798   1.163   8.344  0.00  0.00    -0.386 OA
ATOM     22  H   LIG     1     -26.062   0.536   8.237  0.00  0.00     0.210 HD
ENDBRANCH   5  21
BRANCH   2  23
ATOM     23  O   LIG     1     -29.567   3.562   4.218  0.00  0.00    -0.345 OA
BRANCH  23  24
ATOM     24  C   LIG     1     -28.850   4.703   3.776  0.00  0.00     0.190 C 
BRANCH  24  25
ATOM     25  C   LIG     1     -29.543   5.930   4.275  0.00  0.00     0.001 C 
ATOM     26  C   LIG     1     -29.622   7.070   3.571  0.00  0.00     0.006 C 
BRANCH  26  27
ATOM     27  C   LIG     1     -30.306   8.297   4.015  0.00  0.00    -0.025 A 
ATOM     28  C   LIG     1     -29.634   9.190   4.834  0.00  0.00     0.008 A 
ATOM     29  C   LIG     1     -30.282  10.352   5.253  0.00  0.00     0.001 A 
ATOM     30  C   LIG     1     -31.593  10.604   4.850  0.00  0.00     0.000 A 
ATOM     31  C   LIG     1     -32.257   9.696   4.026  0.00  0.00     0.001 A 
ATOM     32  C   LIG     1     -31.608   8.534   3.606  0.00  0.00     0.008 A 
ENDBRANCH  26  27
ENDBRANCH  24  25
ENDBRANCH  23  24
ENDBRANCH   2  23
BRANCH   4  33
ATOM     33  O   LIG     1     -28.598  -0.406   6.714  0.00  0.00    -0.386 OA
ATOM     34  H   LIG     1     -27.941  -0.718   7.361  0.00  0.00     0.210 HD
ENDBRANCH   4  33
BRANCH   3  35
ATOM     35  O   LIG     1     -30.676   1.310   5.526  0.00  0.00    -0.384 OA
ATOM     36  H   LIG     1     -30.950   1.229   4.597  0.00  0.00     0.210 HD
ENDBRANCH   3  35
TORSDOF 13
ENDMDL
MODEL 4
REMARK VINA RESULT:      -8.0      5.470     11.192
REMARK  13 active torsions:
REMARK  status: ('A' for Active; 'I' for Inactive)
REMARK    1  A    between atoms: C_2  and  O_12 
REMARK    2  A    between atoms: C_3  and  O_10 
REMARK    3  A    between atoms: C_4  and  O_8 
REMARK    4  A    between atoms: C_5  and  O_6 
REMARK    5  A    between atoms: C_22  and  C_23 
REMARK    6  A    between atoms: O_12  and  C_13 
REMARK    7  A    between atoms: C_13  and  C_14 
REMARK    8  A    between atoms: C_15  and  C_16 
REMARK    9  A    between atoms: C_23  and  O_24 
REMARK   10  A    between atoms: O_24  and  C_25 
REMARK   11  A    between atoms: C_26  and  O_34 
REMARK   12  A    between atoms: C_27  and  O_32 
REMARK   13  A    between atoms: C_28  and  O_30 
ROOT
ATOM      1  O   LIG     1     -30.130   8.075   0.736  0.00  0.00    -0.341 OA
ATOM      2  C   LIG     1     -28.724   7.859   0.825  0.00  0.00     0.282 C 
ATOM      3  C   LIG     1     -28.264   6.881  -0.257  0.00  0.00     0.201 C 
ATOM      4  C   LIG     1     -28.706   7.339  -1.646  0.00  0.00     0.179 C 
ATOM      5  C   LIG     1     -30.187   7.715  -1.660  0.00  0.00     0.177 C 
ATOM      6  C   LIG     1     -30.518   8.664  -0.506  0.00  0.00     0.178 C 
ENDROOT
BRANCH   6   7
ATOM      7  C   LIG     1     -32.012   8.961  -0.429  0.00  0.00     0.197 C 
BRANCH   7   8
ATOM      8  O   LIG     1     -32.492   9.198  -1.740  0.00  0.00    -0.346 OA
BRANCH   8   9
ATOM      9  C   LIG     1     -33.490  10.214  -1.761  0.00  0.00     0.281 C 
ATOM     10  O   LIG     1     -34.157  10.285  -3.027  0.00  0.00    -0.346 OA
ATOM     11  C   LIG     1     -33.319  10.720  -4.095  0.00  0.00     0.197 C 
ATOM     12  C   LIG     1     -32.781  12.118  -3.820  0.00  0.00     0.171 C 
ATOM     13  C   LIG     1     -32.010  12.149  -2.499  0.00  0.00     0.178 C 
ATOM     14  C   LIG     1     -32.869  11.565  -1.373  0.00  0.00     0.201 C 
BRANCH  12  15
ATOM     15  O   LIG     1     -31.936  12.542  -4.881  0.00  0.00    -0.387 OA
ATOM     16  H   LIG     1     -31.455  13.330  -4.576  0.00  0.00     0.210 HD
ENDBRANCH  12  15
BRANCH  13  17
ATOM     17  O   LIG     1     -30.813  11.384  -2.633  0.00  0.00    -0.386 OA
ATOM     18  H   LIG     1     -30.669  10.917  -1.792  0.00  0.00     0.210 HD
ENDBRANCH  13  17
BRANCH  14  19
ATOM     19  O   LIG     1     -33.931  12.467  -1.072  0.00  0.00    -0.384 OA
ATOM     20  H   LIG     1     -33.586  13.166  -0.491  0.00  0.00     0.210 HD
ENDBRANCH  14  19
ENDBRANCH   8   9
ENDBRANCH   7   8
ENDBRANCH   6   7
BRANCH   5  21
ATOM     21  O   LIG     1     -30.501   8.348  -2.897  0.00  0.00    -0.386 OA
ATOM     22  H   LIG     1     -30.438   9.310  -2.766  0.00  0.00     0.210 HD
ENDBRANCH   5  21
BRANCH   2  23
ATOM     23  O   LIG     1     -28.402   7.295   2.095  0.00  0.00    -0.345 OA
BRANCH  23  24
ATOM     24  C   LIG     1     -29.551   6.754   2.727  0.00  0.00     0.190 C 
BRANCH  24  25
ATOM     25  C   LIG     1     -29.226   5.382   3.225  0.00  0.00     0.001 C 
ATOM     26  C   LIG     1     -29.256   5.043   4.523  0.00  0.00     0.006 C 
BRANCH  26  27
ATOM     27  C   LIG     1     -28.958   3.703   5.058  0.00  0.00    -0.025 A 
ATOM     28  C   LIG     1     -27.638   3.309   5.206  0.00  0.00     0.008 A 
ATOM     29  C   LIG     1     -27.357   2.041   5.713  0.00  0.00     0.001 A 
ATOM     30  C   LIG     1     -28.399   1.182   6.063  0.00  0.00     0.000 A 
ATOM     31  C   LIG     1     -29.723   1.592   5.908  0.00  0.00     0.001 A 
ATOM     32  C   LIG     1     -30.004   2.861   5.401  0.00  0.00     0.008 A 
ENDBRANCH  26  27
ENDBRANCH  24  25
ENDBRANCH  23  24
ENDBRANCH   2  23
BRANCH   4  33
ATOM     33  O   LIG     1     -28.510   6.277  -2.581  0.00  0.00    -0.386 OA
ATOM     34  H   LIG     1     -27.581   6.308  -2.867  0.00  0.00     0.210 HD
ENDBRANCH   4  33
BRANCH   3  35
ATOM     35  O   LIG     1     -26.839   6.805  -0.213  0.00  0.00    -0.384 OA
ATOM     36  H   LIG     1     -26.583   5.873  -0.318  0.00  0.00     0.210 HD
ENDBRANCH   3  35
TORSDOF 13
ENDMDL
MODEL 5
REMARK VINA RESULT:      -8.0      3.266      3.927
REMARK  13 active torsions:
REMARK  status: ('A' for Active; 'I' for Inactive)
REMARK    1  A    between atoms: C_2  and  O_12 
REMARK    2  A    between atoms: C_3  and  O_10 
REMARK    3  A    between atoms: C_4  and  O_8 
REMARK    4  A    between atoms: C_5  and  O_6 
REMARK    5  A    between atoms: C_22  and  C_23 
REMARK    6  A    between atoms: O_12  and  C_13 
REMARK    7  A    between atoms: C_13  and  C_14 
REMARK    8  A    between atoms: C_15  and  C_16 
REMARK    9  A    between atoms: C_23  and  O_24 
REMARK   10  A    between atoms: O_24  and  C_25 
REMARK   11  A    between atoms: C_26  and  O_34 
REMARK   12  A    between atoms: C_27  and  O_32 
REMARK   13  A    between atoms: C_28  and  O_30 
ROOT
ATOM      1  O   LIG     1     -28.246   5.714   3.798  0.00  0.00    -0.341 OA
ATOM      2  C   LIG     1     -27.359   6.773   3.446  0.00  0.00     0.282 C 
ATOM      3  C   LIG     1     -27.128   7.698   4.641  0.00  0.00     0.201 C 
ATOM      4  C   LIG     1     -26.658   6.917   5.867  0.00  0.00     0.179 C 
ATOM      5  C   LIG     1     -27.543   5.696   6.118  0.00  0.00     0.177 C 
ATOM      6  C   LIG     1     -27.722   4.882   4.834  0.00  0.00     0.178 C 
ENDROOT
BRANCH   6   7
ATOM      7  C   LIG     1     -28.695   3.723   5.031  0.00  0.00     0.197 C 
BRANCH   7   8
ATOM      8  O   LIG     1     -28.040   2.704   5.764  0.00  0.00    -0.346 OA
BRANCH   8   9
ATOM      9  C   LIG     1     -28.737   1.465   5.685  0.00  0.00     0.281 C 
ATOM     10  O   LIG     1     -29.985   1.505   6.386  0.00  0.00    -0.346 OA
ATOM     11  C   LIG     1     -29.846   1.637   7.799  0.00  0.00     0.197 C 
ATOM     12  C   LIG     1     -29.073   0.457   8.375  0.00  0.00     0.171 C 
ATOM     13  C   LIG     1     -27.696   0.342   7.719  0.00  0.00     0.178 C 
ATOM     14  C   LIG     1     -27.839   0.327   6.193  0.00  0.00     0.201 C 
BRANCH  12  15
ATOM     15  O   LIG     1     -28.928   0.599   9.781  0.00  0.00    -0.387 OA
ATOM     16  H   LIG     1     -28.001   0.401  10.002  0.00  0.00     0.210 HD
ENDBRANCH  12  15
BRANCH  13  17
ATOM     17  O   LIG     1     -26.893   1.453   8.112  0.00  0.00    -0.386 OA
ATOM     18  H   LIG     1     -27.465   2.069   8.602  0.00  0.00     0.210 HD
ENDBRANCH  13  17
BRANCH  14  19
ATOM     19  O   LIG     1     -28.421  -0.909   5.785  0.00  0.00    -0.384 OA
ATOM     20  H   LIG     1     -28.989  -0.742   5.015  0.00  0.00     0.210 HD
ENDBRANCH  14  19
ENDBRANCH   8   9
ENDBRANCH   7   8
ENDBRANCH   6   7
BRANCH   5  21
ATOM     21  O   LIG     1     -26.943   4.876   7.117  0.00  0.00    -0.386 OA
ATOM     22  H   LIG     1     -26.722   4.020   6.709  0.00  0.00     0.210 HD
ENDBRANCH   5  21
BRANCH   2  23
ATOM     23  O   LIG     1     -27.929   7.548   2.392  0.00  0.00    -0.345 OA
BRANCH  23  24
ATOM     24  C   LIG     1     -29.157   6.994   1.949  0.00  0.00     0.190 C 
BRANCH  24  25
ATOM     25  C   LIG     1     -29.373   7.382   0.521  0.00  0.00     0.001 C 
ATOM     26  C   LIG     1     -28.846   6.708  -0.513  0.00  0.00     0.006 C 
BRANCH  26  27
ATOM     27  C   LIG     1     -29.042   7.043  -1.934  0.00  0.00    -0.025 A 
ATOM     28  C   LIG     1     -28.920   8.361  -2.344  0.00  0.00     0.008 A 
ATOM     29  C   LIG     1     -29.106   8.678  -3.689  0.00  0.00     0.001 A 
ATOM     30  C   LIG     1     -29.413   7.673  -4.607  0.00  0.00     0.000 A 
ATOM     31  C   LIG     1     -29.534   6.351  -4.180  0.00  0.00     0.001 A 
ATOM     32  C   LIG     1     -29.347   6.034  -2.834  0.00  0.00     0.008 A 
ENDBRANCH  26  27
ENDBRANCH  24  25
ENDBRANCH  23  24
ENDBRANCH   2  23
BRANCH   4  33
ATOM     33  O   LIG     1     -26.726   7.756   7.021  0.00  0.00    -0.386 OA
ATOM     34  H   LIG     1     -27.667   7.906   7.217  0.00  0.00     0.210 HD
ENDBRANCH   4  33
BRANCH   3  35
ATOM     35  O   LIG     1     -26.133   8.656   4.279  0.00  0.00    -0.384 OA
ATOM     36  H   LIG     1     -25.301   8.180   4.118  0.00  0.00     0.210 HD
ENDBRANCH   3  35
TORSDOF 13
ENDMDL
MODEL 6
REMARK VINA RESULT:      -7.9      6.380     11.464
REMARK  13 active torsions:
REMARK  status: ('A' for Active; 'I' for Inactive)
REMARK    1  A    between atoms: C_2  and  O_12 
REMARK    2  A    between atoms: C_3  and  O_10 
REMARK    3  A    between atoms: C_4  and  O_8 
REMARK    4  A    between atoms: C_5  and  O_6 
REMARK    5  A    between atoms: C_22  and  C_23 
REMARK    6  A    between atoms: O_12  and  C_13 
REMARK    7  A    between atoms: C_13  and  C_14 
REMARK    8  A    between atoms: C_15  and  C_16 
REMARK    9  A    between atoms: C_23  and  O_24 
REMARK   10  A    between atoms: O_24  and  C_25 
REMARK   11  A    between atoms: C_26  and  O_34 
REMARK   12  A    between atoms: C_27  and  O_32 
REMARK   13  A    between atoms: C_28  and  O_30 
ROOT
ATOM      1  O   LIG     1     -30.191   8.769  -2.369  0.00  0.00    -0.341 OA
ATOM      2  C   LIG     1     -29.814   7.481  -1.888  0.00  0.00     0.282 C 
ATOM      3  C   LIG     1     -30.092   6.413  -2.946  0.00  0.00     0.201 C 
ATOM      4  C   LIG     1     -29.433   6.763  -4.278  0.00  0.00     0.179 C 
ATOM      5  C   LIG     1     -29.731   8.207  -4.681  0.00  0.00     0.177 C 
ATOM      6  C   LIG     1     -29.445   9.165  -3.521  0.00  0.00     0.178 C 
ENDROOT
BRANCH   6   7
ATOM      7  C   LIG     1     -29.845  10.598  -3.860  0.00  0.00     0.197 C 
BRANCH   7   8
ATOM      8  O   LIG     1     -30.773  11.048  -2.890  0.00  0.00    -0.346 OA
BRANCH   8   9
ATOM      9  C   LIG     1     -31.975  11.520  -3.489  0.00  0.00     0.281 C 
ATOM     10  O   LIG     1     -32.504  12.661  -2.804  0.00  0.00    -0.346 OA
ATOM     11  C   LIG     1     -32.963  12.379  -1.484  0.00  0.00     0.197 C 
ATOM     12  C   LIG     1     -34.083  11.347  -1.515  0.00  0.00     0.171 C 
ATOM     13  C   LIG     1     -33.613  10.060  -2.196  0.00  0.00     0.178 C 
ATOM     14  C   LIG     1     -33.004  10.381  -3.566  0.00  0.00     0.201 C 
BRANCH  12  15
ATOM     15  O   LIG     1     -34.529  11.059  -0.197  0.00  0.00    -0.387 OA
ATOM     16  H   LIG     1     -35.491  11.197  -0.176  0.00  0.00     0.210 HD
ENDBRANCH  12  15
BRANCH  13  17
ATOM     17  O   LIG     1     -32.635   9.423  -1.376  0.00  0.00    -0.386 OA
ATOM     18  H   LIG     1     -33.050   8.636  -0.983  0.00  0.00     0.210 HD
ENDBRANCH  13  17
BRANCH  14  19
ATOM     19  O   LIG     1     -34.039  10.781  -4.460  0.00  0.00    -0.384 OA
ATOM     20  H   LIG     1     -33.936  10.288  -5.291  0.00  0.00     0.210 HD
ENDBRANCH  14  19
ENDBRANCH   8   9
ENDBRANCH   7   8
ENDBRANCH   6   7
BRANCH   5  21
ATOM     21  O   LIG     1     -28.919   8.563  -5.797  0.00  0.00    -0.386 OA
ATOM     22  H   LIG     1     -28.469   7.759  -6.109  0.00  0.00     0.210 HD
ENDBRANCH   5  21
BRANCH   2  23
ATOM     23  O   LIG     1     -30.574   7.159  -0.725  0.00  0.00    -0.345 OA
BRANCH  23  24
ATOM     24  C   LIG     1     -30.076   7.831   0.421  0.00  0.00     0.190 C 
BRANCH  24  25
ATOM     25  C   LIG     1     -29.666   6.814   1.436  0.00  0.00     0.001 C 
ATOM     26  C   LIG     1     -29.452   7.106   2.728  0.00  0.00     0.006 C 
BRANCH  26  27
ATOM     27  C   LIG     1     -29.062   6.136   3.765  0.00  0.00    -0.025 A 
ATOM     28  C   LIG     1     -28.441   6.587   4.919  0.00  0.00     0.008 A 
ATOM     29  C   LIG     1     -28.072   5.668   5.900  0.00  0.00     0.001 A 
ATOM     30  C   LIG     1     -28.327   4.309   5.716  0.00  0.00     0.000 A 
ATOM     31  C   LIG     1     -28.952   3.869   4.550  0.00  0.00     0.001 A 
ATOM     32  C   LIG     1     -29.322   4.789   3.568  0.00  0.00     0.008 A 
ENDBRANCH  26  27
ENDBRANCH  24  25
ENDBRANCH  23  24
ENDBRANCH   2  23
BRANCH   4  33
ATOM     33  O   LIG     1     -29.941   5.906  -5.301  0.00  0.00    -0.386 OA
ATOM     34  H   LIG     1     -29.210   5.718  -5.914  0.00  0.00     0.210 HD
ENDBRANCH   4  33
BRANCH   3  35
ATOM     35  O   LIG     1     -29.575   5.170  -2.472  0.00  0.00    -0.384 OA
ATOM     36  H   LIG     1     -29.976   4.457  -2.996  0.00  0.00     0.210 HD
ENDBRANCH   3  35
TORSDOF 13
ENDMDL
MODEL 7
REMARK VINA RESULT:      -7.9      1.856      2.888
REMARK  13 active torsions:
REMARK  status: ('A' for Active; 'I' for Inactive)
REMARK    1  A    between atoms: C_2  and  O_12 
REMARK    2  A    between atoms: C_3  and  O_10 
REMARK    3  A    between atoms: C_4  and  O_8 
REMARK    4  A    between atoms: C_5  and  O_6 
REMARK    5  A    between atoms: C_22  and  C_23 
REMARK    6  A    between atoms: O_12  and  C_13 
REMARK    7  A    between atoms: C_13  and  C_14 
REMARK    8  A    between atoms: C_15  and  C_16 
REMARK    9  A    between atoms: C_23  and  O_24 
REMARK   10  A    between atoms: O_24  and  C_25 
REMARK   11  A    between atoms: C_26  and  O_34 
REMARK   12  A    between atoms: C_27  and  O_32 
REMARK   13  A    between atoms: C_28  and  O_30 
ROOT
ATOM      1  O   LIG     1     -28.515   7.417   5.693  0.00  0.00    -0.341 OA
ATOM      2  C   LIG     1     -28.629   8.750   5.198  0.00  0.00     0.282 C 
ATOM      3  C   LIG     1     -28.230   9.757   6.277  0.00  0.00     0.201 C 
ATOM      4  C   LIG     1     -26.842   9.451   6.839  0.00  0.00     0.179 C 
ATOM      5  C   LIG     1     -26.708   7.975   7.210  0.00  0.00     0.177 C 
ATOM      6  C   LIG     1     -27.175   7.081   6.059  0.00  0.00     0.178 C 
ENDROOT
BRANCH   6   7
ATOM      7  C   LIG     1     -27.161   5.605   6.447  0.00  0.00     0.197 C 
BRANCH   7   8
ATOM      8  O   LIG     1     -28.346   5.000   5.962  0.00  0.00    -0.346 OA
BRANCH   8   9
ATOM      9  C   LIG     1     -28.066   3.988   5.001  0.00  0.00     0.281 C 
ATOM     10  O   LIG     1     -29.262   3.427   4.449  0.00  0.00    -0.346 OA
ATOM     11  C   LIG     1     -30.037   2.687   5.389  0.00  0.00     0.197 C 
ATOM     12  C   LIG     1     -29.236   1.516   5.942  0.00  0.00     0.171 C 
ATOM     13  C   LIG     1     -27.943   2.008   6.596  0.00  0.00     0.178 C 
ATOM     14  C   LIG     1     -27.170   2.907   5.625  0.00  0.00     0.201 C 
BRANCH  12  15
ATOM     15  O   LIG     1     -30.008   0.789   6.888  0.00  0.00    -0.387 OA
ATOM     16  H   LIG     1     -30.944   0.995   6.724  0.00  0.00     0.210 HD
ENDBRANCH  12  15
BRANCH  13  17
ATOM     17  O   LIG     1     -28.262   2.743   7.777  0.00  0.00    -0.386 OA
ATOM     18  H   LIG     1     -27.818   2.305   8.523  0.00  0.00     0.210 HD
ENDBRANCH  13  17
BRANCH  14  19
ATOM     19  O   LIG     1     -26.637   2.112   4.569  0.00  0.00    -0.384 OA
ATOM     20  H   LIG     1     -25.937   1.545   4.933  0.00  0.00     0.210 HD
ENDBRANCH  14  19
ENDBRANCH   8   9
ENDBRANCH   7   8
ENDBRANCH   6   7
BRANCH   5  21
ATOM     21  O   LIG     1     -25.345   7.685   7.509  0.00  0.00    -0.386 OA
ATOM     22  H   LIG     1     -25.312   6.816   7.944  0.00  0.00     0.210 HD
ENDBRANCH   5  21
BRANCH   2  23
ATOM     23  O   LIG     1     -29.980   9.012   4.827  0.00  0.00    -0.345 OA
BRANCH  23  24
ATOM     24  C   LIG     1     -30.479   8.015   3.950  0.00  0.00     0.190 C 
BRANCH  24  25
ATOM     25  C   LIG     1     -31.208   8.682   2.828  0.00  0.00     0.001 C 
ATOM     26  C   LIG     1     -31.305  10.014   2.701  0.00  0.00     0.006 C 
BRANCH  26  27
ATOM     27  C   LIG     1     -31.999  10.714   1.606  0.00  0.00    -0.025 A 
ATOM     28  C   LIG     1     -31.353  10.886   0.392  0.00  0.00     0.008 A 
ATOM     29  C   LIG     1     -32.011  11.548  -0.644  0.00  0.00     0.001 A 
ATOM     30  C   LIG     1     -33.305  12.031  -0.453  0.00  0.00     0.000 A 
ATOM     31  C   LIG     1     -33.943  11.851   0.773  0.00  0.00     0.001 A 
ATOM     32  C   LIG     1     -33.285  11.188   1.810  0.00  0.00     0.008 A 
ENDBRANCH  26  27
ENDBRANCH  24  25
ENDBRANCH  23  24
ENDBRANCH   2  23
BRANCH   4  33
ATOM     33  O   LIG     1     -26.626  10.225   8.020  0.00  0.00    -0.386 OA
ATOM     34  H   LIG     1     -25.857   9.846   8.479  0.00  0.00     0.210 HD
ENDBRANCH   4  33
BRANCH   3  35
ATOM     35  O   LIG     1     -28.229  11.060   5.693  0.00  0.00    -0.384 OA
ATOM     36  H   LIG     1     -28.578  11.685   6.350  0.00  0.00     0.210 HD
ENDBRANCH   3  35
TORSDOF 13
ENDMDL
MODEL 8
REMARK VINA RESULT:      -7.9      7.723     11.319
REMARK  13 active torsions:
REMARK  status: ('A' for Active; 'I' for Inactive)
REMARK    1  A    between atoms: C_2  and  O_12 
REMARK    2  A    between atoms: C_3  and  O_10 
REMARK    3  A    between atoms: C_4  and  O_8 
REMARK    4  A    between atoms: C_5  and  O_6 
REMARK    5  A    between atoms: C_22  and  C_23 
REMARK    6  A    between atoms: O_12  and  C_13 
REMARK    7  A    between atoms: C_13  and  C_14 
REMARK    8  A    between atoms: C_15  and  C_16 
REMARK    9  A    between atoms: C_23  and  O_24 
REMARK   10  A    between atoms: O_24  and  C_25 
REMARK   11  A    between atoms: C_26  and  O_34 
REMARK   12  A    between atoms: C_27  and  O_32 
REMARK   13  A    between atoms: C_28  and  O_30 
ROOT
ATOM      1  O   LIG     1     -29.960   8.755  -2.742  0.00  0.00    -0.341 OA
ATOM      2  C   LIG     1     -29.618   7.449  -2.284  0.00  0.00     0.282 C 
ATOM      3  C   LIG     1     -29.953   6.403  -3.349  0.00  0.00     0.201 C 
ATOM      4  C   LIG     1     -29.309   6.748  -4.691  0.00  0.00     0.179 C 
ATOM      5  C   LIG     1     -29.566   8.206  -5.070  0.00  0.00     0.177 C 
ATOM      6  C   LIG     1     -29.225   9.139  -3.905  0.00  0.00     0.178 C 
ENDROOT
BRANCH   6   7
ATOM      7  C   LIG     1     -29.583  10.589  -4.219  0.00  0.00     0.197 C 
BRANCH   7   8
ATOM      8  O   LIG     1     -30.491  11.051  -3.235  0.00  0.00    -0.346 OA
BRANCH   8   9
ATOM      9  C   LIG     1     -31.609  11.712  -3.818  0.00  0.00     0.281 C 
ATOM     10  O   LIG     1     -32.108  12.762  -2.982  0.00  0.00    -0.346 OA
ATOM     11  C   LIG     1     -32.684  12.301  -1.762  0.00  0.00     0.197 C 
ATOM     12  C   LIG     1     -33.867  11.382  -2.040  0.00  0.00     0.171 C 
ATOM     13  C   LIG     1     -33.436  10.194  -2.901  0.00  0.00     0.178 C 
ATOM     14  C   LIG     1     -32.705  10.688  -4.154  0.00  0.00     0.201 C 
BRANCH  12  15
ATOM     15  O   LIG     1     -34.429  10.916  -0.821  0.00  0.00    -0.387 OA
ATOM     16  H   LIG     1     -34.308   9.951  -0.792  0.00  0.00     0.210 HD
ENDBRANCH  12  15
BRANCH  13  17
ATOM     17  O   LIG     1     -32.568   9.352  -2.143  0.00  0.00    -0.386 OA
ATOM     18  H   LIG     1     -32.949   8.457  -2.150  0.00  0.00     0.210 HD
ENDBRANCH  13  17
BRANCH  14  19
ATOM     19  O   LIG     1     -33.639  11.314  -5.030  0.00  0.00    -0.384 OA
ATOM     20  H   LIG     1     -34.112  12.003  -4.534  0.00  0.00     0.210 HD
ENDBRANCH  14  19
ENDBRANCH   8   9
ENDBRANCH   7   8
ENDBRANCH   6   7
BRANCH   5  21
ATOM     21  O   LIG     1     -28.765   8.549  -6.198  0.00  0.00    -0.386 OA
ATOM     22  H   LIG     1     -28.100   9.198  -5.908  0.00  0.00     0.210 HD
ENDBRANCH   5  21
BRANCH   2  23
ATOM     23  O   LIG     1     -30.365   7.138  -1.110  0.00  0.00    -0.345 OA
BRANCH  23  24
ATOM     24  C   LIG     1     -29.527   7.067   0.032  0.00  0.00     0.190 C 
BRANCH  24  25
ATOM     25  C   LIG     1     -30.072   7.975   1.087  0.00  0.00     0.001 C 
ATOM     26  C   LIG     1     -31.213   8.667   0.945  0.00  0.00     0.006 C 
BRANCH  26  27
ATOM     27  C   LIG     1     -31.796   9.562   1.961  0.00  0.00    -0.025 A 
ATOM     28  C   LIG     1     -32.113  10.866   1.616  0.00  0.00     0.008 A 
ATOM     29  C   LIG     1     -32.664  11.711   2.578  0.00  0.00     0.001 A 
ATOM     30  C   LIG     1     -32.890  11.244   3.872  0.00  0.00     0.000 A 
ATOM     31  C   LIG     1     -32.566   9.929   4.205  0.00  0.00     0.001 A 
ATOM     32  C   LIG     1     -32.014   9.082   3.243  0.00  0.00     0.008 A 
ENDBRANCH  26  27
ENDBRANCH  24  25
ENDBRANCH  23  24
ENDBRANCH   2  23
BRANCH   4  33
ATOM     33  O   LIG     1     -29.866   5.921  -5.713  0.00  0.00    -0.386 OA
ATOM     34  H   LIG     1     -29.135   5.420  -6.113  0.00  0.00     0.210 HD
ENDBRANCH   4  33
BRANCH   3  35
ATOM     35  O   LIG     1     -29.468   5.138  -2.901  0.00  0.00    -0.384 OA
ATOM     36  H   LIG     1     -30.085   4.453  -3.207  0.00  0.00     0.210 HD
ENDBRANCH   3  35
TORSDOF 13
ENDMDL
MODEL 9
REMARK VINA RESULT:      -7.9      7.245     11.401
REMARK  13 active torsions:
REMARK  status: ('A' for Active; 'I' for Inactive)
REMARK    1  A    between atoms: C_2  and  O_12 
REMARK    2  A    between atoms: C_3  and  O_10 
REMARK    3  A    between atoms: C_4  and  O_8 
REMARK    4  A    between atoms: C_5  and  O_6 
REMARK    5  A    between atoms: C_22  and  C_23 
REMARK    6  A    between atoms: O_12  and  C_13 
REMARK    7  A    between atoms: C_13  and  C_14 
REMARK    8  A    between atoms: C_15  and  C_16 
REMARK    9  A    between atoms: C_23  and  O_24 
REMARK   10  A    between atoms: O_24  and  C_25 
REMARK   11  A    between atoms: C_26  and  O_34 
REMARK   12  A    between atoms: C_27  and  O_32 
REMARK   13  A    between atoms: C_28  and  O_30 
ROOT
ATOM      1  O   LIG     1     -31.098  11.142  -2.306  0.00  0.00    -0.341 OA
ATOM      2  C   LIG     1     -31.977  11.364  -3.406  0.00  0.00     0.282 C 
ATOM      3  C   LIG     1     -33.208  10.463  -3.298  0.00  0.00     0.201 C 
ATOM      4  C   LIG     1     -33.900  10.626  -1.946  0.00  0.00     0.179 C 
ATOM      5  C   LIG     1     -32.897  10.540  -0.796  0.00  0.00     0.177 C 
ATOM      6  C   LIG     1     -31.700  11.460  -1.050  0.00  0.00     0.178 C 
ENDROOT
BRANCH   6   7
ATOM      7  C   LIG     1     -30.630  11.305   0.026  0.00  0.00     0.197 C 
BRANCH   7   8
ATOM      8  O   LIG     1     -30.233   9.946   0.075  0.00  0.00    -0.346 OA
BRANCH   8   9
ATOM      9  C   LIG     1     -28.827   9.813   0.255  0.00  0.00     0.281 C 
ATOM     10  O   LIG     1     -28.123   9.826  -0.992  0.00  0.00    -0.346 OA
ATOM     11  C   LIG     1     -28.390   8.693  -1.815  0.00  0.00     0.197 C 
ATOM     12  C   LIG     1     -27.978   7.407  -1.109  0.00  0.00     0.171 C 
ATOM     13  C   LIG     1     -28.707   7.270   0.229  0.00  0.00     0.178 C 
ATOM     14  C   LIG     1     -28.522   8.542   1.063  0.00  0.00     0.201 C 
BRANCH  12  15
ATOM     15  O   LIG     1     -28.257   6.281  -1.928  0.00  0.00    -0.387 OA
ATOM     16  H   LIG     1     -28.632   5.588  -1.358  0.00  0.00     0.210 HD
ENDBRANCH  12  15
BRANCH  13  17
ATOM     17  O   LIG     1     -30.096   7.054  -0.011  0.00  0.00    -0.386 OA
ATOM     18  H   LIG     1     -30.501   7.920  -0.189  0.00  0.00     0.210 HD
ENDBRANCH  13  17
BRANCH  14  19
ATOM     19  O   LIG     1     -27.172   8.620   1.513  0.00  0.00    -0.384 OA
ATOM     20  H   LIG     1     -27.110   9.321   2.183  0.00  0.00     0.210 HD
ENDBRANCH  14  19
ENDBRANCH   8   9
ENDBRANCH   7   8
ENDBRANCH   6   7
BRANCH   5  21
ATOM     21  O   LIG     1     -33.537  10.923   0.419  0.00  0.00    -0.386 OA
ATOM     22  H   LIG     1     -33.002  11.623   0.831  0.00  0.00     0.210 HD
ENDBRANCH   5  21
BRANCH   2  23
ATOM     23  O   LIG     1     -31.309  11.053  -4.627  0.00  0.00    -0.345 OA
BRANCH  23  24
ATOM     24  C   LIG     1     -29.900  11.098  -4.472  0.00  0.00     0.190 C 
BRANCH  24  25
ATOM     25  C   LIG     1     -29.314   9.841  -5.030  0.00  0.00     0.001 C 
ATOM     26  C   LIG     1     -29.912   9.108  -5.982  0.00  0.00     0.006 C 
BRANCH  26  27
ATOM     27  C   LIG     1     -29.366   7.874  -6.572  0.00  0.00    -0.025 A 
ATOM     28  C   LIG     1     -29.351   6.710  -5.819  0.00  0.00     0.008 A 
ATOM     29  C   LIG     1     -28.834   5.542  -6.378  0.00  0.00     0.001 A 
ATOM     30  C   LIG     1     -28.338   5.552  -7.681  0.00  0.00     0.000 A 
ATOM     31  C   LIG     1     -28.359   6.730  -8.427  0.00  0.00     0.001 A 
ATOM     32  C   LIG     1     -28.876   7.899  -7.868  0.00  0.00     0.008 A 
ENDBRANCH  26  27
ENDBRANCH  24  25
ENDBRANCH  23  24
ENDBRANCH   2  23
BRANCH   4  33
ATOM     33  O   LIG     1     -34.860   9.582  -1.773  0.00  0.00    -0.386 OA
ATOM     34  H   LIG     1     -35.264   9.699  -0.897  0.00  0.00     0.210 HD
ENDBRANCH   4  33
BRANCH   3  35
ATOM     35  O   LIG     1     -34.115  10.820  -4.341  0.00  0.00    -0.384 OA
ATOM     36  H   LIG     1     -33.610  10.896  -5.167  0.00  0.00     0.210 HD
ENDBRANCH   3  35
TORSDOF 13
ENDMDL
