MODEL 1
REMARK VINA RESULT:      -8.2      0.000      0.000
REMARK  13 active torsions:
REMARK  status: ('A' for Active; 'I' for Inactive)
REMARK    1  A    between atoms: C_2  and  O_12 
REMARK    2  A    between atoms: C_3  and  O_10 
REMARK    3  A    between atoms: C_4  and  O_8 
REMARK    4  A    between atoms: C_5  and  O_6 
REMARK    5  A    between atoms: C_22  and  C_23 
REMARK    6  A    between atoms: O_12  and  C_13 
REMARK    7  A    between atoms: C_13  and  C_14 
REMARK    8  A    between atoms: C_15  and  C_16 
REMARK    9  A    between atoms: C_23  and  O_24 
REMARK   10  A    between atoms: O_24  and  C_25 
REMARK   11  A    between atoms: C_26  and  O_34 
REMARK   12  A    between atoms: C_27  and  O_32 
REMARK   13  A    between atoms: C_28  and  O_30 
ROOT
ATOM      1  O   LIG     1     152.850 155.512 151.766  0.00  0.00    -0.341 OA
ATOM      2  C   LIG     1     153.162 154.155 152.072  0.00  0.00     0.282 C 
ATOM      3  C   LIG     1     154.603 153.834 151.674  0.00  0.00     0.201 C 
ATOM      4  C   LIG     1     155.587 154.822 152.299  0.00  0.00     0.179 C 
ATOM      5  C   LIG     1     155.132 156.266 152.085  0.00  0.00     0.177 C 
ATOM      6  C   LIG     1     153.665 156.438 152.486  0.00  0.00     0.178 C 
ENDROOT
BRANCH   6   7
ATOM      7  C   LIG     1     153.155 157.842 152.172  0.00  0.00     0.197 C 
BRANCH   7   8
ATOM      8  O   LIG     1     154.106 158.494 151.351  0.00  0.00    -0.346 OA
BRANCH   8   9
ATOM      9  C   LIG     1     153.562 158.834 150.081  0.00  0.00     0.281 C 
ATOM     10  O   LIG     1     153.825 157.827 149.097  0.00  0.00    -0.346 OA
ATOM     11  C   LIG     1     155.205 157.697 148.763  0.00  0.00     0.197 C 
ATOM     12  C   LIG     1     155.745 159.001 148.191  0.00  0.00     0.171 C 
ATOM     13  C   LIG     1     155.549 160.148 149.184  0.00  0.00     0.178 C 
ATOM     14  C   LIG     1     154.087 160.208 149.638  0.00  0.00     0.201 C 
BRANCH  12  15
ATOM     15  O   LIG     1     157.123 158.869 147.872  0.00  0.00    -0.387 OA
ATOM     16  H   LIG     1     157.455 158.074 148.323  0.00  0.00     0.210 HD
ENDBRANCH  12  15
BRANCH  13  17
ATOM     17  O   LIG     1     156.393 159.940 150.316  0.00  0.00    -0.386 OA
ATOM     18  H   LIG     1     155.817 159.791 151.086  0.00  0.00     0.210 HD
ENDBRANCH  13  17
BRANCH  14  19
ATOM     19  O   LIG     1     153.276 160.663 148.557  0.00  0.00    -0.384 OA
ATOM     20  H   LIG     1     153.437 160.091 147.789  0.00  0.00     0.210 HD
ENDBRANCH  14  19
ENDBRANCH   8   9
ENDBRANCH   7   8
ENDBRANCH   6   7
BRANCH   5  21
ATOM     21  O   LIG     1     155.941 157.137 152.870  0.00  0.00    -0.386 OA
ATOM     22  H   LIG     1     156.874 156.936 152.677  0.00  0.00     0.210 HD
ENDBRANCH   5  21
BRANCH   2  23
ATOM     23  O   LIG     1     152.299 153.285 151.342  0.00  0.00    -0.345 OA
BRANCH  23  24
ATOM     24  C   LIG     1     152.201 153.676 149.982  0.00  0.00     0.190 C 
BRANCH  24  25
ATOM     25  C   LIG     1     152.352 152.464 149.120  0.00  0.00     0.001 C 
ATOM     26  C   LIG     1     151.560 152.204 148.068  0.00  0.00     0.006 C 
BRANCH  26  27
ATOM     27  C   LIG     1     151.680 151.033 147.184  0.00  0.00    -0.025 A 
ATOM     28  C   LIG     1     150.541 150.503 146.600  0.00  0.00     0.008 A 
ATOM     29  C   LIG     1     150.655 149.394 145.762  0.00  0.00     0.001 A 
ATOM     30  C   LIG     1     151.907 148.828 145.520  0.00  0.00     0.000 A 
ATOM     31  C   LIG     1     153.045 149.372 146.114  0.00  0.00     0.001 A 
ATOM     32  C   LIG     1     152.931 150.482 146.952  0.00  0.00     0.008 A 
ENDBRANCH  26  27
ENDBRANCH  24  25
ENDBRANCH  23  24
ENDBRANCH   2  23
BRANCH   4  33
ATOM     33  O   LIG     1     156.869 154.668 151.688  0.00  0.00    -0.386 OA
ATOM     34  H   LIG     1     157.513 155.146 152.237  0.00  0.00     0.210 HD
ENDBRANCH   4  33
BRANCH   3  35
ATOM     35  O   LIG     1     154.907 152.514 152.125  0.00  0.00    -0.384 OA
ATOM     36  H   LIG     1     154.418 151.885 151.568  0.00  0.00     0.210 HD
ENDBRANCH   3  35
TORSDOF 13
ENDMDL
MODEL 2
REMARK VINA RESULT:      -8.1      1.620      2.289
REMARK  13 active torsions:
REMARK  status: ('A' for Active; 'I' for Inactive)
REMARK    1  A    between atoms: C_2  and  O_12 
REMARK    2  A    between atoms: C_3  and  O_10 
REMARK    3  A    between atoms: C_4  and  O_8 
REMARK    4  A    between atoms: C_5  and  O_6 
REMARK    5  A    between atoms: C_22  and  C_23 
REMARK    6  A    between atoms: O_12  and  C_13 
REMARK    7  A    between atoms: C_13  and  C_14 
REMARK    8  A    between atoms: C_15  and  C_16 
REMARK    9  A    between atoms: C_23  and  O_24 
REMARK   10  A    between atoms: O_24  and  C_25 
REMARK   11  A    between atoms: C_26  and  O_34 
REMARK   12  A    between atoms: C_27  and  O_32 
REMARK   13  A    between atoms: C_28  and  O_30 
ROOT
ATOM      1  O   LIG     1     153.614 155.607 150.319  0.00  0.00    -0.341 OA
ATOM      2  C   LIG     1     153.991 154.250 150.541  0.00  0.00     0.282 C 
ATOM      3  C   LIG     1     155.213 154.177 151.458  0.00  0.00     0.201 C 
ATOM      4  C   LIG     1     154.981 154.948 152.757  0.00  0.00     0.179 C 
ATOM      5  C   LIG     1     154.425 156.344 152.481  0.00  0.00     0.177 C 
ATOM      6  C   LIG     1     153.233 156.275 151.523  0.00  0.00     0.178 C 
ENDROOT
BRANCH   6   7
ATOM      7  C   LIG     1     152.734 157.666 151.141  0.00  0.00     0.197 C 
BRANCH   7   8
ATOM      8  O   LIG     1     153.503 158.135 150.048  0.00  0.00    -0.346 OA
BRANCH   8   9
ATOM      9  C   LIG     1     154.374 159.194 150.432  0.00  0.00     0.281 C 
ATOM     10  O   LIG     1     153.975 160.449 149.869  0.00  0.00    -0.346 OA
ATOM     11  C   LIG     1     154.101 160.508 148.450  0.00  0.00     0.197 C 
ATOM     12  C   LIG     1     155.550 160.296 148.030  0.00  0.00     0.171 C 
ATOM     13  C   LIG     1     156.072 158.956 148.550  0.00  0.00     0.178 C 
ATOM     14  C   LIG     1     155.822 158.841 150.057  0.00  0.00     0.201 C 
BRANCH  12  15
ATOM     15  O   LIG     1     155.669 160.344 146.615  0.00  0.00    -0.387 OA
ATOM     16  H   LIG     1     154.781 160.210 146.241  0.00  0.00     0.210 HD
ENDBRANCH  12  15
BRANCH  13  17
ATOM     17  O   LIG     1     155.401 157.894 147.873  0.00  0.00    -0.386 OA
ATOM     18  H   LIG     1     155.360 157.138 148.482  0.00  0.00     0.210 HD
ENDBRANCH  13  17
BRANCH  14  19
ATOM     19  O   LIG     1     156.687 159.739 150.749  0.00  0.00    -0.384 OA
ATOM     20  H   LIG     1     157.509 159.829 150.238  0.00  0.00     0.210 HD
ENDBRANCH  14  19
ENDBRANCH   8   9
ENDBRANCH   7   8
ENDBRANCH   6   7
BRANCH   5  21
ATOM     21  O   LIG     1     154.009 156.938 153.709  0.00  0.00    -0.386 OA
ATOM     22  H   LIG     1     153.714 157.845 153.517  0.00  0.00     0.210 HD
ENDBRANCH   5  21
BRANCH   2  23
ATOM     23  O   LIG     1     154.333 153.635 149.301  0.00  0.00    -0.345 OA
BRANCH  23  24
ATOM     24  C   LIG     1     153.230 152.933 148.750  0.00  0.00     0.190 C 
BRANCH  24  25
ATOM     25  C   LIG     1     153.683 152.212 147.522  0.00  0.00     0.001 C 
ATOM     26  C   LIG     1     153.179 151.031 147.132  0.00  0.00     0.006 C 
BRANCH  26  27
ATOM     27  C   LIG     1     153.583 150.292 145.923  0.00  0.00    -0.025 A 
ATOM     28  C   LIG     1     153.519 148.908 145.920  0.00  0.00     0.008 A 
ATOM     29  C   LIG     1     153.902 148.210 144.776  0.00  0.00     0.001 A 
ATOM     30  C   LIG     1     154.344 148.903 143.649  0.00  0.00     0.000 A 
ATOM     31  C   LIG     1     154.403 150.296 143.667  0.00  0.00     0.001 A 
ATOM     32  C   LIG     1     154.020 150.995 144.812  0.00  0.00     0.008 A 
ENDBRANCH  26  27
ENDBRANCH  24  25
ENDBRANCH  23  24
ENDBRANCH   2  23
BRANCH   4  33
ATOM     33  O   LIG     1     156.221 155.095 153.451  0.00  0.00    -0.386 OA
ATOM     34  H   LIG     1     156.100 154.730 154.344  0.00  0.00     0.210 HD
ENDBRANCH   4  33
BRANCH   3  35
ATOM     35  O   LIG     1     155.464 152.805 151.759  0.00  0.00    -0.384 OA
ATOM     36  H   LIG     1     155.679 152.738 152.704  0.00  0.00     0.210 HD
ENDBRANCH   3  35
TORSDOF 13
ENDMDL
MODEL 3
REMARK VINA RESULT:      -8.0      4.464      7.736
REMARK  13 active torsions:
REMARK  status: ('A' for Active; 'I' for Inactive)
REMARK    1  A    between atoms: C_2  and  O_12 
REMARK    2  A    between atoms: C_3  and  O_10 
REMARK    3  A    between atoms: C_4  and  O_8 
REMARK    4  A    between atoms: C_5  and  O_6 
REMARK    5  A    between atoms: C_22  and  C_23 
REMARK    6  A    between atoms: O_12  and  C_13 
REMARK    7  A    between atoms: C_13  and  C_14 
REMARK    8  A    between atoms: C_15  and  C_16 
REMARK    9  A    between atoms: C_23  and  O_24 
REMARK   10  A    between atoms: O_24  and  C_25 
REMARK   11  A    between atoms: C_26  and  O_34 
REMARK   12  A    between atoms: C_27  and  O_32 
REMARK   13  A    between atoms: C_28  and  O_30 
ROOT
ATOM      1  O   LIG     1     152.607 149.994 146.472  0.00  0.00    -0.341 OA
ATOM      2  C   LIG     1     153.523 149.124 145.810  0.00  0.00     0.282 C 
ATOM      3  C   LIG     1     153.715 149.555 144.355  0.00  0.00     0.201 C 
ATOM      4  C   LIG     1     154.119 151.025 144.258  0.00  0.00     0.179 C 
ATOM      5  C   LIG     1     153.207 151.908 145.110  0.00  0.00     0.177 C 
ATOM      6  C   LIG     1     153.073 151.343 146.527  0.00  0.00     0.178 C 
ENDROOT
BRANCH   6   7
ATOM      7  C   LIG     1     152.077 152.141 147.362  0.00  0.00     0.197 C 
BRANCH   7   8
ATOM      8  O   LIG     1     152.380 151.948 148.731  0.00  0.00    -0.346 OA
BRANCH   8   9
ATOM      9  C   LIG     1     152.076 153.102 149.507  0.00  0.00     0.281 C 
ATOM     10  O   LIG     1     153.070 154.123 149.363  0.00  0.00    -0.346 OA
ATOM     11  C   LIG     1     154.340 153.770 149.907  0.00  0.00     0.197 C 
ATOM     12  C   LIG     1     154.226 153.496 151.401  0.00  0.00     0.171 C 
ATOM     13  C   LIG     1     153.210 152.385 151.670  0.00  0.00     0.178 C 
ATOM     14  C   LIG     1     151.881 152.707 150.979  0.00  0.00     0.201 C 
BRANCH  12  15
ATOM     15  O   LIG     1     155.491 153.132 151.936  0.00  0.00    -0.387 OA
ATOM     16  H   LIG     1     156.167 153.664 151.481  0.00  0.00     0.210 HD
ENDBRANCH  12  15
BRANCH  13  17
ATOM     17  O   LIG     1     153.720 151.149 151.172  0.00  0.00    -0.386 OA
ATOM     18  H   LIG     1     154.266 151.350 150.393  0.00  0.00     0.210 HD
ENDBRANCH  13  17
BRANCH  14  19
ATOM     19  O   LIG     1     151.252 153.797 151.649  0.00  0.00    -0.384 OA
ATOM     20  H   LIG     1     151.789 154.033 152.424  0.00  0.00     0.210 HD
ENDBRANCH  14  19
ENDBRANCH   8   9
ENDBRANCH   7   8
ENDBRANCH   6   7
BRANCH   5  21
ATOM     21  O   LIG     1     153.752 153.223 145.177  0.00  0.00    -0.386 OA
ATOM     22  H   LIG     1     154.680 153.150 145.458  0.00  0.00     0.210 HD
ENDBRANCH   5  21
BRANCH   2  23
ATOM     23  O   LIG     1     153.012 147.793 145.812  0.00  0.00    -0.345 OA
BRANCH  23  24
ATOM     24  C   LIG     1     151.642 147.765 145.445  0.00  0.00     0.190 C 
BRANCH  24  25
ATOM     25  C   LIG     1     151.370 146.500 144.696  0.00  0.00     0.001 C 
ATOM     26  C   LIG     1     152.064 146.122 143.611  0.00  0.00     0.006 C 
BRANCH  26  27
ATOM     27  C   LIG     1     151.841 144.880 142.851  0.00  0.00    -0.025 A 
ATOM     28  C   LIG     1     151.068 144.916 141.702  0.00  0.00     0.008 A 
ATOM     29  C   LIG     1     150.858 143.740 140.983  0.00  0.00     0.001 A 
ATOM     30  C   LIG     1     151.422 142.543 141.422  0.00  0.00     0.000 A 
ATOM     31  C   LIG     1     152.198 142.521 142.581  0.00  0.00     0.001 A 
ATOM     32  C   LIG     1     152.409 143.698 143.300  0.00  0.00     0.008 A 
ENDBRANCH  26  27
ENDBRANCH  24  25
ENDBRANCH  23  24
ENDBRANCH   2  23
BRANCH   4  33
ATOM     33  O   LIG     1     154.012 151.459 142.902  0.00  0.00    -0.386 OA
ATOM     34  H   LIG     1     153.328 150.916 142.475  0.00  0.00     0.210 HD
ENDBRANCH   4  33
BRANCH   3  35
ATOM     35  O   LIG     1     154.737 148.742 143.780  0.00  0.00    -0.384 OA
ATOM     36  H   LIG     1     155.575 149.232 143.829  0.00  0.00     0.210 HD
ENDBRANCH   3  35
TORSDOF 13
ENDMDL
MODEL 4
REMARK VINA RESULT:      -8.0      2.950      4.283
REMARK  13 active torsions:
REMARK  status: ('A' for Active; 'I' for Inactive)
REMARK    1  A    between atoms: C_2  and  O_12 
REMARK    2  A    between atoms: C_3  and  O_10 
REMARK    3  A    between atoms: C_4  and  O_8 
REMARK    4  A    between atoms: C_5  and  O_6 
REMARK    5  A    between atoms: C_22  and  C_23 
REMARK    6  A    between atoms: O_12  and  C_13 
REMARK    7  A    between atoms: C_13  and  C_14 
REMARK    8  A    between atoms: C_15  and  C_16 
REMARK    9  A    between atoms: C_23  and  O_24 
REMARK   10  A    between atoms: O_24  and  C_25 
REMARK   11  A    between atoms: C_26  and  O_34 
REMARK   12  A    between atoms: C_27  and  O_32 
REMARK   13  A    between atoms: C_28  and  O_30 
ROOT
ATOM      1  O   LIG     1     152.979 156.070 151.192  0.00  0.00    -0.341 OA
ATOM      2  C   LIG     1     153.087 154.679 151.483  0.00  0.00     0.282 C 
ATOM      3  C   LIG     1     154.542 154.220 151.378  0.00  0.00     0.201 C 
ATOM      4  C   LIG     1     155.460 155.080 152.245  0.00  0.00     0.179 C 
ATOM      5  C   LIG     1     155.203 156.569 152.018  0.00  0.00     0.177 C 
ATOM      6  C   LIG     1     153.707 156.882 152.114  0.00  0.00     0.178 C 
ENDROOT
BRANCH   6   7
ATOM      7  C   LIG     1     153.413 158.341 151.777  0.00  0.00     0.197 C 
BRANCH   7   8
ATOM      8  O   LIG     1     154.345 158.775 150.804  0.00  0.00    -0.346 OA
BRANCH   8   9
ATOM      9  C   LIG     1     153.703 159.171 149.596  0.00  0.00     0.281 C 
ATOM     10  O   LIG     1     154.054 158.320 148.499  0.00  0.00    -0.346 OA
ATOM     11  C   LIG     1     155.422 158.417 148.111  0.00  0.00     0.197 C 
ATOM     12  C   LIG     1     155.756 159.837 147.671  0.00  0.00     0.171 C 
ATOM     13  C   LIG     1     155.454 160.834 148.791  0.00  0.00     0.178 C 
ATOM     14  C   LIG     1     154.019 160.643 149.294  0.00  0.00     0.201 C 
BRANCH  12  15
ATOM     15  O   LIG     1     157.123 159.931 147.297  0.00  0.00    -0.387 OA
ATOM     16  H   LIG     1     157.345 159.131 146.790  0.00  0.00     0.210 HD
ENDBRANCH  12  15
BRANCH  13  17
ATOM     17  O   LIG     1     156.368 160.625 149.866  0.00  0.00    -0.386 OA
ATOM     18  H   LIG     1     157.095 160.072 149.530  0.00  0.00     0.210 HD
ENDBRANCH  13  17
BRANCH  14  19
ATOM     19  O   LIG     1     153.106 161.094 148.296  0.00  0.00    -0.384 OA
ATOM     20  H   LIG     1     153.364 160.706 147.444  0.00  0.00     0.210 HD
ENDBRANCH  14  19
ENDBRANCH   8   9
ENDBRANCH   7   8
ENDBRANCH   6   7
BRANCH   5  21
ATOM     21  O   LIG     1     155.907 157.325 153.001  0.00  0.00    -0.386 OA
ATOM     22  H   LIG     1     155.363 158.099 153.229  0.00  0.00     0.210 HD
ENDBRANCH   5  21
BRANCH   2  23
ATOM     23  O   LIG     1     152.319 153.929 150.545  0.00  0.00    -0.345 OA
BRANCH  23  24
ATOM     24  C   LIG     1     151.066 153.546 151.090  0.00  0.00     0.190 C 
BRANCH  24  25
ATOM     25  C   LIG     1     149.991 154.358 150.443  0.00  0.00     0.001 C 
ATOM     26  C   LIG     1     148.870 154.737 151.077  0.00  0.00     0.006 C 
BRANCH  26  27
ATOM     27  C   LIG     1     147.792 155.548 150.485  0.00  0.00    -0.025 A 
ATOM     28  C   LIG     1     147.902 156.929 150.488  0.00  0.00     0.008 A 
ATOM     29  C   LIG     1     146.882 157.696 149.927  0.00  0.00     0.001 A 
ATOM     30  C   LIG     1     145.764 157.073 149.373  0.00  0.00     0.000 A 
ATOM     31  C   LIG     1     145.667 155.682 149.378  0.00  0.00     0.001 A 
ATOM     32  C   LIG     1     146.688 154.914 149.938  0.00  0.00     0.008 A 
ENDBRANCH  26  27
ENDBRANCH  24  25
ENDBRANCH  23  24
ENDBRANCH   2  23
BRANCH   4  33
ATOM     33  O   LIG     1     156.822 154.811 151.907  0.00  0.00    -0.386 OA
ATOM     34  H   LIG     1     157.099 154.029 152.413  0.00  0.00     0.210 HD
ENDBRANCH   4  33
BRANCH   3  35
ATOM     35  O   LIG     1     154.615 152.862 151.810  0.00  0.00    -0.384 OA
ATOM     36  H   LIG     1     155.459 152.493 151.502  0.00  0.00     0.210 HD
ENDBRANCH   3  35
TORSDOF 13
ENDMDL
MODEL 5
REMARK VINA RESULT:      -8.0      3.638      5.090
REMARK  13 active torsions:
REMARK  status: ('A' for Active; 'I' for Inactive)
REMARK    1  A    between atoms: C_2  and  O_12 
REMARK    2  A    between atoms: C_3  and  O_10 
REMARK    3  A    between atoms: C_4  and  O_8 
REMARK    4  A    between atoms: C_5  and  O_6 
REMARK    5  A    between atoms: C_22  and  C_23 
REMARK    6  A    between atoms: O_12  and  C_13 
REMARK    7  A    between atoms: C_13  and  C_14 
REMARK    8  A    between atoms: C_15  and  C_16 
REMARK    9  A    between atoms: C_23  and  O_24 
REMARK   10  A    between atoms: O_24  and  C_25 
REMARK   11  A    between atoms: C_26  and  O_34 
REMARK   12  A    between atoms: C_27  and  O_32 
REMARK   13  A    between atoms: C_28  and  O_30 
ROOT
ATOM      1  O   LIG     1     153.349 156.932 151.862  0.00  0.00    -0.341 OA
ATOM      2  C   LIG     1     152.459 155.867 152.189  0.00  0.00     0.282 C 
ATOM      3  C   LIG     1     153.075 154.519 151.812  0.00  0.00     0.201 C 
ATOM      4  C   LIG     1     154.459 154.346 152.437  0.00  0.00     0.179 C 
ATOM      5  C   LIG     1     155.332 155.578 152.200  0.00  0.00     0.177 C 
ATOM      6  C   LIG     1     154.581 156.857 152.582  0.00  0.00     0.178 C 
ENDROOT
BRANCH   6   7
ATOM      7  C   LIG     1     155.388 158.107 152.245  0.00  0.00     0.197 C 
BRANCH   7   8
ATOM      8  O   LIG     1     154.688 158.844 151.259  0.00  0.00    -0.346 OA
BRANCH   8   9
ATOM      9  C   LIG     1     155.565 159.365 150.267  0.00  0.00     0.281 C 
ATOM     10  O   LIG     1     155.043 160.551 149.658  0.00  0.00    -0.346 OA
ATOM     11  C   LIG     1     153.870 160.329 148.879  0.00  0.00     0.197 C 
ATOM     12  C   LIG     1     154.158 159.360 147.740  0.00  0.00     0.171 C 
ATOM     13  C   LIG     1     154.689 158.032 148.283  0.00  0.00     0.178 C 
ATOM     14  C   LIG     1     155.874 158.282 149.221  0.00  0.00     0.201 C 
BRANCH  12  15
ATOM     15  O   LIG     1     152.983 159.132 146.974  0.00  0.00    -0.387 OA
ATOM     16  H   LIG     1     152.269 159.663 147.366  0.00  0.00     0.210 HD
ENDBRANCH  12  15
BRANCH  13  17
ATOM     17  O   LIG     1     153.649 157.365 148.995  0.00  0.00    -0.386 OA
ATOM     18  H   LIG     1     153.654 156.433 148.716  0.00  0.00     0.210 HD
ENDBRANCH  13  17
BRANCH  14  19
ATOM     19  O   LIG     1     156.998 158.715 148.458  0.00  0.00    -0.384 OA
ATOM     20  H   LIG     1     157.500 159.357 148.986  0.00  0.00     0.210 HD
ENDBRANCH  14  19
ENDBRANCH   8   9
ENDBRANCH   7   8
ENDBRANCH   6   7
BRANCH   5  21
ATOM     21  O   LIG     1     156.517 155.475 152.986  0.00  0.00    -0.386 OA
ATOM     22  H   LIG     1     157.023 156.299 152.874  0.00  0.00     0.210 HD
ENDBRANCH   5  21
BRANCH   2  23
ATOM     23  O   LIG     1     151.243 156.015 151.459  0.00  0.00    -0.345 OA
BRANCH  23  24
ATOM     24  C   LIG     1     151.076 157.345 150.996  0.00  0.00     0.190 C 
BRANCH  24  25
ATOM     25  C   LIG     1     149.687 157.499 150.464  0.00  0.00     0.001 C 
ATOM     26  C   LIG     1     148.746 156.549 150.573  0.00  0.00     0.006 C 
BRANCH  26  27
ATOM     27  C   LIG     1     147.363 156.662 150.078  0.00  0.00    -0.025 A 
ATOM     28  C   LIG     1     146.619 155.511 149.872  0.00  0.00     0.008 A 
ATOM     29  C   LIG     1     145.311 155.619 149.403  0.00  0.00     0.001 A 
ATOM     30  C   LIG     1     144.763 156.875 149.145  0.00  0.00     0.000 A 
ATOM     31  C   LIG     1     145.523 158.024 149.356  0.00  0.00     0.001 A 
ATOM     32  C   LIG     1     146.833 157.917 149.825  0.00  0.00     0.008 A 
ENDBRANCH  26  27
ENDBRANCH  24  25
ENDBRANCH  23  24
ENDBRANCH   2  23
BRANCH   4  33
ATOM     33  O   LIG     1     155.112 153.222 151.844  0.00  0.00    -0.386 OA
ATOM     34  H   LIG     1     156.048 153.457 151.728  0.00  0.00     0.210 HD
ENDBRANCH   4  33
BRANCH   3  35
ATOM     35  O   LIG     1     152.210 153.485 152.282  0.00  0.00    -0.384 OA
ATOM     36  H   LIG     1     152.316 152.716 151.698  0.00  0.00     0.210 HD
ENDBRANCH   3  35
TORSDOF 13
ENDMDL
MODEL 6
REMARK VINA RESULT:      -8.0      3.382      5.878
REMARK  13 active torsions:
REMARK  status: ('A' for Active; 'I' for Inactive)
REMARK    1  A    between atoms: C_2  and  O_12 
REMARK    2  A    between atoms: C_3  and  O_10 
REMARK    3  A    between atoms: C_4  and  O_8 
REMARK    4  A    between atoms: C_5  and  O_6 
REMARK    5  A    between atoms: C_22  and  C_23 
REMARK    6  A    between atoms: O_12  and  C_13 
REMARK    7  A    between atoms: C_13  and  C_14 
REMARK    8  A    between atoms: C_15  and  C_16 
REMARK    9  A    between atoms: C_23  and  O_24 
REMARK   10  A    between atoms: O_24  and  C_25 
REMARK   11  A    between atoms: C_26  and  O_34 
REMARK   12  A    between atoms: C_27  and  O_32 
REMARK   13  A    between atoms: C_28  and  O_30 
ROOT
ATOM      1  O   LIG     1     150.704 152.367 148.211  0.00  0.00    -0.341 OA
ATOM      2  C   LIG     1     150.786 151.124 147.517  0.00  0.00     0.282 C 
ATOM      3  C   LIG     1     151.990 151.116 146.575  0.00  0.00     0.201 C 
ATOM      4  C   LIG     1     153.279 151.467 147.315  0.00  0.00     0.179 C 
ATOM      5  C   LIG     1     153.102 152.718 148.174  0.00  0.00     0.177 C 
ATOM      6  C   LIG     1     151.843 152.610 149.038  0.00  0.00     0.178 C 
ENDROOT
BRANCH   6   7
ATOM      7  C   LIG     1     151.580 153.896 149.817  0.00  0.00     0.197 C 
BRANCH   7   8
ATOM      8  O   LIG     1     152.560 154.015 150.832  0.00  0.00    -0.346 OA
BRANCH   8   9
ATOM      9  C   LIG     1     152.908 155.374 151.074  0.00  0.00     0.281 C 
ATOM     10  O   LIG     1     154.229 155.680 150.615  0.00  0.00    -0.346 OA
ATOM     11  C   LIG     1     155.259 155.014 151.343  0.00  0.00     0.197 C 
ATOM     12  C   LIG     1     155.218 155.409 152.814  0.00  0.00     0.171 C 
ATOM     13  C   LIG     1     153.851 155.088 153.421  0.00  0.00     0.178 C 
ATOM     14  C   LIG     1     152.737 155.700 152.565  0.00  0.00     0.201 C 
BRANCH  12  15
ATOM     15  O   LIG     1     156.238 154.734 153.537  0.00  0.00    -0.387 OA
ATOM     16  H   LIG     1     155.905 154.578 154.438  0.00  0.00     0.210 HD
ENDBRANCH  12  15
BRANCH  13  17
ATOM     17  O   LIG     1     153.683 153.672 153.481  0.00  0.00    -0.386 OA
ATOM     18  H   LIG     1     152.988 153.432 152.845  0.00  0.00     0.210 HD
ENDBRANCH  13  17
BRANCH  14  19
ATOM     19  O   LIG     1     152.755 157.118 152.711  0.00  0.00    -0.384 OA
ATOM     20  H   LIG     1     153.329 157.491 152.021  0.00  0.00     0.210 HD
ENDBRANCH  14  19
ENDBRANCH   8   9
ENDBRANCH   7   8
ENDBRANCH   6   7
BRANCH   5  21
ATOM     21  O   LIG     1     154.240 152.878 149.017  0.00  0.00    -0.386 OA
ATOM     22  H   LIG     1     154.495 153.817 149.002  0.00  0.00     0.210 HD
ENDBRANCH   5  21
BRANCH   2  23
ATOM     23  O   LIG     1     149.611 150.931 146.733  0.00  0.00    -0.345 OA
BRANCH  23  24
ATOM     24  C   LIG     1     149.470 151.946 145.753  0.00  0.00     0.190 C 
BRANCH  24  25
ATOM     25  C   LIG     1     148.998 151.324 144.478  0.00  0.00     0.001 C 
ATOM     26  C   LIG     1     148.202 150.244 144.436  0.00  0.00     0.006 C 
BRANCH  26  27
ATOM     27  C   LIG     1     147.700 149.606 143.207  0.00  0.00    -0.025 A 
ATOM     28  C   LIG     1     146.393 149.835 142.808  0.00  0.00     0.008 A 
ATOM     29  C   LIG     1     145.919 149.231 141.644  0.00  0.00     0.001 A 
ATOM     30  C   LIG     1     146.756 148.406 140.895  0.00  0.00     0.000 A 
ATOM     31  C   LIG     1     148.069 148.184 141.309  0.00  0.00     0.001 A 
ATOM     32  C   LIG     1     148.544 148.788 142.473  0.00  0.00     0.008 A 
ENDBRANCH  26  27
ENDBRANCH  24  25
ENDBRANCH  23  24
ENDBRANCH   2  23
BRANCH   4  33
ATOM     33  O   LIG     1     154.317 151.725 146.368  0.00  0.00    -0.386 OA
ATOM     34  H   LIG     1     153.992 152.412 145.761  0.00  0.00     0.210 HD
ENDBRANCH   4  33
BRANCH   3  35
ATOM     35  O   LIG     1     152.107 149.809 146.011  0.00  0.00    -0.384 OA
ATOM     36  H   LIG     1     151.329 149.653 145.449  0.00  0.00     0.210 HD
ENDBRANCH   3  35
TORSDOF 13
ENDMDL
MODEL 7
REMARK VINA RESULT:      -7.9      3.508      6.261
REMARK  13 active torsions:
REMARK  status: ('A' for Active; 'I' for Inactive)
REMARK    1  A    between atoms: C_2  and  O_12 
REMARK    2  A    between atoms: C_3  and  O_10 
REMARK    3  A    between atoms: C_4  and  O_8 
REMARK    4  A    between atoms: C_5  and  O_6 
REMARK    5  A    between atoms: C_22  and  C_23 
REMARK    6  A    between atoms: O_12  and  C_13 
REMARK    7  A    between atoms: C_13  and  C_14 
REMARK    8  A    between atoms: C_15  and  C_16 
REMARK    9  A    between atoms: C_23  and  O_24 
REMARK   10  A    between atoms: O_24  and  C_25 
REMARK   11  A    between atoms: C_26  and  O_34 
REMARK   12  A    between atoms: C_27  and  O_32 
REMARK   13  A    between atoms: C_28  and  O_30 
ROOT
ATOM      1  O   LIG     1     150.570 152.359 148.093  0.00  0.00    -0.341 OA
ATOM      2  C   LIG     1     150.892 151.273 147.229  0.00  0.00     0.282 C 
ATOM      3  C   LIG     1     151.672 151.770 146.011  0.00  0.00     0.201 C 
ATOM      4  C   LIG     1     152.900 152.578 146.429  0.00  0.00     0.179 C 
ATOM      5  C   LIG     1     152.540 153.630 147.477  0.00  0.00     0.177 C 
ATOM      6  C   LIG     1     151.731 153.006 148.617  0.00  0.00     0.178 C 
ENDROOT
BRANCH   6   7
ATOM      7  C   LIG     1     151.260 154.058 149.618  0.00  0.00     0.197 C 
BRANCH   7   8
ATOM      8  O   LIG     1     152.393 154.578 150.291  0.00  0.00    -0.346 OA
BRANCH   8   9
ATOM      9  C   LIG     1     152.611 153.925 151.537  0.00  0.00     0.281 C 
ATOM     10  O   LIG     1     152.565 154.840 152.638  0.00  0.00    -0.346 OA
ATOM     11  C   LIG     1     153.634 155.784 152.646  0.00  0.00     0.197 C 
ATOM     12  C   LIG     1     154.977 155.072 152.742  0.00  0.00     0.171 C 
ATOM     13  C   LIG     1     155.151 154.089 151.583  0.00  0.00     0.178 C 
ATOM     14  C   LIG     1     153.940 153.155 151.498  0.00  0.00     0.201 C 
BRANCH  12  15
ATOM     15  O   LIG     1     156.039 156.016 152.738  0.00  0.00    -0.387 OA
ATOM     16  H   LIG     1     156.677 155.738 152.057  0.00  0.00     0.210 HD
ENDBRANCH  12  15
BRANCH  13  17
ATOM     17  O   LIG     1     155.279 154.817 150.363  0.00  0.00    -0.386 OA
ATOM     18  H   LIG     1     155.463 155.744 150.593  0.00  0.00     0.210 HD
ENDBRANCH  13  17
BRANCH  14  19
ATOM     19  O   LIG     1     153.960 152.254 152.603  0.00  0.00    -0.384 OA
ATOM     20  H   LIG     1     153.304 151.556 152.443  0.00  0.00     0.210 HD
ENDBRANCH  14  19
ENDBRANCH   8   9
ENDBRANCH   7   8
ENDBRANCH   6   7
BRANCH   5  21
ATOM     21  O   LIG     1     153.736 154.199 148.005  0.00  0.00    -0.386 OA
ATOM     22  H   LIG     1     154.367 154.302 147.272  0.00  0.00     0.210 HD
ENDBRANCH   5  21
BRANCH   2  23
ATOM     23  O   LIG     1     149.693 150.656 146.763  0.00  0.00    -0.345 OA
BRANCH  23  24
ATOM     24  C   LIG     1     148.905 151.563 146.008  0.00  0.00     0.190 C 
BRANCH  24  25
ATOM     25  C   LIG     1     148.398 150.862 144.789  0.00  0.00     0.001 C 
ATOM     26  C   LIG     1     147.637 149.758 144.837  0.00  0.00     0.006 C 
BRANCH  26  27
ATOM     27  C   LIG     1     147.103 149.043 143.665  0.00  0.00    -0.025 A 
ATOM     28  C   LIG     1     146.588 149.769 142.603  0.00  0.00     0.008 A 
ATOM     29  C   LIG     1     146.084 149.091 141.493  0.00  0.00     0.001 A 
ATOM     30  C   LIG     1     146.098 147.697 141.460  0.00  0.00     0.000 A 
ATOM     31  C   LIG     1     146.619 146.979 142.537  0.00  0.00     0.001 A 
ATOM     32  C   LIG     1     147.124 147.657 143.647  0.00  0.00     0.008 A 
ENDBRANCH  26  27
ENDBRANCH  24  25
ENDBRANCH  23  24
ENDBRANCH   2  23
BRANCH   4  33
ATOM     33  O   LIG     1     153.434 153.255 145.290  0.00  0.00    -0.386 OA
ATOM     34  H   LIG     1     154.364 152.985 145.201  0.00  0.00     0.210 HD
ENDBRANCH   4  33
BRANCH   3  35
ATOM     35  O   LIG     1     152.087 150.635 145.252  0.00  0.00    -0.384 OA
ATOM     36  H   LIG     1     151.690 149.843 145.653  0.00  0.00     0.210 HD
ENDBRANCH   3  35
TORSDOF 13
ENDMDL
MODEL 8
REMARK VINA RESULT:      -7.9      2.422      4.809
REMARK  13 active torsions:
REMARK  status: ('A' for Active; 'I' for Inactive)
REMARK    1  A    between atoms: C_2  and  O_12 
REMARK    2  A    between atoms: C_3  and  O_10 
REMARK    3  A    between atoms: C_4  and  O_8 
REMARK    4  A    between atoms: C_5  and  O_6 
REMARK    5  A    between atoms: C_22  and  C_23 
REMARK    6  A    between atoms: O_12  and  C_13 
REMARK    7  A    between atoms: C_13  and  C_14 
REMARK    8  A    between atoms: C_15  and  C_16 
REMARK    9  A    between atoms: C_23  and  O_24 
REMARK   10  A    between atoms: O_24  and  C_25 
REMARK   11  A    between atoms: C_26  and  O_34 
REMARK   12  A    between atoms: C_27  and  O_32 
REMARK   13  A    between atoms: C_28  and  O_30 
ROOT
ATOM      1  O   LIG     1     153.248 154.674 147.864  0.00  0.00    -0.341 OA
ATOM      2  C   LIG     1     152.679 153.526 147.239  0.00  0.00     0.282 C 
ATOM      3  C   LIG     1     152.094 152.580 148.289  0.00  0.00     0.201 C 
ATOM      4  C   LIG     1     151.108 153.305 149.203  0.00  0.00     0.179 C 
ATOM      5  C   LIG     1     151.698 154.614 149.727  0.00  0.00     0.177 C 
ATOM      6  C   LIG     1     152.281 155.444 148.580  0.00  0.00     0.178 C 
ENDROOT
BRANCH   6   7
ATOM      7  C   LIG     1     152.978 156.701 149.091  0.00  0.00     0.197 C 
BRANCH   7   8
ATOM      8  O   LIG     1     153.200 156.560 150.482  0.00  0.00    -0.346 OA
BRANCH   8   9
ATOM      9  C   LIG     1     154.544 156.866 150.837  0.00  0.00     0.281 C 
ATOM     10  O   LIG     1     155.488 156.113 150.067  0.00  0.00    -0.346 OA
ATOM     11  C   LIG     1     155.460 154.713 150.335  0.00  0.00     0.197 C 
ATOM     12  C   LIG     1     155.790 154.439 151.796  0.00  0.00     0.171 C 
ATOM     13  C   LIG     1     154.811 155.170 152.716  0.00  0.00     0.178 C 
ATOM     14  C   LIG     1     154.748 156.656 152.345  0.00  0.00     0.201 C 
BRANCH  12  15
ATOM     15  O   LIG     1     155.749 153.043 152.061  0.00  0.00    -0.387 OA
ATOM     16  H   LIG     1     156.280 152.599 151.378  0.00  0.00     0.210 HD
ENDBRANCH  12  15
BRANCH  13  17
ATOM     17  O   LIG     1     153.515 154.590 152.583  0.00  0.00    -0.386 OA
ATOM     18  H   LIG     1     152.912 155.082 153.166  0.00  0.00     0.210 HD
ENDBRANCH  13  17
BRANCH  14  19
ATOM     19  O   LIG     1     155.971 157.287 152.717  0.00  0.00    -0.384 OA
ATOM     20  H   LIG     1     155.954 158.204 152.394  0.00  0.00     0.210 HD
ENDBRANCH  14  19
ENDBRANCH   8   9
ENDBRANCH   7   8
ENDBRANCH   6   7
BRANCH   5  21
ATOM     21  O   LIG     1     150.677 155.363 150.380  0.00  0.00    -0.386 OA
ATOM     22  H   LIG     1     149.972 155.538 149.732  0.00  0.00     0.210 HD
ENDBRANCH   5  21
BRANCH   2  23
ATOM     23  O   LIG     1     153.689 152.818 146.522  0.00  0.00    -0.345 OA
BRANCH  23  24
ATOM     24  C   LIG     1     153.532 152.973 145.120  0.00  0.00     0.190 C 
BRANCH  24  25
ATOM     25  C   LIG     1     153.667 151.634 144.470  0.00  0.00     0.001 C 
ATOM     26  C   LIG     1     153.676 150.479 145.154  0.00  0.00     0.006 C 
BRANCH  26  27
ATOM     27  C   LIG     1     153.792 149.138 144.556  0.00  0.00    -0.025 A 
ATOM     28  C   LIG     1     153.534 148.022 145.336  0.00  0.00     0.008 A 
ATOM     29  C   LIG     1     153.644 146.753 144.768  0.00  0.00     0.001 A 
ATOM     30  C   LIG     1     154.012 146.615 143.430  0.00  0.00     0.000 A 
ATOM     31  C   LIG     1     154.270 147.748 142.658  0.00  0.00     0.001 A 
ATOM     32  C   LIG     1     154.159 149.018 143.225  0.00  0.00     0.008 A 
ENDBRANCH  26  27
ENDBRANCH  24  25
ENDBRANCH  23  24
ENDBRANCH   2  23
BRANCH   4  33
ATOM     33  O   LIG     1     150.805 152.476 150.327  0.00  0.00    -0.386 OA
ATOM     34  H   LIG     1     150.157 151.814 150.034  0.00  0.00     0.210 HD
ENDBRANCH   4  33
BRANCH   3  35
ATOM     35  O   LIG     1     151.421 151.520 147.609  0.00  0.00    -0.384 OA
ATOM     36  H   LIG     1     151.995 150.736 147.630  0.00  0.00     0.210 HD
ENDBRANCH   3  35
TORSDOF 13
ENDMDL
MODEL 9
REMARK VINA RESULT:      -7.9      5.265      7.701
REMARK  13 active torsions:
REMARK  status: ('A' for Active; 'I' for Inactive)
REMARK    1  A    between atoms: C_2  and  O_12 
REMARK    2  A    between atoms: C_3  and  O_10 
REMARK    3  A    between atoms: C_4  and  O_8 
REMARK    4  A    between atoms: C_5  and  O_6 
REMARK    5  A    between atoms: C_22  and  C_23 
REMARK    6  A    between atoms: O_12  and  C_13 
REMARK    7  A    between atoms: C_13  and  C_14 
REMARK    8  A    between atoms: C_15  and  C_16 
REMARK    9  A    between atoms: C_23  and  O_24 
REMARK   10  A    between atoms: O_24  and  C_25 
REMARK   11  A    between atoms: C_26  and  O_34 
REMARK   12  A    between atoms: C_27  and  O_32 
REMARK   13  A    between atoms: C_28  and  O_30 
ROOT
ATOM      1  O   LIG     1     148.939 157.032 149.221  0.00  0.00    -0.341 OA
ATOM      2  C   LIG     1     147.539 157.260 149.358  0.00  0.00     0.282 C 
ATOM      3  C   LIG     1     146.764 155.952 149.191  0.00  0.00     0.201 C 
ATOM      4  C   LIG     1     147.283 154.873 150.139  0.00  0.00     0.179 C 
ATOM      5  C   LIG     1     148.807 154.769 150.079  0.00  0.00     0.177 C 
ATOM      6  C   LIG     1     149.452 156.150 150.221  0.00  0.00     0.178 C 
ENDROOT
BRANCH   6   7
ATOM      7  C   LIG     1     150.966 156.087 150.048  0.00  0.00     0.197 C 
BRANCH   7   8
ATOM      8  O   LIG     1     151.530 155.519 151.216  0.00  0.00    -0.346 OA
BRANCH   8   9
ATOM      9  C   LIG     1     152.641 156.275 151.687  0.00  0.00     0.281 C 
ATOM     10  O   LIG     1     153.751 156.218 150.784  0.00  0.00    -0.346 OA
ATOM     11  C   LIG     1     154.341 154.925 150.679  0.00  0.00     0.197 C 
ATOM     12  C   LIG     1     154.870 154.464 152.031  0.00  0.00     0.171 C 
ATOM     13  C   LIG     1     153.750 154.449 153.072  0.00  0.00     0.178 C 
ATOM     14  C   LIG     1     153.034 155.803 153.096  0.00  0.00     0.201 C 
BRANCH  12  15
ATOM     15  O   LIG     1     155.446 153.170 151.923  0.00  0.00    -0.387 OA
ATOM     16  H   LIG     1     154.755 152.521 152.143  0.00  0.00     0.210 HD
ENDBRANCH  12  15
BRANCH  13  17
ATOM     17  O   LIG     1     152.816 153.421 152.745  0.00  0.00    -0.386 OA
ATOM     18  H   LIG     1     152.225 153.771 152.056  0.00  0.00     0.210 HD
ENDBRANCH  13  17
BRANCH  14  19
ATOM     19  O   LIG     1     153.898 156.785 153.664  0.00  0.00    -0.384 OA
ATOM     20  H   LIG     1     153.911 156.663 154.628  0.00  0.00     0.210 HD
ENDBRANCH  14  19
ENDBRANCH   8   9
ENDBRANCH   7   8
ENDBRANCH   6   7
BRANCH   5  21
ATOM     21  O   LIG     1     149.264 153.924 151.133  0.00  0.00    -0.386 OA
ATOM     22  H   LIG     1     149.064 154.364 151.977  0.00  0.00     0.210 HD
ENDBRANCH   5  21
BRANCH   2  23
ATOM     23  O   LIG     1     147.097 158.166 148.349  0.00  0.00    -0.345 OA
BRANCH  23  24
ATOM     24  C   LIG     1     147.117 157.561 147.066  0.00  0.00     0.190 C 
BRANCH  24  25
ATOM     25  C   LIG     1     147.971 158.386 146.158  0.00  0.00     0.001 C 
ATOM     26  C   LIG     1     148.288 158.016 144.907  0.00  0.00     0.006 C 
BRANCH  26  27
ATOM     27  C   LIG     1     149.112 158.802 143.973  0.00  0.00    -0.025 A 
ATOM     28  C   LIG     1     149.095 160.185 144.050  0.00  0.00     0.008 A 
ATOM     29  C   LIG     1     149.876 160.928 143.165  0.00  0.00     0.001 A 
ATOM     30  C   LIG     1     150.663 160.278 142.214  0.00  0.00     0.000 A 
ATOM     31  C   LIG     1     150.671 158.885 142.148  0.00  0.00     0.001 A 
ATOM     32  C   LIG     1     149.889 158.142 143.034  0.00  0.00     0.008 A 
ENDBRANCH  26  27
ENDBRANCH  24  25
ENDBRANCH  23  24
ENDBRANCH   2  23
BRANCH   4  33
ATOM     33  O   LIG     1     146.739 153.607 149.762  0.00  0.00    -0.386 OA
ATOM     34  H   LIG     1     145.855 153.769 149.393  0.00  0.00     0.210 HD
ENDBRANCH   4  33
BRANCH   3  35
ATOM     35  O   LIG     1     145.388 156.209 149.471  0.00  0.00    -0.384 OA
ATOM     36  H   LIG     1     144.853 155.586 148.951  0.00  0.00     0.210 HD
ENDBRANCH   3  35
TORSDOF 13
ENDMDL
MODEL 10
REMARK VINA RESULT:      -7.9      4.330      7.429
REMARK  13 active torsions:
REMARK  status: ('A' for Active; 'I' for Inactive)
REMARK    1  A    between atoms: C_2  and  O_12 
REMARK    2  A    between atoms: C_3  and  O_10 
REMARK    3  A    between atoms: C_4  and  O_8 
REMARK    4  A    between atoms: C_5  and  O_6 
REMARK    5  A    between atoms: C_22  and  C_23 
REMARK    6  A    between atoms: O_12  and  C_13 
REMARK    7  A    between atoms: C_13  and  C_14 
REMARK    8  A    between atoms: C_15  and  C_16 
REMARK    9  A    between atoms: C_23  and  O_24 
REMARK   10  A    between atoms: O_24  and  C_25 
REMARK   11  A    between atoms: C_26  and  O_34 
REMARK   12  A    between atoms: C_27  and  O_32 
REMARK   13  A    between atoms: C_28  and  O_30 
ROOT
ATOM      1  O   LIG     1     150.440 151.754 146.239  0.00  0.00    -0.341 OA
ATOM      2  C   LIG     1     150.338 150.559 145.469  0.00  0.00     0.282 C 
ATOM      3  C   LIG     1     151.713 150.137 144.950  0.00  0.00     0.201 C 
ATOM      4  C   LIG     1     152.727 150.024 146.087  0.00  0.00     0.179 C 
ATOM      5  C   LIG     1     152.694 151.261 146.984  0.00  0.00     0.177 C 
ATOM      6  C   LIG     1     151.258 151.592 147.399  0.00  0.00     0.178 C 
ENDROOT
BRANCH   6   7
ATOM      7  C   LIG     1     151.185 152.889 148.199  0.00  0.00     0.197 C 
BRANCH   7   8
ATOM      8  O   LIG     1     151.779 152.671 149.466  0.00  0.00    -0.346 OA
BRANCH   8   9
ATOM      9  C   LIG     1     151.947 153.887 150.187  0.00  0.00     0.281 C 
ATOM     10  O   LIG     1     153.079 154.633 149.725  0.00  0.00    -0.346 OA
ATOM     11  C   LIG     1     154.330 154.000 149.986  0.00  0.00     0.197 C 
ATOM     12  C   LIG     1     154.532 153.806 151.483  0.00  0.00     0.171 C 
ATOM     13  C   LIG     1     153.389 152.981 152.079  0.00  0.00     0.178 C 
ATOM     14  C   LIG     1     152.039 153.594 151.692  0.00  0.00     0.201 C 
BRANCH  12  15
ATOM     15  O   LIG     1     155.773 153.164 151.737  0.00  0.00    -0.387 OA
ATOM     16  H   LIG     1     155.580 152.271 152.071  0.00  0.00     0.210 HD
ENDBRANCH  12  15
BRANCH  13  17
ATOM     17  O   LIG     1     153.466 151.645 151.586  0.00  0.00    -0.386 OA
ATOM     18  H   LIG     1     153.079 151.061 152.261  0.00  0.00     0.210 HD
ENDBRANCH  13  17
BRANCH  14  19
ATOM     19  O   LIG     1     151.860 154.823 152.392  0.00  0.00    -0.384 OA
ATOM     20  H   LIG     1     152.570 155.432 152.130  0.00  0.00     0.210 HD
ENDBRANCH  14  19
ENDBRANCH   8   9
ENDBRANCH   7   8
ENDBRANCH   6   7
BRANCH   5  21
ATOM     21  O   LIG     1     153.477 151.020 148.150  0.00  0.00    -0.386 OA
ATOM     22  H   LIG     1     152.870 150.830 148.886  0.00  0.00     0.210 HD
ENDBRANCH   5  21
BRANCH   2  23
ATOM     23  O   LIG     1     149.491 150.780 144.344  0.00  0.00    -0.345 OA
BRANCH  23  24
ATOM     24  C   LIG     1     148.129 150.558 144.670  0.00  0.00     0.190 C 
BRANCH  24  25
ATOM     25  C   LIG     1     147.565 149.548 143.723  0.00  0.00     0.001 C 
ATOM     26  C   LIG     1     148.126 149.254 142.540  0.00  0.00     0.006 C 
BRANCH  26  27
ATOM     27  C   LIG     1     147.615 148.258 141.582  0.00  0.00    -0.025 A 
ATOM     28  C   LIG     1     146.250 148.036 141.497  0.00  0.00     0.008 A 
ATOM     29  C   LIG     1     145.767 147.093 140.590  0.00  0.00     0.001 A 
ATOM     30  C   LIG     1     146.654 146.384 139.780  0.00  0.00     0.000 A 
ATOM     31  C   LIG     1     148.026 146.619 139.876  0.00  0.00     0.001 A 
ATOM     32  C   LIG     1     148.509 147.562 140.784  0.00  0.00     0.008 A 
ENDBRANCH  26  27
ENDBRANCH  24  25
ENDBRANCH  23  24
ENDBRANCH   2  23
BRANCH   4  33
ATOM     33  O   LIG     1     154.043 149.910 145.542  0.00  0.00    -0.386 OA
ATOM     34  H   LIG     1     153.975 150.063 144.584  0.00  0.00     0.210 HD
ENDBRANCH   4  33
BRANCH   3  35
ATOM     35  O   LIG     1     151.579 148.870 144.306  0.00  0.00    -0.384 OA
ATOM     36  H   LIG     1     151.460 149.027 143.355  0.00  0.00     0.210 HD
ENDBRANCH   3  35
TORSDOF 13
ENDMDL
