REMARK VINA RESULT:      -8.0      4.843      9.058
REMARK SMILES O=C(OC[C@H]1O[C@@H](OC(=O)c2cc(O)c(O)c(O)c2)[C@H](OC(=O)c2cc(O)c(O)c(O)c2)[C@@H](O)[C@@H]1O)c1cc(O)c(O)c(O)c1
REMARK SMILES IDX 6 1 33 2 35 3 20 4 5 5 7 6 4 7 3 8 2 9 1 10 37 11 45 12
REMARK SMILES IDX 38 13 43 14 39 15 41 16 44 17 40 19 42 21 8 23 9 24 10 25
REMARK SMILES IDX 11 26 19 27 12 28 17 29 13 30 15 31 18 32 14 34 16 36 36 38
REMARK SMILES IDX 21 40 22 41 23 42 24 43 32 44 25 45 30 46 26 47 28 48 31 49
REMARK SMILES IDX 27 51 29 53 34 55
REMARK H PARENT 44 18 40 20 42 22 18 33 14 35 16 37 36 39 31 50 27 52 29 54
REMARK H PARENT 34 56
REMARK Flexibility Score: inf
ROOT
ATOM      1  O   UNL     1     182.788 184.001 172.460  1.00  0.00    -0.330 OA
ATOM      2  C   UNL     1     180.706 185.891 171.878  1.00  0.00     0.193 C 
ATOM      3  C   UNL     1     180.436 184.571 172.600  1.00  0.00     0.179 C 
ATOM      4  C   UNL     1     181.997 185.822 171.063  1.00  0.00     0.277 C 
ATOM      5  C   UNL     1     181.681 184.102 173.356  1.00  0.00     0.192 C 
ATOM      6  C   UNL     1     183.149 185.257 171.892  1.00  0.00     0.355 C 
ENDROOT
BRANCH   5   7
ATOM      7  C   UNL     1     181.474 182.729 173.989  1.00  0.00     0.268 C 
BRANCH   7   8
ATOM      8  O   UNL     1     182.729 182.081 174.079  1.00  0.00    -0.459 OA
BRANCH   8   9
ATOM      9  C   UNL     1     183.391 182.209 175.265  1.00  0.00     0.338 C 
ATOM     10  O   UNL     1     183.075 181.681 176.320  1.00  0.00    -0.246 OA
BRANCH   9  11
ATOM     11  C   UNL     1     184.575 183.093 175.120  1.00  0.00     0.067 A 
ATOM     12  C   UNL     1     185.742 182.605 174.533  1.00  0.00     0.066 A 
ATOM     13  C   UNL     1     184.520 184.413 175.568  1.00  0.00     0.066 A 
ATOM     14  C   UNL     1     186.854 183.435 174.394  1.00  0.00     0.162 A 
ATOM     15  C   UNL     1     185.631 185.243 175.429  1.00  0.00     0.162 A 
ATOM     16  C   UNL     1     186.798 184.755 174.842  1.00  0.00     0.200 A 
BRANCH  14  17
ATOM     17  O   UNL     1     187.988 182.947 173.818  1.00  0.00    -0.504 OA
ATOM     18  H   UNL     1     187.824 182.798 172.870  1.00  0.00     0.293 HD
ENDBRANCH  14  17
BRANCH  15  19
ATOM     19  O   UNL     1     185.564 186.530 175.872  1.00  0.00    -0.504 OA
ATOM     20  H   UNL     1     184.677 186.883 175.688  1.00  0.00     0.293 HD
ENDBRANCH  15  19
BRANCH  16  21
ATOM     21  O   UNL     1     187.886 185.567 174.708  1.00  0.00    -0.502 OA
ATOM     22  H   UNL     1     188.053 185.999 175.563  1.00  0.00     0.293 HD
ENDBRANCH  16  21
ENDBRANCH   9  11
ENDBRANCH   8   9
ENDBRANCH   7   8
ENDBRANCH   5   7
BRANCH   6  23
ATOM     23  O   UNL     1     184.274 185.092 171.029  1.00  0.00    -0.428 OA
BRANCH  23  24
ATOM     24  C   UNL     1     185.427 185.685 171.436  1.00  0.00     0.340 C 
ATOM     25  O   UNL     1     185.529 186.544 172.298  1.00  0.00    -0.246 OA
BRANCH  24  26
ATOM     26  C   UNL     1     186.585 185.148 170.679  1.00  0.00     0.067 A 
ATOM     27  C   UNL     1     187.826 185.782 170.760  1.00  0.00     0.066 A 
ATOM     28  C   UNL     1     186.435 184.008 169.890  1.00  0.00     0.066 A 
ATOM     29  C   UNL     1     188.915 185.275 170.050  1.00  0.00     0.162 A 
ATOM     30  C   UNL     1     187.524 183.502 169.181  1.00  0.00     0.162 A 
ATOM     31  C   UNL     1     188.764 184.135 169.262  1.00  0.00     0.200 A 
BRANCH  29  32
ATOM     32  O   UNL     1     190.121 185.903 170.138  1.00  0.00    -0.504 OA
ATOM     33  H   UNL     1     189.975 186.854 170.281  1.00  0.00     0.293 HD
ENDBRANCH  29  32
BRANCH  30  34
ATOM     34  O   UNL     1     187.363 182.387 168.414  1.00  0.00    -0.504 OA
ATOM     35  H   UNL     1     187.423 181.600 168.981  1.00  0.00     0.293 HD
ENDBRANCH  30  34
BRANCH  31  36
ATOM     36  O   UNL     1     189.828 183.641 168.567  1.00  0.00    -0.502 OA
ATOM     37  H   UNL     1     190.639 184.055 168.911  1.00  0.00     0.293 HD
ENDBRANCH  31  36
ENDBRANCH  24  26
ENDBRANCH  23  24
ENDBRANCH   6  23
BRANCH   3  38
ATOM     38  O   UNL     1     179.363 184.748 173.521  1.00  0.00    -0.387 OA
ATOM     39  H   UNL     1     178.576 184.314 173.151  1.00  0.00     0.211 HD
ENDBRANCH   3  38
BRANCH   4  40
ATOM     40  O   UNL     1     182.357 187.135 170.633  1.00  0.00    -0.449 OA
BRANCH  40  41
ATOM     41  C   UNL     1     182.420 187.322 169.287  1.00  0.00     0.339 C 
ATOM     42  O   UNL     1     181.472 187.359 168.519  1.00  0.00    -0.246 OA
BRANCH  41  43
ATOM     43  C   UNL     1     183.830 187.482 168.850  1.00  0.00     0.067 A 
ATOM     44  C   UNL     1     184.627 188.476 169.416  1.00  0.00     0.066 A 
ATOM     45  C   UNL     1     184.358 186.636 167.875  1.00  0.00     0.066 A 
ATOM     46  C   UNL     1     185.953 188.625 169.008  1.00  0.00     0.162 A 
ATOM     47  C   UNL     1     185.683 186.784 167.466  1.00  0.00     0.162 A 
ATOM     48  C   UNL     1     186.480 187.778 168.033  1.00  0.00     0.200 A 
BRANCH  46  49
ATOM     49  O   UNL     1     186.722 189.600 169.568  1.00  0.00    -0.504 OA
ATOM     50  H   UNL     1     186.151 190.345 169.828  1.00  0.00     0.293 HD
ENDBRANCH  46  49
BRANCH  47  51
ATOM     51  O   UNL     1     186.187 185.950 166.513  1.00  0.00    -0.504 OA
ATOM     52  H   UNL     1     187.010 185.551 166.844  1.00  0.00     0.293 HD
ENDBRANCH  47  51
BRANCH  48  53
ATOM     53  O   UNL     1     187.776 187.924 167.631  1.00  0.00    -0.502 OA
ATOM     54  H   UNL     1     187.817 188.656 166.990  1.00  0.00     0.293 HD
ENDBRANCH  48  53
ENDBRANCH  41  43
ENDBRANCH  40  41
ENDBRANCH   4  40
BRANCH   2  55
ATOM     55  O   UNL     1     179.605 186.149 171.004  1.00  0.00    -0.386 OA
ATOM     56  H   UNL     1     179.614 185.479 170.300  1.00  0.00     0.211 HD
ENDBRANCH   2  55
TORSDOF 21
