REMARK VINA RESULT:      -8.0      4.867      8.827
REMARK SMILES O=C(OC[C@H]1O[C@@H](OC(=O)c2cc(O)c(O)c(O)c2)[C@H](OC(=O)c2cc(O)c(O)c(O)c2)[C@@H](O)[C@@H]1O)c1cc(O)c(O)c(O)c1
REMARK SMILES IDX 6 1 33 2 35 3 20 4 5 5 7 6 4 7 3 8 2 9 1 10 37 11 45 12
REMARK SMILES IDX 38 13 43 14 39 15 41 16 44 17 40 19 42 21 8 23 9 24 10 25
REMARK SMILES IDX 11 26 19 27 12 28 17 29 13 30 15 31 18 32 14 34 16 36 36 38
REMARK SMILES IDX 21 40 22 41 23 42 24 43 32 44 25 45 30 46 26 47 28 48 31 49
REMARK SMILES IDX 27 51 29 53 34 55
REMARK H PARENT 44 18 40 20 42 22 18 33 14 35 16 37 36 39 31 50 27 52 29 54
REMARK H PARENT 34 56
REMARK Flexibility Score: inf
ROOT
ATOM      1  O   UNL     1     182.298 184.321 171.498  1.00  0.00    -0.330 OA
ATOM      2  C   UNL     1     179.839 185.753 171.889  1.00  0.00     0.193 C 
ATOM      3  C   UNL     1     180.150 184.444 172.615  1.00  0.00     0.179 C 
ATOM      4  C   UNL     1     180.668 185.888 170.612  1.00  0.00     0.277 C 
ATOM      5  C   UNL     1     181.661 184.258 172.774  1.00  0.00     0.192 C 
ATOM      6  C   UNL     1     182.145 185.593 170.873  1.00  0.00     0.355 C 
ENDROOT
BRANCH   5   7
ATOM      7  C   UNL     1     182.000 182.904 173.390  1.00  0.00     0.268 C 
BRANCH   7   8
ATOM      8  O   UNL     1     182.080 183.056 174.796  1.00  0.00    -0.459 OA
BRANCH   8   9
ATOM      9  C   UNL     1     183.147 182.466 175.407  1.00  0.00     0.338 C 
ATOM     10  O   UNL     1     183.123 181.413 176.025  1.00  0.00    -0.246 OA
BRANCH   9  11
ATOM     11  C   UNL     1     184.377 183.278 175.231  1.00  0.00     0.067 A 
ATOM     12  C   UNL     1     184.389 184.619 175.613  1.00  0.00     0.066 A 
ATOM     13  C   UNL     1     185.524 182.699 174.686  1.00  0.00     0.066 A 
ATOM     14  C   UNL     1     185.545 185.382 175.450  1.00  0.00     0.162 A 
ATOM     15  C   UNL     1     186.680 183.461 174.524  1.00  0.00     0.162 A 
ATOM     16  C   UNL     1     186.690 184.802 174.906  1.00  0.00     0.200 A 
BRANCH  14  17
ATOM     17  O   UNL     1     185.544 186.691 175.828  1.00  0.00    -0.504 OA
ATOM     18  H   UNL     1     185.939 187.227 175.119  1.00  0.00     0.293 HD
ENDBRANCH  14  17
BRANCH  15  19
ATOM     19  O   UNL     1     187.792 182.883 173.990  1.00  0.00    -0.504 OA
ATOM     20  H   UNL     1     188.502 183.546 173.942  1.00  0.00     0.293 HD
ENDBRANCH  15  19
BRANCH  16  21
ATOM     21  O   UNL     1     187.821 185.548 174.744  1.00  0.00    -0.502 OA
ATOM     22  H   UNL     1     188.410 185.082 174.126  1.00  0.00     0.293 HD
ENDBRANCH  16  21
ENDBRANCH   9  11
ENDBRANCH   8   9
ENDBRANCH   7   8
ENDBRANCH   5   7
BRANCH   6  23
ATOM     23  O   UNL     1     182.823 185.599 169.617  1.00  0.00    -0.428 OA
BRANCH  23  24
ATOM     24  C   UNL     1     183.961 184.858 169.554  1.00  0.00     0.340 C 
ATOM     25  O   UNL     1     184.064 183.734 169.090  1.00  0.00    -0.246 OA
BRANCH  24  26
ATOM     26  C   UNL     1     185.102 185.604 170.142  1.00  0.00     0.067 A 
ATOM     27  C   UNL     1     185.123 186.999 170.093  1.00  0.00     0.066 A 
ATOM     28  C   UNL     1     186.152 184.912 170.745  1.00  0.00     0.066 A 
ATOM     29  C   UNL     1     186.195 187.699 170.647  1.00  0.00     0.162 A 
ATOM     30  C   UNL     1     187.223 185.613 171.299  1.00  0.00     0.162 A 
ATOM     31  C   UNL     1     187.244 187.006 171.250  1.00  0.00     0.200 A 
BRANCH  29  32
ATOM     32  O   UNL     1     186.203 189.060 170.594  1.00  0.00    -0.504 OA
ATOM     33  H   UNL     1     185.777 189.413 171.394  1.00  0.00     0.293 HD
ENDBRANCH  29  32
BRANCH  30  34
ATOM     34  O   UNL     1     188.241 184.924 171.885  1.00  0.00    -0.504 OA
ATOM     35  H   UNL     1     188.228 184.005 171.567  1.00  0.00     0.293 HD
ENDBRANCH  30  34
BRANCH  31  36
ATOM     36  O   UNL     1     188.292 187.691 171.790  1.00  0.00    -0.502 OA
ATOM     37  H   UNL     1     189.003 187.058 171.989  1.00  0.00     0.293 HD
ENDBRANCH  31  36
ENDBRANCH  24  26
ENDBRANCH  23  24
ENDBRANCH   6  23
BRANCH   3  38
ATOM     38  O   UNL     1     179.538 184.462 173.902  1.00  0.00    -0.387 OA
ATOM     39  H   UNL     1     180.093 185.001 174.490  1.00  0.00     0.211 HD
ENDBRANCH   3  38
BRANCH   4  40
ATOM     40  O   UNL     1     180.559 187.222 170.115  1.00  0.00    -0.449 OA
BRANCH  40  41
ATOM     41  C   UNL     1     179.767 187.384 169.021  1.00  0.00     0.339 C 
ATOM     42  O   UNL     1     178.563 187.190 168.968  1.00  0.00    -0.246 OA
BRANCH  41  43
ATOM     43  C   UNL     1     180.570 187.844 167.860  1.00  0.00     0.067 A 
ATOM     44  C   UNL     1     181.829 188.408 168.062  1.00  0.00     0.066 A 
ATOM     45  C   UNL     1     180.068 187.707 166.566  1.00  0.00     0.066 A 
ATOM     46  C   UNL     1     182.586 188.837 166.972  1.00  0.00     0.162 A 
ATOM     47  C   UNL     1     180.823 188.136 165.475  1.00  0.00     0.162 A 
ATOM     48  C   UNL     1     182.082 188.700 165.678  1.00  0.00     0.200 A 
BRANCH  46  49
ATOM     49  O   UNL     1     183.814 189.387 167.182  1.00  0.00    -0.504 OA
ATOM     50  H   UNL     1     183.727 190.356 167.212  1.00  0.00     0.293 HD
ENDBRANCH  46  49
BRANCH  47  51
ATOM     51  O   UNL     1     180.320 187.995 164.217  1.00  0.00    -0.504 OA
ATOM     52  H   UNL     1     180.409 187.067 163.940  1.00  0.00     0.293 HD
ENDBRANCH  47  51
BRANCH  48  53
ATOM     53  O   UNL     1     182.820 189.121 164.610  1.00  0.00    -0.502 OA
ATOM     54  H   UNL     1     182.720 188.471 163.893  1.00  0.00     0.293 HD
ENDBRANCH  48  53
ENDBRANCH  41  43
ENDBRANCH  40  41
ENDBRANCH   4  40
BRANCH   2  55
ATOM     55  O   UNL     1     178.450 185.755 171.556  1.00  0.00    -0.386 OA
ATOM     56  H   UNL     1     178.133 186.673 171.583  1.00  0.00     0.211 HD
ENDBRANCH   2  55
TORSDOF 21
