REMARK VINA RESULT:      -8.0      4.991      9.019
REMARK SMILES O=C(OC[C@H]1O[C@@H](OC(=O)c2cc(O)c(O)c(O)c2)[C@H](OC(=O)c2cc(O)c(O)c(O)c2)[C@@H](O)[C@@H]1O)c1cc(O)c(O)c(O)c1
REMARK SMILES IDX 6 1 33 2 35 3 20 4 5 5 7 6 4 7 3 8 2 9 1 10 37 11 45 12
REMARK SMILES IDX 38 13 43 14 39 15 41 16 44 17 40 19 42 21 8 23 9 24 10 25
REMARK SMILES IDX 11 26 19 27 12 28 17 29 13 30 15 31 18 32 14 34 16 36 36 38
REMARK SMILES IDX 21 40 22 41 23 42 24 43 32 44 25 45 30 46 26 47 28 48 31 49
REMARK SMILES IDX 27 51 29 53 34 55
REMARK H PARENT 44 18 40 20 42 22 18 33 14 35 16 37 36 39 31 50 27 52 29 54
REMARK H PARENT 34 56
REMARK Flexibility Score: inf
ROOT
ATOM      1  O   UNL     1     182.158 186.027 170.310  1.00  0.00    -0.330 OA
ATOM      2  C   UNL     1     180.465 184.574 172.118  1.00  0.00     0.193 C 
ATOM      3  C   UNL     1     179.960 185.760 171.296  1.00  0.00     0.179 C 
ATOM      4  C   UNL     1     181.983 184.621 172.282  1.00  0.00     0.277 C 
ATOM      5  C   UNL     1     180.768 185.908 170.005  1.00  0.00     0.192 C 
ATOM      6  C   UNL     1     182.681 184.862 170.943  1.00  0.00     0.355 C 
ENDROOT
BRANCH   5   7
ATOM      7  C   UNL     1     180.361 187.153 169.223  1.00  0.00     0.268 C 
BRANCH   7   8
ATOM      8  O   UNL     1     181.330 188.161 169.445  1.00  0.00    -0.459 OA
BRANCH   8   9
ATOM      9  C   UNL     1     181.771 188.828 168.340  1.00  0.00     0.338 C 
ATOM     10  O   UNL     1     181.105 189.087 167.349  1.00  0.00    -0.246 OA
BRANCH   9  11
ATOM     11  C   UNL     1     183.197 189.212 168.485  1.00  0.00     0.067 A 
ATOM     12  C   UNL     1     183.855 189.862 167.441  1.00  0.00     0.066 A 
ATOM     13  C   UNL     1     183.881 188.927 169.668  1.00  0.00     0.066 A 
ATOM     14  C   UNL     1     185.194 190.226 167.577  1.00  0.00     0.162 A 
ATOM     15  C   UNL     1     185.219 189.291 169.805  1.00  0.00     0.162 A 
ATOM     16  C   UNL     1     185.876 189.941 168.760  1.00  0.00     0.200 A 
BRANCH  14  17
ATOM     17  O   UNL     1     185.825 190.861 166.550  1.00  0.00    -0.504 OA
ATOM     18  H   UNL     1     185.605 190.411 165.715  1.00  0.00     0.293 HD
ENDBRANCH  14  17
BRANCH  15  19
ATOM     19  O   UNL     1     185.875 189.006 170.965  1.00  0.00    -0.504 OA
ATOM     20  H   UNL     1     185.385 188.317 171.445  1.00  0.00     0.293 HD
ENDBRANCH  15  19
BRANCH  16  21
ATOM     21  O   UNL     1     187.187 190.295 168.893  1.00  0.00    -0.502 OA
ATOM     22  H   UNL     1     187.511 190.601 168.029  1.00  0.00     0.293 HD
ENDBRANCH  16  21
ENDBRANCH   9  11
ENDBRANCH   8   9
ENDBRANCH   7   8
ENDBRANCH   5   7
BRANCH   6  23
ATOM     23  O   UNL     1     184.075 185.034 171.197  1.00  0.00    -0.428 OA
BRANCH  23  24
ATOM     24  C   UNL     1     184.895 184.088 170.668  1.00  0.00     0.340 C 
ATOM     25  O   UNL     1     184.561 182.980 170.280  1.00  0.00    -0.246 OA
BRANCH  24  26
ATOM     26  C   UNL     1     186.295 184.580 170.621  1.00  0.00     0.067 A 
ATOM     27  C   UNL     1     187.270 183.846 169.943  1.00  0.00     0.066 A 
ATOM     28  C   UNL     1     186.636 185.778 171.250  1.00  0.00     0.066 A 
ATOM     29  C   UNL     1     188.584 184.311 169.896  1.00  0.00     0.162 A 
ATOM     30  C   UNL     1     187.950 186.241 171.202  1.00  0.00     0.162 A 
ATOM     31  C   UNL     1     188.924 185.507 170.526  1.00  0.00     0.200 A 
BRANCH  29  32
ATOM     32  O   UNL     1     189.527 183.585 169.232  1.00  0.00    -0.504 OA
ATOM     33  H   UNL     1     189.889 184.123 168.506  1.00  0.00     0.293 HD
ENDBRANCH  29  32
BRANCH  30  34
ATOM     34  O   UNL     1     188.269 187.412 171.822  1.00  0.00    -0.504 OA
ATOM     35  H   UNL     1     189.101 187.296 172.312  1.00  0.00     0.293 HD
ENDBRANCH  30  34
BRANCH  31  36
ATOM     36  O   UNL     1     190.210 185.960 170.481  1.00  0.00    -0.502 OA
ATOM     37  H   UNL     1     190.202 186.922 170.620  1.00  0.00     0.293 HD
ENDBRANCH  31  36
ENDBRANCH  24  26
ENDBRANCH  23  24
ENDBRANCH   6  23
BRANCH   3  38
ATOM     38  O   UNL     1     178.586 185.558 170.972  1.00  0.00    -0.387 OA
ATOM     39  H   UNL     1     178.494 185.621 170.006  1.00  0.00     0.211 HD
ENDBRANCH   3  38
BRANCH   4  40
ATOM     40  O   UNL     1     182.442 183.376 172.808  1.00  0.00    -0.449 OA
BRANCH  40  41
ATOM     41  C   UNL     1     182.645 183.338 174.152  1.00  0.00     0.339 C 
ATOM     42  O   UNL     1     181.836 182.977 174.992  1.00  0.00    -0.246 OA
BRANCH  41  43
ATOM     43  C   UNL     1     184.015 183.804 174.486  1.00  0.00     0.067 A 
ATOM     44  C   UNL     1     184.192 184.937 175.279  1.00  0.00     0.066 A 
ATOM     45  C   UNL     1     185.124 183.106 174.010  1.00  0.00     0.066 A 
ATOM     46  C   UNL     1     185.478 185.373 175.596  1.00  0.00     0.162 A 
ATOM     47  C   UNL     1     186.411 183.542 174.326  1.00  0.00     0.162 A 
ATOM     48  C   UNL     1     186.588 184.675 175.119  1.00  0.00     0.200 A 
BRANCH  46  49
ATOM     49  O   UNL     1     185.639 186.482 176.371  1.00  0.00    -0.504 OA
ATOM     50  H   UNL     1     186.549 186.812 176.270  1.00  0.00     0.293 HD
ENDBRANCH  46  49
BRANCH  47  51
ATOM     51  O   UNL     1     187.486 182.850 173.854  1.00  0.00    -0.504 OA
ATOM     52  H   UNL     1     187.819 182.265 174.555  1.00  0.00     0.293 HD
ENDBRANCH  47  51
BRANCH  48  53
ATOM     53  O   UNL     1     187.847 185.102 175.426  1.00  0.00    -0.502 OA
ATOM     54  H   UNL     1     187.821 185.525 176.303  1.00  0.00     0.293 HD
ENDBRANCH  48  53
ENDBRANCH  41  43
ENDBRANCH  40  41
ENDBRANCH   4  40
BRANCH   2  55
ATOM     55  O   UNL     1     179.846 184.633 173.405  1.00  0.00    -0.386 OA
ATOM     56  H   UNL     1     179.467 185.521 173.518  1.00  0.00     0.211 HD
ENDBRANCH   2  55
TORSDOF 21
