REMARK VINA RESULT:      -8.2      4.897      8.784
REMARK SMILES O=C(OC[C@H]1O[C@@H](OC(=O)c2cc(O)c(O)c(O)c2)[C@H](OC(=O)c2cc(O)c(O)c(O)c2)[C@@H](O)[C@@H]1O)c1cc(O)c(O)c(O)c1
REMARK SMILES IDX 6 1 33 2 35 3 20 4 5 5 7 6 4 7 3 8 2 9 1 10 37 11 45 12
REMARK SMILES IDX 38 13 43 14 39 15 41 16 44 17 40 19 42 21 8 23 9 24 10 25
REMARK SMILES IDX 11 26 19 27 12 28 17 29 13 30 15 31 18 32 14 34 16 36 36 38
REMARK SMILES IDX 21 40 22 41 23 42 24 43 32 44 25 45 30 46 26 47 28 48 31 49
REMARK SMILES IDX 27 51 29 53 34 55
REMARK H PARENT 44 18 40 20 42 22 18 33 14 35 16 37 36 39 31 50 27 52 29 54
REMARK H PARENT 34 56
REMARK Flexibility Score: inf
ROOT
ATOM      1  O   UNL     1     182.324 184.499 171.505  1.00  0.00    -0.330 OA
ATOM      2  C   UNL     1     179.800 185.793 171.953  1.00  0.00     0.193 C 
ATOM      3  C   UNL     1     180.174 184.471 172.622  1.00  0.00     0.179 C 
ATOM      4  C   UNL     1     180.620 186.023 170.685  1.00  0.00     0.277 C 
ATOM      5  C   UNL     1     181.692 184.350 172.776  1.00  0.00     0.192 C 
ATOM      6  C   UNL     1     182.109 185.788 170.935  1.00  0.00     0.355 C 
ENDROOT
BRANCH   5   7
ATOM      7  C   UNL     1     182.097 182.989 173.334  1.00  0.00     0.268 C 
BRANCH   7   8
ATOM      8  O   UNL     1     182.080 183.059 174.748  1.00  0.00    -0.459 OA
BRANCH   8   9
ATOM      9  C   UNL     1     183.130 182.475 175.394  1.00  0.00     0.338 C 
ATOM     10  O   UNL     1     183.088 181.433 176.029  1.00  0.00    -0.246 OA
BRANCH   9  11
ATOM     11  C   UNL     1     184.368 183.279 175.231  1.00  0.00     0.067 A 
ATOM     12  C   UNL     1     184.382 184.622 175.604  1.00  0.00     0.066 A 
ATOM     13  C   UNL     1     185.519 182.689 174.707  1.00  0.00     0.066 A 
ATOM     14  C   UNL     1     185.545 185.377 175.454  1.00  0.00     0.162 A 
ATOM     15  C   UNL     1     186.682 183.442 174.556  1.00  0.00     0.162 A 
ATOM     16  C   UNL     1     186.695 184.786 174.930  1.00  0.00     0.200 A 
BRANCH  14  17
ATOM     17  O   UNL     1     185.547 186.688 175.823  1.00  0.00    -0.504 OA
ATOM     18  H   UNL     1     186.431 186.924 176.156  1.00  0.00     0.293 HD
ENDBRANCH  14  17
BRANCH  15  19
ATOM     19  O   UNL     1     187.798 182.854 174.043  1.00  0.00    -0.504 OA
ATOM     20  H   UNL     1     187.686 182.744 173.083  1.00  0.00     0.293 HD
ENDBRANCH  15  19
BRANCH  16  21
ATOM     21  O   UNL     1     187.833 185.524 174.781  1.00  0.00    -0.502 OA
ATOM     22  H   UNL     1     188.372 185.118 174.081  1.00  0.00     0.293 HD
ENDBRANCH  16  21
ENDBRANCH   9  11
ENDBRANCH   8   9
ENDBRANCH   7   8
ENDBRANCH   5   7
BRANCH   6  23
ATOM     23  O   UNL     1     182.787 185.881 169.681  1.00  0.00    -0.428 OA
BRANCH  23  24
ATOM     24  C   UNL     1     183.879 185.085 169.537  1.00  0.00     0.340 C 
ATOM     25  O   UNL     1     183.904 183.986 169.008  1.00  0.00    -0.246 OA
BRANCH  24  26
ATOM     26  C   UNL     1     185.078 185.735 170.125  1.00  0.00     0.067 A 
ATOM     27  C   UNL     1     185.229 187.120 170.048  1.00  0.00     0.066 A 
ATOM     28  C   UNL     1     186.052 184.961 170.755  1.00  0.00     0.066 A 
ATOM     29  C   UNL     1     186.355 187.730 170.603  1.00  0.00     0.162 A 
ATOM     30  C   UNL     1     187.177 185.571 171.309  1.00  0.00     0.162 A 
ATOM     31  C   UNL     1     187.328 186.956 171.233  1.00  0.00     0.200 A 
BRANCH  29  32
ATOM     32  O   UNL     1     186.490 189.083 170.522  1.00  0.00    -0.504 OA
ATOM     33  H   UNL     1     187.416 189.321 170.703  1.00  0.00     0.293 HD
ENDBRANCH  29  32
BRANCH  30  34
ATOM     34  O   UNL     1     188.121 184.803 171.921  1.00  0.00    -0.504 OA
ATOM     35  H   UNL     1     187.801 184.550 172.804  1.00  0.00     0.293 HD
ENDBRANCH  30  34
BRANCH  31  36
ATOM     36  O   UNL     1     188.429 187.552 171.773  1.00  0.00    -0.502 OA
ATOM     37  H   UNL     1     188.851 188.097 171.086  1.00  0.00     0.293 HD
ENDBRANCH  31  36
ENDBRANCH  24  26
ENDBRANCH  23  24
ENDBRANCH   6  23
BRANCH   3  38
ATOM     38  O   UNL     1     179.563 184.403 173.909  1.00  0.00    -0.387 OA
ATOM     39  H   UNL     1     179.892 185.150 174.436  1.00  0.00     0.211 HD
ENDBRANCH   3  38
BRANCH   4  40
ATOM     40  O   UNL     1     180.447 187.369 170.245  1.00  0.00    -0.449 OA
BRANCH  40  41
ATOM     41  C   UNL     1     179.670 187.538 169.142  1.00  0.00     0.339 C 
ATOM     42  O   UNL     1     179.832 187.000 168.057  1.00  0.00    -0.246 OA
BRANCH  41  43
ATOM     43  C   UNL     1     178.563 188.487 169.424  1.00  0.00     0.067 A 
ATOM     44  C   UNL     1     177.432 188.501 168.609  1.00  0.00     0.066 A 
ATOM     45  C   UNL     1     178.653 189.361 170.507  1.00  0.00     0.066 A 
ATOM     46  C   UNL     1     176.390 189.389 168.876  1.00  0.00     0.162 A 
ATOM     47  C   UNL     1     177.613 190.250 170.774  1.00  0.00     0.162 A 
ATOM     48  C   UNL     1     176.481 190.264 169.959  1.00  0.00     0.200 A 
BRANCH  46  49
ATOM     49  O   UNL     1     175.290 189.394 168.072  1.00  0.00    -0.504 OA
ATOM     50  H   UNL     1     174.521 189.691 168.588  1.00  0.00     0.293 HD
ENDBRANCH  46  49
BRANCH  47  51
ATOM     51  O   UNL     1     177.713 191.099 171.835  1.00  0.00    -0.504 OA
ATOM     52  H   UNL     1     177.166 190.761 172.565  1.00  0.00     0.293 HD
ENDBRANCH  47  51
BRANCH  48  53
ATOM     53  O   UNL     1     175.464 191.135 170.219  1.00  0.00    -0.502 OA
ATOM     54  H   UNL     1     174.625 190.640 170.206  1.00  0.00     0.293 HD
ENDBRANCH  48  53
ENDBRANCH  41  43
ENDBRANCH  40  41
ENDBRANCH   4  40
BRANCH   2  55
ATOM     55  O   UNL     1     178.412 185.742 171.619  1.00  0.00    -0.386 OA
ATOM     56  H   UNL     1     177.900 185.749 172.446  1.00  0.00     0.211 HD
ENDBRANCH   2  55
TORSDOF 21
