REMARK  4 active torsions:
REMARK  status: ('A' for Active; 'I' for Inactive)
REMARK    1  A    between atoms: O_1  and  C_10 
REMARK    2  A    between atoms: O_1  and  C_11 
REMARK    3  A    between atoms: N_3  and  C_7 
REMARK    4  A    between atoms: C_4  and  C_10 
ROOT
HETATM    1  O   UNK     0      -2.113  -0.357   0.001  0.00  0.00    -0.318 OA
ENDROOT
BRANCH   1   2
HETATM    2  C   UNK     0      -1.296   0.741   0.001  0.00  0.00     0.293 C 
HETATM    3  O   UNK     0      -1.706   1.909   0.000  0.00  0.00    -0.259 OA
BRANCH   2   4
HETATM    4  C   UNK     0       0.108   0.362   0.001  0.00  0.00     0.039 A 
HETATM    5  C   UNK     0       1.096   1.347  -0.000  0.00  0.00     0.020 A 
HETATM    6  C   UNK     0       2.443   0.983  -0.001  0.00  0.00     0.030 A 
HETATM    7  C   UNK     0       2.802  -0.365  -0.000  0.00  0.00     0.025 A 
HETATM    8  C   UNK     0       1.814  -1.349   0.001  0.00  0.00     0.030 A 
HETATM    9  C   UNK     0       0.467  -0.986   0.001  0.00  0.00     0.020 A 
BRANCH   7  10
HETATM   10  N   UNK     0       4.163  -0.732  -0.001  0.00  0.00    -0.399 N 
HETATM   11  H   UNK     0       4.424  -1.709   0.000  0.00  0.00     0.156 HD
HETATM   12  H   UNK     0       4.880  -0.018  -0.001  0.00  0.00     0.156 HD
ENDBRANCH   7  10
ENDBRANCH   2   4
ENDBRANCH   1   2
BRANCH   1  13
HETATM   13  C   UNK     0      -3.524  -0.113  -0.001  0.00  0.00     0.174 C 
HETATM   14  C   UNK     0      -4.253  -1.439  -0.001  0.00  0.00     0.034 C 
ENDBRANCH   1  13
TORSDOF 4
