REMARK  13 active torsions:
REMARK  status: ('A' for Active; 'I' for Inactive)
REMARK    1  A    between atoms: O_1  and  C_19 
REMARK    2  A    between atoms: O_2  and  C_23 
REMARK    3  A    between atoms: O_3  and  C_27 
REMARK    4  A    between atoms: O_4  and  C_30 
REMARK    5  A    between atoms: N_5  and  C_12 
REMARK    6  A    between atoms: N_5  and  C_18 
REMARK    7  A    between atoms: C_7  and  C_8 
REMARK    8  A    between atoms: C_7  and  C_9 
REMARK    9  A    between atoms: C_7  and  C_11 
REMARK   10  A    between atoms: C_9  and  C_10 
REMARK   11  A    between atoms: C_10  and  C_12 
REMARK   12  A    between atoms: C_18  and  C_22 
REMARK   13  A    between atoms: C_22  and  C_24 
ROOT
HETATM    1  O   UNK     0      -3.583   3.323  -1.618  0.00  0.00    -0.353 OA
HETATM    2  C   UNK     0      -4.734   2.840  -2.309  0.00  0.00     0.210 C 
ENDROOT
BRANCH   1   3
HETATM    3  C   UNK     0      -2.970   2.463  -0.759  0.00  0.00     0.102 A 
HETATM    4  C   UNK     0      -3.483   1.176  -0.595  0.00  0.00     0.048 A 
HETATM    5  C   UNK     0      -2.864   0.285   0.283  0.00  0.00    -0.032 A 
HETATM    6  C   UNK     0      -1.732   0.681   0.996  0.00  0.00     0.012 A 
HETATM    7  C   UNK     0      -1.220   1.968   0.831  0.00  0.00     0.040 A 
HETATM    8  C   UNK     0      -1.838   2.859  -0.046  0.00  0.00     0.101 A 
BRANCH   5   9
HETATM    9  C   UNK     0      -3.433  -1.142   0.465  0.00  0.00     0.079 C 
HETATM   10  C   UNK     0      -4.642  -1.400  -0.370  0.00  0.00     0.074 C 
HETATM   11  N   UNK     0      -5.581  -1.617  -1.016  0.00  0.00    -0.196 NA
BRANCH   9  12
HETATM   12  C   UNK     0      -3.823  -1.352   1.990  0.00  0.00     0.004 C 
HETATM   13  C   UNK     0      -4.271  -2.782   2.337  0.00  0.00     0.011 C 
HETATM   14  C   UNK     0      -4.906  -0.371   2.480  0.00  0.00     0.011 C 
ENDBRANCH   9  12
BRANCH   9  15
HETATM   15  C   UNK     0      -2.350  -2.198   0.039  0.00  0.00     0.032 C 
BRANCH  15  16
HETATM   16  C   UNK     0      -1.637  -1.903  -1.298  0.00  0.00     0.032 C 
BRANCH  16  17
HETATM   17  C   UNK     0      -0.659  -3.010  -1.704  0.00  0.00     0.272 C 
BRANCH  17  18
HETATM   18  N   UNK     0       0.380  -3.214  -0.703  0.00  0.00     0.084 N 
HETATM   19  C   UNK     0       0.982  -4.541  -0.847  0.00  0.00     0.309 C 
BRANCH  18  20
HETATM   20  C   UNK     0       1.408  -2.177  -0.808  0.00  0.00     0.276 C 
BRANCH  20  21
HETATM   21  C   UNK     0       2.136  -1.990   0.523  0.00  0.00     0.068 C 
BRANCH  21  22
HETATM   22  C   UNK     0       3.184  -0.908   0.435  0.00  0.00    -0.054 A 
HETATM   23  C   UNK     0       4.488  -1.230   0.061  0.00  0.00     0.046 A 
HETATM   24  C   UNK     0       5.457  -0.229  -0.022  0.00  0.00     0.102 A 
HETATM   25  C   UNK     0       5.121   1.093   0.270  0.00  0.00     0.101 A 
HETATM   26  C   UNK     0       3.816   1.414   0.644  0.00  0.00     0.040 A 
HETATM   27  C   UNK     0       2.847   0.414   0.726  0.00  0.00     0.010 A 
BRANCH  24  28
HETATM   28  O   UNK     0       6.728  -0.555  -0.388  0.00  0.00    -0.353 OA
HETATM   29  C   UNK     0       6.989  -1.929  -0.670  0.00  0.00     0.210 C 
ENDBRANCH  24  28
BRANCH  25  30
HETATM   30  O   UNK     0       6.057   2.079   0.193  0.00  0.00    -0.353 OA
HETATM   31  C   UNK     0       5.631   3.403   0.507  0.00  0.00     0.210 C 
ENDBRANCH  25  30
ENDBRANCH  21  22
ENDBRANCH  20  21
ENDBRANCH  18  20
ENDBRANCH  17  18
ENDBRANCH  16  17
ENDBRANCH  15  16
ENDBRANCH   9  15
ENDBRANCH   5   9
BRANCH   8  32
HETATM   32  O   UNK     0      -1.328   4.113  -0.197  0.00  0.00    -0.353 OA
HETATM   33  C   UNK     0      -0.170   4.438   0.568  0.00  0.00     0.210 C 
ENDBRANCH   8  32
ENDBRANCH   1   3
TORSDOF 13
