MODEL 1
REMARK VINA RESULT:      -7.2      0.000      0.000
REMARK  Name = 9823887
REMARK                            x       y       z     vdW  Elec       q    Type
REMARK                         _______ _______ _______ _____ _____    ______ ____
ROOT
ATOM      1  O   LIG    1       30.301  30.595  18.929  0.00  0.00    -0.341 OA
ATOM      2  C   LIG    1       29.039  31.132  18.541  0.00  0.00    +0.282 C 
ATOM      3  C   LIG    1       28.030  31.004  19.682  0.00  0.00    +0.201 C 
ATOM      4  C   LIG    1       28.566  31.625  20.971  0.00  0.00    +0.179 C 
ATOM      5  C   LIG    1       29.986  31.145  21.268  0.00  0.00    +0.177 C 
ATOM     22  C   LIG    1       30.879  31.293  20.033  0.00  0.00    +0.178 C 
ENDROOT
BRANCH   5   6
ATOM      6  O   LIG    1       30.530  31.914  22.338  0.00  0.00    -0.386 OA
ATOM      7  H   LIG    1       29.794  32.205  22.903  0.00  0.00    +0.210 HD
ENDBRANCH   5   6
BRANCH   4   8
ATOM      8  O   LIG    1       27.733  31.242  22.067  0.00  0.00    -0.386 OA
ATOM      9  H   LIG    1       27.095  31.961  22.213  0.00  0.00    +0.210 HD
ENDBRANCH   4   8
BRANCH   3  10
ATOM     10  O   LIG    1       26.831  31.675  19.296  0.00  0.00    -0.384 OA
ATOM     11  H   LIG    1       26.976  32.072  18.420  0.00  0.00    +0.210 HD
ENDBRANCH   3  10
BRANCH   2  12
ATOM     12  O   LIG    1       28.531  30.409  17.421  0.00  0.00    -0.345 OA
BRANCH  12  13
ATOM     13  C   LIG    1       29.514  30.268  16.408  0.00  0.00    +0.190 C 
BRANCH  13  14
ATOM     14  C   LIG    1       29.288  28.974  15.694  0.00  0.00    +0.001 C 
ATOM     15  C   LIG    1       30.153  28.461  14.806  0.00  0.00    +0.006 C 
BRANCH  15  16
ATOM     16  C   LIG    1       29.979  27.185  14.091  0.00  0.00    -0.025 A 
ATOM     17  C   LIG    1       28.960  27.062  13.159  0.00  0.00    +0.008 A 
ATOM     18  C   LIG    1       28.796  25.854  12.482  0.00  0.00    +0.001 A 
ATOM     19  C   LIG    1       29.651  24.785  12.745  0.00  0.00    +0.000 A 
ATOM     20  C   LIG    1       30.672  24.922  13.685  0.00  0.00    +0.001 A 
ATOM     21  C   LIG    1       30.837  26.131  14.362  0.00  0.00    +0.008 A 
ENDBRANCH  15  16
ENDBRANCH  13  14
ENDBRANCH  12  13
ENDBRANCH   2  12
BRANCH  22  23
ATOM     23  C   LIG    1       32.270  30.713  20.269  0.00  0.00    +0.197 C 
BRANCH  23  24
ATOM     24  O   LIG    1       32.557  29.794  19.230  0.00  0.00    -0.346 OA
BRANCH  24  25
ATOM     25  C   LIG    1       33.258  28.653  19.714  0.00  0.00    +0.281 C 
ATOM     26  C   LIG    1       32.311  27.767  20.537  0.00  0.00    +0.201 C 
ATOM     27  C   LIG    1       31.327  26.996  19.651  0.00  0.00    +0.178 C 
ATOM     28  C   LIG    1       32.076  26.303  18.512  0.00  0.00    +0.171 C 
ATOM     29  C   LIG    1       32.956  27.297  17.765  0.00  0.00    +0.197 C 
ATOM     36  O   LIG    1       33.881  27.917  18.655  0.00  0.00    -0.346 OA
BRANCH  28  30
ATOM     30  O   LIG    1       31.148  25.697  17.623  0.00  0.00    -0.387 OA
ATOM     31  H   LIG    1       30.302  25.609  18.096  0.00  0.00    +0.210 HD
ENDBRANCH  28  30
BRANCH  27  32
ATOM     32  O   LIG    1       30.368  27.900  19.104  0.00  0.00    -0.386 OA
ATOM     33  H   LIG    1       29.503  27.677  19.488  0.00  0.00    +0.210 HD
ENDBRANCH  27  32
BRANCH  26  34
ATOM     34  O   LIG    1       33.104  26.842  21.277  0.00  0.00    -0.384 OA
ATOM     35  H   LIG    1       33.453  27.295  22.063  0.00  0.00    +0.210 HD
ENDBRANCH  26  34
ENDBRANCH  24  25
ENDBRANCH  23  24
ENDBRANCH  22  23
TORSDOF 13
ENDMDL
MODEL 2
REMARK VINA RESULT:      -6.9      2.090      3.320
REMARK  Name = 9823887
REMARK                            x       y       z     vdW  Elec       q    Type
REMARK                         _______ _______ _______ _____ _____    ______ ____
ROOT
ATOM      1  O   LIG    1       29.387  30.151  17.800  0.00  0.00    -0.341 OA
ATOM      2  C   LIG    1       28.935  31.154  16.893  0.00  0.00    +0.282 C 
ATOM      3  C   LIG    1       27.491  31.546  17.204  0.00  0.00    +0.201 C 
ATOM      4  C   LIG    1       27.328  31.955  18.668  0.00  0.00    +0.179 C 
ATOM      5  C   LIG    1       27.968  30.931  19.604  0.00  0.00    +0.177 C 
ATOM     22  C   LIG    1       29.394  30.601  19.156  0.00  0.00    +0.178 C 
ENDROOT
BRANCH   5   6
ATOM      6  O   LIG    1       27.999  31.457  20.928  0.00  0.00    -0.386 OA
ATOM      7  H   LIG    1       27.291  31.027  21.438  0.00  0.00    +0.210 HD
ENDBRANCH   5   6
BRANCH   4   8
ATOM      8  O   LIG    1       25.938  32.038  18.987  0.00  0.00    -0.386 OA
ATOM      9  H   LIG    1       25.443  31.711  18.217  0.00  0.00    +0.210 HD
ENDBRANCH   4   8
BRANCH   3  10
ATOM     10  O   LIG    1       27.133  32.641  16.362  0.00  0.00    -0.384 OA
ATOM     11  H   LIG    1       27.150  33.452  16.899  0.00  0.00    +0.210 HD
ENDBRANCH   3  10
BRANCH   2  12
ATOM     12  O   LIG    1       28.977  30.651  15.559  0.00  0.00    -0.345 OA
BRANCH  12  13
ATOM     13  C   LIG    1       30.313  30.473  15.115  0.00  0.00    +0.190 C 
BRANCH  13  14
ATOM     14  C   LIG    1       30.396  29.202  14.333  0.00  0.00    +0.001 C 
ATOM     15  C   LIG    1       29.787  28.066  14.706  0.00  0.00    +0.006 C 
BRANCH  15  16
ATOM     16  C   LIG    1       29.829  26.796  13.960  0.00  0.00    -0.025 A 
ATOM     17  C   LIG    1       28.908  26.571  12.949  0.00  0.00    +0.008 A 
ATOM     18  C   LIG    1       28.948  25.369  12.244  0.00  0.00    +0.001 A 
ATOM     19  C   LIG    1       29.906  24.406  12.559  0.00  0.00    +0.000 A 
ATOM     20  C   LIG    1       30.827  24.646  13.579  0.00  0.00    +0.001 A 
ATOM     21  C   LIG    1       30.787  25.849  14.285  0.00  0.00    +0.008 A 
ENDBRANCH  15  16
ENDBRANCH  13  14
ENDBRANCH  12  13
ENDBRANCH   2  12
BRANCH  22  23
ATOM     23  C   LIG    1       30.012  29.495  20.006  0.00  0.00    +0.197 C 
BRANCH  23  24
ATOM     24  O   LIG    1       31.351  29.849  20.301  0.00  0.00    -0.346 OA
BRANCH  24  25
ATOM     25  C   LIG    1       31.421  30.982  21.160  0.00  0.00    +0.281 C 
ATOM     26  C   LIG    1       31.420  30.528  22.627  0.00  0.00    +0.201 C 
ATOM     27  C   LIG    1       32.764  29.920  23.043  0.00  0.00    +0.178 C 
ATOM     28  C   LIG    1       33.911  30.841  22.624  0.00  0.00    +0.171 C 
ATOM     29  C   LIG    1       33.805  31.193  21.146  0.00  0.00    +0.197 C 
ATOM     36  O   LIG    1       32.551  31.811  20.865  0.00  0.00    -0.346 OA
BRANCH  28  30
ATOM     30  O   LIG    1       35.157  30.215  22.897  0.00  0.00    -0.387 OA
ATOM     31  H   LIG    1       35.859  30.858  22.698  0.00  0.00    +0.210 HD
ENDBRANCH  28  30
BRANCH  27  32
ATOM     32  O   LIG    1       32.928  28.649  22.415  0.00  0.00    -0.386 OA
ATOM     33  H   LIG    1       33.125  28.001  23.113  0.00  0.00    +0.210 HD
ENDBRANCH  27  32
BRANCH  26  34
ATOM     34  O   LIG    1       31.145  31.665  23.441  0.00  0.00    -0.384 OA
ATOM     35  H   LIG    1       31.108  31.378  24.369  0.00  0.00    +0.210 HD
ENDBRANCH  26  34
ENDBRANCH  24  25
ENDBRANCH  23  24
ENDBRANCH  22  23
TORSDOF 13
ENDMDL
MODEL 3
REMARK VINA RESULT:      -6.7      1.947      3.001
REMARK  Name = 9823887
REMARK                            x       y       z     vdW  Elec       q    Type
REMARK                         _______ _______ _______ _____ _____    ______ ____
ROOT
ATOM      1  O   LIG    1       31.310  29.974  19.261  0.00  0.00    -0.341 OA
ATOM      2  C   LIG    1       29.977  29.545  18.993  0.00  0.00    +0.282 C 
ATOM      3  C   LIG    1       29.028  30.024  20.092  0.00  0.00    +0.201 C 
ATOM      4  C   LIG    1       29.133  31.534  20.298  0.00  0.00    +0.179 C 
ATOM      5  C   LIG    1       30.590  31.977  20.423  0.00  0.00    +0.177 C 
ATOM     22  C   LIG    1       31.433  31.397  19.284  0.00  0.00    +0.178 C 
ENDROOT
BRANCH   5   6
ATOM      6  O   LIG    1       30.657  33.400  20.382  0.00  0.00    -0.386 OA
ATOM      7  H   LIG    1       31.321  33.687  21.033  0.00  0.00    +0.210 HD
ENDBRANCH   5   6
BRANCH   4   8
ATOM      8  O   LIG    1       28.456  31.898  21.503  0.00  0.00    -0.386 OA
ATOM      9  H   LIG    1       28.431  31.110  22.072  0.00  0.00    +0.210 HD
ENDBRANCH   4   8
BRANCH   3  10
ATOM     10  O   LIG    1       27.695  29.688  19.708  0.00  0.00    -0.384 OA
ATOM     11  H   LIG    1       27.331  29.085  20.378  0.00  0.00    +0.210 HD
ENDBRANCH   3  10
BRANCH   2  12
ATOM     12  O   LIG    1       29.928  28.120  18.958  0.00  0.00    -0.345 OA
BRANCH  12  13
ATOM     13  C   LIG    1       30.934  27.588  18.111  0.00  0.00    +0.190 C 
BRANCH  13  14
ATOM     14  C   LIG    1       30.328  27.269  16.783  0.00  0.00    +0.001 C 
ATOM     15  C   LIG    1       30.809  26.324  15.961  0.00  0.00    +0.006 C 
BRANCH  15  16
ATOM     16  C   LIG    1       30.237  25.966  14.651  0.00  0.00    -0.025 A 
ATOM     17  C   LIG    1       30.627  24.786  14.039  0.00  0.00    +0.008 A 
ATOM     18  C   LIG    1       30.085  24.447  12.800  0.00  0.00    +0.001 A 
ATOM     19  C   LIG    1       29.161  25.293  12.188  0.00  0.00    +0.000 A 
ATOM     20  C   LIG    1       28.777  26.478  12.815  0.00  0.00    +0.001 A 
ATOM     21  C   LIG    1       29.319  26.817  14.056  0.00  0.00    +0.008 A 
ENDBRANCH  15  16
ENDBRANCH  13  14
ENDBRANCH  12  13
ENDBRANCH   2  12
BRANCH  22  23
ATOM     23  C   LIG    1       32.913  31.729  19.452  0.00  0.00    +0.197 C 
BRANCH  23  24
ATOM     24  O   LIG    1       33.585  30.571  19.913  0.00  0.00    -0.346 OA
BRANCH  24  25
ATOM     25  C   LIG    1       34.415  30.853  21.035  0.00  0.00    +0.281 C 
ATOM     26  C   LIG    1       33.557  30.968  22.304  0.00  0.00    +0.201 C 
ATOM     27  C   LIG    1       33.070  29.601  22.796  0.00  0.00    +0.178 C 
ATOM     28  C   LIG    1       34.239  28.617  22.861  0.00  0.00    +0.171 C 
ATOM     29  C   LIG    1       34.986  28.583  21.534  0.00  0.00    +0.197 C 
ATOM     36  O   LIG    1       35.457  29.884  21.189  0.00  0.00    -0.346 OA
BRANCH  28  30
ATOM     30  O   LIG    1       33.761  27.321  23.194  0.00  0.00    -0.387 OA
ATOM     31  H   LIG    1       33.070  27.089  22.551  0.00  0.00    +0.210 HD
ENDBRANCH  28  30
BRANCH  27  32
ATOM     32  O   LIG    1       32.079  29.097  21.902  0.00  0.00    -0.386 OA
ATOM     33  H   LIG    1       31.209  29.348  22.257  0.00  0.00    +0.210 HD
ENDBRANCH  27  32
BRANCH  26  34
ATOM     34  O   LIG    1       34.351  31.579  23.318  0.00  0.00    -0.384 OA
ATOM     35  H   LIG    1       35.112  32.010  22.896  0.00  0.00    +0.210 HD
ENDBRANCH  26  34
ENDBRANCH  24  25
ENDBRANCH  23  24
ENDBRANCH  22  23
TORSDOF 13
ENDMDL
MODEL 4
REMARK VINA RESULT:      -6.7      1.664      4.763
REMARK  Name = 9823887
REMARK                            x       y       z     vdW  Elec       q    Type
REMARK                         _______ _______ _______ _____ _____    ______ ____
ROOT
ATOM      1  O   LIG    1       31.026  29.807  20.269  0.00  0.00    -0.341 OA
ATOM      2  C   LIG    1       31.650  28.577  20.630  0.00  0.00    +0.282 C 
ATOM      3  C   LIG    1       32.900  28.838  21.472  0.00  0.00    +0.201 C 
ATOM      4  C   LIG    1       32.584  29.718  22.680  0.00  0.00    +0.179 C 
ATOM      5  C   LIG    1       31.774  30.948  22.272  0.00  0.00    +0.177 C 
ATOM     22  C   LIG    1       30.578  30.549  21.405  0.00  0.00    +0.178 C 
ENDROOT
BRANCH   5   6
ATOM      6  O   LIG    1       31.306  31.615  23.442  0.00  0.00    -0.386 OA
ATOM      7  H   LIG    1       31.843  31.311  24.195  0.00  0.00    +0.210 HD
ENDBRANCH   5   6
BRANCH   4   8
ATOM      8  O   LIG    1       33.803  30.168  23.273  0.00  0.00    -0.386 OA
ATOM      9  H   LIG    1       34.395  29.400  23.340  0.00  0.00    +0.210 HD
ENDBRANCH   4   8
BRANCH   3  10
ATOM     10  O   LIG    1       33.407  27.581  21.920  0.00  0.00    -0.384 OA
ATOM     11  H   LIG    1       32.746  26.899  21.716  0.00  0.00    +0.210 HD
ENDBRANCH   3  10
BRANCH   2  12
ATOM     12  O   LIG    1       32.049  27.875  19.454  0.00  0.00    -0.345 OA
BRANCH  12  13
ATOM     13  C   LIG    1       31.353  26.646  19.324  0.00  0.00    +0.190 C 
BRANCH  13  14
ATOM     14  C   LIG    1       30.650  26.627  18.005  0.00  0.00    +0.001 C 
ATOM     15  C   LIG    1       31.273  26.387  16.841  0.00  0.00    +0.006 C 
BRANCH  15  16
ATOM     16  C   LIG    1       30.621  26.344  15.521  0.00  0.00    -0.025 A 
ATOM     17  C   LIG    1       30.172  27.523  14.947  0.00  0.00    +0.008 A 
ATOM     18  C   LIG    1       29.555  27.481  13.697  0.00  0.00    +0.001 A 
ATOM     19  C   LIG    1       29.393  26.263  13.038  0.00  0.00    +0.000 A 
ATOM     20  C   LIG    1       29.849  25.085  13.629  0.00  0.00    +0.001 A 
ATOM     21  C   LIG    1       30.467  25.126  14.879  0.00  0.00    +0.008 A 
ENDBRANCH  15  16
ENDBRANCH  13  14
ENDBRANCH  12  13
ENDBRANCH   2  12
BRANCH  22  23
ATOM     23  C   LIG    1       29.821  31.769  20.889  0.00  0.00    +0.197 C 
BRANCH  23  24
ATOM     24  O   LIG    1       29.390  31.505  19.566  0.00  0.00    -0.346 OA
BRANCH  24  25
ATOM     25  C   LIG    1       28.008  31.167  19.518  0.00  0.00    +0.281 C 
ATOM     26  C   LIG    1       27.265  32.134  18.584  0.00  0.00    +0.201 C 
ATOM     27  C   LIG    1       27.558  31.849  17.107  0.00  0.00    +0.178 C 
ATOM     28  C   LIG    1       27.380  30.358  16.813  0.00  0.00    +0.171 C 
ATOM     29  C   LIG    1       28.188  29.517  17.793  0.00  0.00    +0.197 C 
ATOM     36  O   LIG    1       27.803  29.802  19.136  0.00  0.00    -0.346 OA
BRANCH  28  30
ATOM     30  O   LIG    1       27.776  30.080  15.477  0.00  0.00    -0.387 OA
ATOM     31  H   LIG    1       28.074  29.154  15.446  0.00  0.00    +0.210 HD
ENDBRANCH  28  30
BRANCH  27  32
ATOM     32  O   LIG    1       28.899  32.232  16.805  0.00  0.00    -0.386 OA
ATOM     33  H   LIG    1       28.856  32.990  16.196  0.00  0.00    +0.210 HD
ENDBRANCH  27  32
BRANCH  26  34
ATOM     34  O   LIG    1       25.867  31.990  18.823  0.00  0.00    -0.384 OA
ATOM     35  H   LIG    1       25.479  32.876  18.925  0.00  0.00    +0.210 HD
ENDBRANCH  26  34
ENDBRANCH  24  25
ENDBRANCH  23  24
ENDBRANCH  22  23
TORSDOF 13
ENDMDL
MODEL 5
REMARK VINA RESULT:      -6.6      1.938      3.359
REMARK  Name = 9823887
REMARK                            x       y       z     vdW  Elec       q    Type
REMARK                         _______ _______ _______ _____ _____    ______ ____
ROOT
ATOM      1  O   LIG    1       29.202  30.388  17.447  0.00  0.00    -0.341 OA
ATOM      2  C   LIG    1       28.674  31.507  16.738  0.00  0.00    +0.282 C 
ATOM      3  C   LIG    1       27.263  31.834  17.228  0.00  0.00    +0.201 C 
ATOM      4  C   LIG    1       27.230  32.024  18.744  0.00  0.00    +0.179 C 
ATOM      5  C   LIG    1       27.947  30.881  19.461  0.00  0.00    +0.177 C 
ATOM     22  C   LIG    1       29.328  30.636  18.848  0.00  0.00    +0.178 C 
ENDROOT
BRANCH   5   6
ATOM      6  O   LIG    1       28.095  31.208  20.841  0.00  0.00    -0.386 OA
ATOM      7  H   LIG    1       27.668  30.506  21.363  0.00  0.00    +0.210 HD
ENDBRANCH   5   6
BRANCH   4   8
ATOM      8  O   LIG    1       25.873  32.044  19.191  0.00  0.00    -0.386 OA
ATOM      9  H   LIG    1       25.639  31.137  19.453  0.00  0.00    +0.210 HD
ENDBRANCH   4   8
BRANCH   3  10
ATOM     10  O   LIG    1       26.835  33.036  16.590  0.00  0.00    -0.384 OA
ATOM     11  H   LIG    1       25.918  32.910  16.293  0.00  0.00    +0.210 HD
ENDBRANCH   3  10
BRANCH   2  12
ATOM     12  O   LIG    1       28.599  31.205  15.347  0.00  0.00    -0.345 OA
BRANCH  12  13
ATOM     13  C   LIG    1       29.862  30.813  14.833  0.00  0.00    +0.190 C 
BRANCH  13  14
ATOM     14  C   LIG    1       29.706  29.515  14.109  0.00  0.00    +0.001 C 
ATOM     15  C   LIG    1       30.104  28.337  14.613  0.00  0.00    +0.006 C 
BRANCH  15  16
ATOM     16  C   LIG    1       29.959  27.034  13.943  0.00  0.00    -0.025 A 
ATOM     17  C   LIG    1       30.808  25.994  14.287  0.00  0.00    +0.008 A 
ATOM     18  C   LIG    1       30.670  24.760  13.652  0.00  0.00    +0.001 A 
ATOM     19  C   LIG    1       29.685  24.581  12.681  0.00  0.00    +0.000 A 
ATOM     20  C   LIG    1       28.837  25.637  12.345  0.00  0.00    +0.001 A 
ATOM     21  C   LIG    1       28.975  26.871  12.980  0.00  0.00    +0.008 A 
ENDBRANCH  15  16
ENDBRANCH  13  14
ENDBRANCH  12  13
ENDBRANCH   2  12
BRANCH  22  23
ATOM     23  C   LIG    1       30.016  29.425  19.470  0.00  0.00    +0.197 C 
BRANCH  23  24
ATOM     24  O   LIG    1       30.749  29.855  20.603  0.00  0.00    -0.346 OA
BRANCH  24  25
ATOM     25  C   LIG    1       31.964  29.130  20.753  0.00  0.00    +0.281 C 
ATOM     26  C   LIG    1       33.113  29.888  20.071  0.00  0.00    +0.201 C 
ATOM     27  C   LIG    1       33.551  31.116  20.875  0.00  0.00    +0.178 C 
ATOM     28  C   LIG    1       33.772  30.735  22.340  0.00  0.00    +0.171 C 
ATOM     29  C   LIG    1       32.551  30.015  22.898  0.00  0.00    +0.197 C 
ATOM     36  O   LIG    1       32.258  28.852  22.127  0.00  0.00    -0.346 OA
BRANCH  28  30
ATOM     30  O   LIG    1       34.053  31.899  23.104  0.00  0.00    -0.387 OA
ATOM     31  H   LIG    1       34.066  32.656  22.493  0.00  0.00    +0.210 HD
ENDBRANCH  28  30
BRANCH  27  32
ATOM     32  O   LIG    1       32.542  32.122  20.797  0.00  0.00    -0.386 OA
ATOM     33  H   LIG    1       32.443  32.365  19.861  0.00  0.00    +0.210 HD
ENDBRANCH  27  32
BRANCH  26  34
ATOM     34  O   LIG    1       34.215  28.993  19.939  0.00  0.00    -0.384 OA
ATOM     35  H   LIG    1       34.036  28.391  19.198  0.00  0.00    +0.210 HD
ENDBRANCH  26  34
ENDBRANCH  24  25
ENDBRANCH  23  24
ENDBRANCH  22  23
TORSDOF 13
ENDMDL
MODEL 6
REMARK VINA RESULT:      -6.6      1.992      3.235
REMARK  Name = 9823887
REMARK                            x       y       z     vdW  Elec       q    Type
REMARK                         _______ _______ _______ _____ _____    ______ ____
ROOT
ATOM      1  O   LIG    1       29.606  29.132  19.249  0.00  0.00    -0.341 OA
ATOM      2  C   LIG    1       28.740  30.129  18.712  0.00  0.00    +0.282 C 
ATOM      3  C   LIG    1       27.789  30.649  19.791  0.00  0.00    +0.201 C 
ATOM      4  C   LIG    1       28.554  31.130  21.023  0.00  0.00    +0.179 C 
ATOM      5  C   LIG    1       29.586  30.096  21.473  0.00  0.00    +0.177 C 
ATOM     22  C   LIG    1       30.443  29.635  20.291  0.00  0.00    +0.178 C 
ENDROOT
BRANCH   5   6
ATOM      6  O   LIG    1       30.427  30.671  22.469  0.00  0.00    -0.386 OA
ATOM      7  H   LIG    1       30.958  29.957  22.862  0.00  0.00    +0.210 HD
ENDBRANCH   5   6
BRANCH   4   8
ATOM      8  O   LIG    1       27.639  31.338  22.100  0.00  0.00    -0.386 OA
ATOM      9  H   LIG    1       26.752  31.103  21.778  0.00  0.00    +0.210 HD
ENDBRANCH   4   8
BRANCH   3  10
ATOM     10  O   LIG    1       27.042  31.735  19.242  0.00  0.00    -0.384 OA
ATOM     11  H   LIG    1       26.194  31.787  19.714  0.00  0.00    +0.210 HD
ENDBRANCH   3  10
BRANCH   2  12
ATOM     12  O   LIG    1       27.953  29.571  17.662  0.00  0.00    -0.345 OA
BRANCH  12  13
ATOM     13  C   LIG    1       28.466  29.924  16.388  0.00  0.00    +0.190 C 
BRANCH  13  14
ATOM     14  C   LIG    1       28.475  28.708  15.518  0.00  0.00    +0.001 C 
ATOM     15  C   LIG    1       29.593  28.191  14.986  0.00  0.00    +0.006 C 
BRANCH  15  16
ATOM     16  C   LIG    1       29.652  26.988  14.137  0.00  0.00    -0.025 A 
ATOM     17  C   LIG    1       28.742  26.842  13.102  0.00  0.00    +0.008 A 
ATOM     18  C   LIG    1       28.799  25.704  12.299  0.00  0.00    +0.001 A 
ATOM     19  C   LIG    1       29.762  24.725  12.541  0.00  0.00    +0.000 A 
ATOM     20  C   LIG    1       30.671  24.886  13.587  0.00  0.00    +0.001 A 
ATOM     21  C   LIG    1       30.615  26.025  14.390  0.00  0.00    +0.008 A 
ENDBRANCH  15  16
ENDBRANCH  13  14
ENDBRANCH  12  13
ENDBRANCH   2  12
BRANCH  22  23
ATOM     23  C   LIG    1       31.402  28.518  20.691  0.00  0.00    +0.197 C 
BRANCH  23  24
ATOM     24  O   LIG    1       32.348  29.042  21.605  0.00  0.00    -0.346 OA
BRANCH  24  25
ATOM     25  C   LIG    1       33.635  29.179  21.012  0.00  0.00    +0.281 C 
ATOM     26  C   LIG    1       34.020  30.664  20.935  0.00  0.00    +0.201 C 
ATOM     27  C   LIG    1       34.405  31.232  22.305  0.00  0.00    +0.178 C 
ATOM     28  C   LIG    1       35.414  30.310  22.993  0.00  0.00    +0.171 C 
ATOM     29  C   LIG    1       34.898  28.877  23.023  0.00  0.00    +0.197 C 
ATOM     36  O   LIG    1       34.628  28.412  21.703  0.00  0.00    -0.346 OA
BRANCH  28  30
ATOM     30  O   LIG    1       35.670  30.773  24.311  0.00  0.00    -0.387 OA
ATOM     31  H   LIG    1       36.620  30.973  24.373  0.00  0.00    +0.210 HD
ENDBRANCH  28  30
BRANCH  27  32
ATOM     32  O   LIG    1       33.240  31.345  23.120  0.00  0.00    -0.386 OA
ATOM     33  H   LIG    1       33.120  32.288  23.330  0.00  0.00    +0.210 HD
ENDBRANCH  27  32
BRANCH  26  34
ATOM     34  O   LIG    1       35.128  30.786  20.045  0.00  0.00    -0.384 OA
ATOM     35  H   LIG    1       35.947  30.703  20.560  0.00  0.00    +0.210 HD
ENDBRANCH  26  34
ENDBRANCH  24  25
ENDBRANCH  23  24
ENDBRANCH  22  23
TORSDOF 13
ENDMDL
MODEL 7
REMARK VINA RESULT:      -6.5      1.343      2.182
REMARK  Name = 9823887
REMARK                            x       y       z     vdW  Elec       q    Type
REMARK                         _______ _______ _______ _____ _____    ______ ____
ROOT
ATOM      1  O   LIG    1       29.588  30.130  18.025  0.00  0.00    -0.341 OA
ATOM      2  C   LIG    1       29.214  31.121  17.071  0.00  0.00    +0.282 C 
ATOM      3  C   LIG    1       27.746  31.510  17.250  0.00  0.00    +0.201 C 
ATOM      4  C   LIG    1       27.453  31.933  18.688  0.00  0.00    +0.179 C 
ATOM      5  C   LIG    1       28.011  30.921  19.688  0.00  0.00    +0.177 C 
ATOM     22  C   LIG    1       29.473  30.594  19.371  0.00  0.00    +0.178 C 
ENDROOT
BRANCH   5   6
ATOM      6  O   LIG    1       27.923  31.460  21.004  0.00  0.00    -0.386 OA
ATOM      7  H   LIG    1       28.071  30.734  21.636  0.00  0.00    +0.210 HD
ENDBRANCH   5   6
BRANCH   4   8
ATOM      8  O   LIG    1       26.040  32.013  18.883  0.00  0.00    -0.386 OA
ATOM      9  H   LIG    1       25.770  32.926  18.684  0.00  0.00    +0.210 HD
ENDBRANCH   4   8
BRANCH   3  10
ATOM     10  O   LIG    1       27.461  32.596  16.368  0.00  0.00    -0.384 OA
ATOM     11  H   LIG    1       27.984  32.472  15.558  0.00  0.00    +0.210 HD
ENDBRANCH   3  10
BRANCH   2  12
ATOM     12  O   LIG    1       29.376  30.606  15.751  0.00  0.00    -0.345 OA
BRANCH  12  13
ATOM     13  C   LIG    1       28.159  30.076  15.250  0.00  0.00    +0.190 C 
BRANCH  13  14
ATOM     14  C   LIG    1       28.383  28.654  14.848  0.00  0.00    +0.001 C 
ATOM     15  C   LIG    1       29.289  28.281  13.931  0.00  0.00    +0.006 C 
BRANCH  15  16
ATOM     16  C   LIG    1       29.553  26.893  13.514  0.00  0.00    -0.025 A 
ATOM     17  C   LIG    1       28.790  26.330  12.503  0.00  0.00    +0.008 A 
ATOM     18  C   LIG    1       29.041  25.017  12.109  0.00  0.00    +0.001 A 
ATOM     19  C   LIG    1       30.051  24.282  12.730  0.00  0.00    +0.000 A 
ATOM     20  C   LIG    1       30.811  24.861  13.745  0.00  0.00    +0.001 A 
ATOM     21  C   LIG    1       30.560  26.176  14.140  0.00  0.00    +0.008 A 
ENDBRANCH  15  16
ENDBRANCH  13  14
ENDBRANCH  12  13
ENDBRANCH   2  12
BRANCH  22  23
ATOM     23  C   LIG    1       30.017  29.498  20.284  0.00  0.00    +0.197 C 
BRANCH  23  24
ATOM     24  O   LIG    1       30.100  28.294  19.543  0.00  0.00    -0.346 OA
BRANCH  24  25
ATOM     25  C   LIG    1       31.148  27.455  20.015  0.00  0.00    +0.281 C 
ATOM     26  C   LIG    1       31.467  26.378  18.967  0.00  0.00    +0.201 C 
ATOM     27  C   LIG    1       32.235  26.948  17.770  0.00  0.00    +0.178 C 
ATOM     28  C   LIG    1       33.418  27.787  18.254  0.00  0.00    +0.171 C 
ATOM     29  C   LIG    1       32.959  28.829  19.266  0.00  0.00    +0.197 C 
ATOM     36  O   LIG    1       32.315  28.203  20.374  0.00  0.00    -0.346 OA
BRANCH  28  30
ATOM     30  O   LIG    1       34.049  28.416  17.147  0.00  0.00    -0.387 OA
ATOM     31  H   LIG    1       34.775  27.838  16.855  0.00  0.00    +0.210 HD
ENDBRANCH  28  30
BRANCH  27  32
ATOM     32  O   LIG    1       31.364  27.767  16.990  0.00  0.00    -0.386 OA
ATOM     33  H   LIG    1       31.905  28.205  16.311  0.00  0.00    +0.210 HD
ENDBRANCH  27  32
BRANCH  26  34
ATOM     34  O   LIG    1       32.255  25.370  19.596  0.00  0.00    -0.384 OA
ATOM     35  H   LIG    1       33.162  25.429  19.253  0.00  0.00    +0.210 HD
ENDBRANCH  26  34
ENDBRANCH  24  25
ENDBRANCH  23  24
ENDBRANCH  22  23
TORSDOF 13
ENDMDL
MODEL 8
REMARK VINA RESULT:      -6.5      2.548      3.653
REMARK  Name = 9823887
REMARK                            x       y       z     vdW  Elec       q    Type
REMARK                         _______ _______ _______ _____ _____    ______ ____
ROOT
ATOM      1  O   LIG    1       31.726  28.696  21.186  0.00  0.00    -0.341 OA
ATOM      2  C   LIG    1       30.805  28.931  20.124  0.00  0.00    +0.282 C 
ATOM      3  C   LIG    1       29.449  29.371  20.678  0.00  0.00    +0.201 C 
ATOM      4  C   LIG    1       29.593  30.572  21.613  0.00  0.00    +0.179 C 
ATOM      5  C   LIG    1       30.702  30.345  22.639  0.00  0.00    +0.177 C 
ATOM     22  C   LIG    1       31.987  29.871  21.956  0.00  0.00    +0.178 C 
ENDROOT
BRANCH   5   6
ATOM      6  O   LIG    1       30.958  31.562  23.335  0.00  0.00    -0.386 OA
ATOM      7  H   LIG    1       30.928  31.374  24.289  0.00  0.00    +0.210 HD
ENDBRANCH   5   6
BRANCH   4   8
ATOM      8  O   LIG    1       28.369  30.772  22.322  0.00  0.00    -0.386 OA
ATOM      9  H   LIG    1       28.107  29.914  22.697  0.00  0.00    +0.210 HD
ENDBRANCH   4   8
BRANCH   3  10
ATOM     10  O   LIG    1       28.610  29.724  19.579  0.00  0.00    -0.384 OA
ATOM     11  H   LIG    1       27.993  30.412  19.879  0.00  0.00    +0.210 HD
ENDBRANCH   3  10
BRANCH   2  12
ATOM     12  O   LIG    1       30.608  27.729  19.382  0.00  0.00    -0.345 OA
BRANCH  12  13
ATOM     13  C   LIG    1       31.756  27.402  18.615  0.00  0.00    +0.190 C 
BRANCH  13  14
ATOM     14  C   LIG    1       31.359  27.295  17.177  0.00  0.00    +0.001 C 
ATOM     15  C   LIG    1       30.668  26.258  16.679  0.00  0.00    +0.006 C 
BRANCH  15  16
ATOM     16  C   LIG    1       30.243  26.117  15.275  0.00  0.00    -0.025 A 
ATOM     17  C   LIG    1       30.546  24.952  14.588  0.00  0.00    +0.008 A 
ATOM     18  C   LIG    1       30.144  24.819  13.259  0.00  0.00    +0.001 A 
ATOM     19  C   LIG    1       29.445  25.852  12.634  0.00  0.00    +0.000 A 
ATOM     20  C   LIG    1       29.148  27.019  13.338  0.00  0.00    +0.001 A 
ATOM     21  C   LIG    1       29.550  27.152  14.668  0.00  0.00    +0.008 A 
ENDBRANCH  15  16
ENDBRANCH  13  14
ENDBRANCH  12  13
ENDBRANCH   2  12
BRANCH  22  23
ATOM     23  C   LIG    1       33.073  29.526  22.970  0.00  0.00    +0.197 C 
BRANCH  23  24
ATOM     24  O   LIG    1       33.391  28.153  22.841  0.00  0.00    -0.346 OA
BRANCH  24  25
ATOM     25  C   LIG    1       34.342  27.736  23.814  0.00  0.00    +0.281 C 
ATOM     26  C   LIG    1       34.366  26.202  23.899  0.00  0.00    +0.201 C 
ATOM     27  C   LIG    1       35.070  25.569  22.695  0.00  0.00    +0.178 C 
ATOM     28  C   LIG    1       36.419  26.251  22.454  0.00  0.00    +0.171 C 
ATOM     29  C   LIG    1       36.248  27.762  22.366  0.00  0.00    +0.197 C 
ATOM     36  O   LIG    1       35.645  28.270  23.554  0.00  0.00    -0.346 OA
BRANCH  28  30
ATOM     30  O   LIG    1       37.008  25.748  21.264  0.00  0.00    -0.387 OA
ATOM     31  H   LIG    1       36.288  25.537  20.645  0.00  0.00    +0.210 HD
ENDBRANCH  28  30
BRANCH  27  32
ATOM     32  O   LIG    1       34.255  25.716  21.533  0.00  0.00    -0.386 OA
ATOM     33  H   LIG    1       34.751  25.353  20.779  0.00  0.00    +0.210 HD
ENDBRANCH  27  32
BRANCH  26  34
ATOM     34  O   LIG    1       35.054  25.838  25.094  0.00  0.00    -0.384 OA
ATOM     35  H   LIG    1       34.767  26.431  25.807  0.00  0.00    +0.210 HD
ENDBRANCH  26  34
ENDBRANCH  24  25
ENDBRANCH  23  24
ENDBRANCH  22  23
TORSDOF 13
ENDMDL
MODEL 9
REMARK VINA RESULT:      -6.4      2.303      5.291
REMARK  Name = 9823887
REMARK                            x       y       z     vdW  Elec       q    Type
REMARK                         _______ _______ _______ _____ _____    ______ ____
ROOT
ATOM      1  O   LIG    1       29.744  29.943  19.142  0.00  0.00    -0.341 OA
ATOM      2  C   LIG    1       30.654  29.156  19.908  0.00  0.00    +0.282 C 
ATOM      3  C   LIG    1       31.238  29.981  21.056  0.00  0.00    +0.201 C 
ATOM      4  C   LIG    1       30.135  30.609  21.907  0.00  0.00    +0.179 C 
ATOM      5  C   LIG    1       29.093  31.308  21.036  0.00  0.00    +0.177 C 
ATOM     22  C   LIG    1       28.623  30.387  19.907  0.00  0.00    +0.178 C 
ENDROOT
BRANCH   5   6
ATOM      6  O   LIG    1       27.975  31.676  21.840  0.00  0.00    -0.386 OA
ATOM      7  H   LIG    1       28.303  31.880  22.733  0.00  0.00    +0.210 HD
ENDBRANCH   5   6
BRANCH   4   8
ATOM      8  O   LIG    1       30.707  31.585  22.780  0.00  0.00    -0.386 OA
ATOM      9  H   LIG    1       30.032  31.814  23.442  0.00  0.00    +0.210 HD
ENDBRANCH   4   8
BRANCH   3  10
ATOM     10  O   LIG    1       32.030  29.115  21.869  0.00  0.00    -0.384 OA
ATOM     11  H   LIG    1       32.071  29.495  22.763  0.00  0.00    +0.210 HD
ENDBRANCH   3  10
BRANCH   2  12
ATOM     12  O   LIG    1       31.733  28.725  19.082  0.00  0.00    -0.345 OA
BRANCH  12  13
ATOM     13  C   LIG    1       31.571  27.372  18.685  0.00  0.00    +0.190 C 
BRANCH  13  14
ATOM     14  C   LIG    1       31.023  27.340  17.295  0.00  0.00    +0.001 C 
ATOM     15  C   LIG    1       30.921  26.216  16.568  0.00  0.00    +0.006 C 
BRANCH  15  16
ATOM     16  C   LIG    1       30.375  26.134  15.203  0.00  0.00    -0.025 A 
ATOM     17  C   LIG    1       30.585  24.986  14.455  0.00  0.00    +0.008 A 
ATOM     18  C   LIG    1       30.067  24.910  13.163  0.00  0.00    +0.001 A 
ATOM     19  C   LIG    1       29.347  25.981  12.634  0.00  0.00    +0.000 A 
ATOM     20  C   LIG    1       29.144  27.130  13.398  0.00  0.00    +0.001 A 
ATOM     21  C   LIG    1       29.662  27.207  14.691  0.00  0.00    +0.008 A 
ENDBRANCH  15  16
ENDBRANCH  13  14
ENDBRANCH  12  13
ENDBRANCH   2  12
BRANCH  22  23
ATOM     23  C   LIG    1       27.669  31.102  18.954  0.00  0.00    +0.197 C 
BRANCH  23  24
ATOM     24  O   LIG    1       27.889  32.496  19.059  0.00  0.00    -0.346 OA
BRANCH  24  25
ATOM     25  C   LIG    1       28.145  33.087  17.789  0.00  0.00    +0.281 C 
ATOM     26  C   LIG    1       27.980  34.612  17.879  0.00  0.00    +0.201 C 
ATOM     27  C   LIG    1       29.149  35.277  18.613  0.00  0.00    +0.178 C 
ATOM     28  C   LIG    1       30.479  34.776  18.046  0.00  0.00    +0.171 C 
ATOM     29  C   LIG    1       30.520  33.254  18.036  0.00  0.00    +0.197 C 
ATOM     36  O   LIG    1       29.433  32.726  17.279  0.00  0.00    -0.346 OA
BRANCH  28  30
ATOM     30  O   LIG    1       31.557  35.297  18.811  0.00  0.00    -0.387 OA
ATOM     31  H   LIG    1       32.356  35.257  18.259  0.00  0.00    +0.210 HD
ENDBRANCH  28  30
BRANCH  27  32
ATOM     32  O   LIG    1       29.082  34.962  20.003  0.00  0.00    -0.386 OA
ATOM     33  H   LIG    1       28.166  34.701  20.200  0.00  0.00    +0.210 HD
ENDBRANCH  27  32
BRANCH  26  34
ATOM     34  O   LIG    1       27.902  35.126  16.552  0.00  0.00    -0.384 OA
ATOM     35  H   LIG    1       27.026  34.910  16.189  0.00  0.00    +0.210 HD
ENDBRANCH  26  34
ENDBRANCH  24  25
ENDBRANCH  23  24
ENDBRANCH  22  23
TORSDOF 13
ENDMDL
