REMARK VINA RESULT:      -5.6      0.000      0.000
REMARK  5 active torsions:
REMARK  status: ('A' for Active; 'I' for Inactive)
REMARK    1  A    between atoms: C_1  and  O_7 
REMARK    2  A    between atoms: C_2  and  O_13 
REMARK    3  A    between atoms: C_4  and  C_9 
REMARK    4  A    between atoms: C_6  and  O_15 
REMARK    5  A    between atoms: C_9  and  O_11 
ROOT
ATOM      1  C   UNL     1     185.054 184.091 175.220  0.00  0.00     0.201 A 
ATOM      2  C   UNL     1     185.054 185.485 175.174  0.00  0.00     0.163 A 
ATOM      3  C   UNL     1     186.022 186.158 174.431  0.00  0.00     0.064 A 
ATOM      4  C   UNL     1     186.993 185.438 173.734  0.00  0.00     0.066 A 
ATOM      5  C   UNL     1     186.993 184.045 173.780  0.00  0.00     0.064 A 
ATOM      6  C   UNL     1     186.025 183.370 174.523  0.00  0.00     0.163 A 
ENDROOT
BRANCH   4   7
ATOM      7  C   UNL     1     188.003 186.141 172.958  0.00  0.00     0.337 C 
ATOM      8  O   UNL     1     188.349 185.853 171.807  0.00  0.00    -0.245 OA
BRANCH   7   9
ATOM      9  O   UNL     1     188.552 187.183 173.640  0.00  0.00    -0.477 OA
ATOM     10  H   UNL     1     189.476 187.357 173.359  0.00  0.00     0.295 HD
ENDBRANCH   7   9
ENDBRANCH   4   7
BRANCH   2  11
ATOM     11  O   UNL     1     184.110 186.200 175.849  0.00  0.00    -0.503 OA
ATOM     12  H   UNL     1     184.059 187.087 175.453  0.00  0.00     0.292 HD
ENDBRANCH   2  11
BRANCH   6  13
ATOM     13  O   UNL     1     186.036 182.009 174.562  0.00  0.00    -0.503 OA
ATOM     14  H   UNL     1     185.813 181.665 173.679  0.00  0.00     0.292 HD
ENDBRANCH   6  13
BRANCH   1  15
ATOM     15  O   UNL     1     184.107 183.432 175.946  0.00  0.00    -0.501 OA
ATOM     16  H   UNL     1     183.235 183.796 175.715  0.00  0.00     0.292 HD
ENDBRANCH   1  15
TORSDOF 5
