REMARK VINA RESULT:      -5.3      1.994      4.469
REMARK  5 active torsions:
REMARK  status: ('A' for Active; 'I' for Inactive)
REMARK    1  A    between atoms: C_1  and  O_7 
REMARK    2  A    between atoms: C_2  and  O_13 
REMARK    3  A    between atoms: C_4  and  C_9 
REMARK    4  A    between atoms: C_6  and  O_15 
REMARK    5  A    between atoms: C_9  and  O_11 
ROOT
ATOM      1  C   UNL     1     186.110 186.343 174.344  0.00  0.00     0.201 A 
ATOM      2  C   UNL     1     185.686 185.902 175.598  0.00  0.00     0.163 A 
ATOM      3  C   UNL     1     184.639 184.987 175.699  0.00  0.00     0.064 A 
ATOM      4  C   UNL     1     184.013 184.512 174.545  0.00  0.00     0.066 A 
ATOM      5  C   UNL     1     184.437 184.953 173.292  0.00  0.00     0.064 A 
ATOM      6  C   UNL     1     185.484 185.868 173.191  0.00  0.00     0.163 A 
ENDROOT
BRANCH   4   7
ATOM      7  C   UNL     1     182.922 183.557 174.650  0.00  0.00     0.337 C 
ATOM      8  O   UNL     1     182.975 182.473 175.239  0.00  0.00    -0.245 OA
BRANCH   7   9
ATOM      9  O   UNL     1     181.795 183.984 174.017  0.00  0.00    -0.477 OA
ATOM     10  H   UNL     1     180.989 183.809 174.549  0.00  0.00     0.295 HD
ENDBRANCH   7   9
ENDBRANCH   4   7
BRANCH   2  11
ATOM     11  O   UNL     1     186.290 186.356 176.732  0.00  0.00    -0.503 OA
ATOM     12  H   UNL     1     186.776 185.617 177.137  0.00  0.00     0.292 HD
ENDBRANCH   2  11
BRANCH   6  13
ATOM     13  O   UNL     1     185.888 186.292 171.961  0.00  0.00    -0.503 OA
ATOM     14  H   UNL     1     186.709 186.806 172.056  0.00  0.00     0.292 HD
ENDBRANCH   6  13
BRANCH   1  15
ATOM     15  O   UNL     1     187.134 187.237 174.245  0.00  0.00    -0.501 OA
ATOM     16  H   UNL     1     187.599 187.080 173.405  0.00  0.00     0.292 HD
ENDBRANCH   1  15
TORSDOF 5
