MODEL 1
REMARK VINA RESULT:    -9.831      0.000      0.000
REMARK INTER + INTRA:         -12.490
REMARK INTER:                 -12.130
REMARK INTRA:                  -0.359
REMARK UNBOUND:                -0.359
REMARK  Name = 5281672
REMARK  7 active torsions:
REMARK  status: ('A' for Active; 'I' for Inactive)
REMARK    1  A    between atoms: O_2  and  C_13
REMARK    2  A    between atoms: O_3  and  C_15
REMARK    3  A    between atoms: O_5  and  C_19
REMARK    4  A    between atoms: O_6  and  C_21
REMARK    5  A    between atoms: O_7  and  C_22
REMARK    6  A    between atoms: O_8  and  C_23
REMARK    7  A    between atoms: C_10  and  C_12
REMARK                            x       y       z     vdW  Elec       q    Type
REMARK                         _______ _______ _______ _____ _____    ______ ____
ROOT
ATOM      1  O   UNL     1      83.630  86.593 101.172  0.00  0.00    +0.000 OA
ATOM      2  O   UNL     1      80.328  87.631  99.020  0.00  0.00    +0.000 OA
ATOM      3  C   UNL     1      82.355  88.307 100.019  0.00  0.00    +0.000 A 
ATOM      4  C   UNL     1      82.667  85.657 100.827  0.00  0.00    +0.000 A 
ATOM      5  C   UNL     1      83.459  87.889 100.759  0.00  0.00    +0.000 A 
ATOM      6  C   UNL     1      81.552  85.932 100.126  0.00  0.00    +0.000 A 
ATOM      7  C   UNL     1      81.322  87.322  99.663  0.00  0.00    +0.000 A 
ATOM      8  C   UNL     1      82.233  89.642  99.627  0.00  0.00    +0.000 A 
ATOM      9  C   UNL     1      84.450  88.805 101.111  0.00  0.00    +0.000 A 
ATOM     10  C   UNL     1      84.332  90.139 100.722  0.00  0.00    +0.000 A 
ATOM     11  C   UNL     1      83.225  90.557  99.981  0.00  0.00    +0.000 A 
ENDROOT
BRANCH   4  12
ATOM     12  C   UNL     1      82.973  84.306 101.333  0.00  0.00    +0.000 A 
ATOM     13  C   UNL     1      83.792  83.454 100.593  0.00  0.00    +0.000 A 
ATOM     14  C   UNL     1      82.443  83.880 102.551  0.00  0.00    +0.000 A 
ATOM     15  C   UNL     1      82.734  82.603 103.029  0.00  0.00    +0.000 A 
ATOM     16  C   UNL     1      84.083  82.176 101.072  0.00  0.00    +0.000 A 
ATOM     17  C   UNL     1      83.554  81.751 102.290  0.00  0.00    +0.000 A 
BRANCH  15  18
ATOM     18  O   UNL     1      82.211  82.199 104.221  0.00  0.00    +0.000 OA
ATOM     19  H   UNL     1      82.546  82.788 104.918  0.00  0.00    +0.000 HD
ENDBRANCH  15  18
BRANCH  16  20
ATOM     20  O   UNL     1      84.886  81.354 100.339  0.00  0.00    +0.000 OA
ATOM     21  H   UNL     1      85.165  80.600 100.883  0.00  0.00    +0.000 HD
ENDBRANCH  16  20
BRANCH  17  22
ATOM     22  O   UNL     1      83.839  80.502 102.758  0.00  0.00    +0.000 OA
ATOM     23  H   UNL     1      83.061  80.137 103.210  0.00  0.00    +0.000 HD
ENDBRANCH  17  22
ENDBRANCH   4  12
BRANCH   6  24
ATOM     24  O   UNL     1      80.598  84.983  99.829  0.00  0.00    +0.000 OA
ATOM     25  H   UNL     1      80.773  84.601  98.954  0.00  0.00    +0.000 HD
ENDBRANCH   6  24
BRANCH   8  26
ATOM     26  O   UNL     1      81.173  90.103  98.904  0.00  0.00    +0.000 OA
ATOM     27  H   UNL     1      80.973  89.500  98.173  0.00  0.00    +0.000 HD
ENDBRANCH   8  26
BRANCH  10  28
ATOM     28  O   UNL     1      85.299  91.035 101.064  0.00  0.00    +0.000 OA
ATOM     29  H   UNL     1      86.155  90.718 100.729  0.00  0.00    +0.000 HD
ENDBRANCH  10  28
TORSDOF 7
ENDMDL
MODEL 2
REMARK VINA RESULT:    -8.935     12.152     13.508
REMARK INTER + INTRA:         -11.383
REMARK INTER:                 -11.013
REMARK INTRA:                  -0.370
REMARK UNBOUND:                -0.359
REMARK  Name = 5281672
REMARK  7 active torsions:
REMARK  status: ('A' for Active; 'I' for Inactive)
REMARK    1  A    between atoms: O_2  and  C_13
REMARK    2  A    between atoms: O_3  and  C_15
REMARK    3  A    between atoms: O_5  and  C_19
REMARK    4  A    between atoms: O_6  and  C_21
REMARK    5  A    between atoms: O_7  and  C_22
REMARK    6  A    between atoms: O_8  and  C_23
REMARK    7  A    between atoms: C_10  and  C_12
REMARK                            x       y       z     vdW  Elec       q    Type
REMARK                         _______ _______ _______ _____ _____    ______ ____
ROOT
ATOM      1  O   UNL     1      77.897  94.210 110.143  0.00  0.00    +0.000 OA
ATOM      2  O   UNL     1      81.320  92.013 110.399  0.00  0.00    +0.000 OA
ATOM      3  C   UNL     1      80.323  94.138 110.171  0.00  0.00    +0.000 A 
ATOM      4  C   UNL     1      77.863  92.833 110.301  0.00  0.00    +0.000 A 
ATOM      5  C   UNL     1      79.118  94.831 110.087  0.00  0.00    +0.000 A 
ATOM      6  C   UNL     1      78.952  92.048 110.386  0.00  0.00    +0.000 A 
ATOM      7  C   UNL     1      80.295  92.675 110.325  0.00  0.00    +0.000 A 
ATOM      8  C   UNL     1      81.538  94.825 110.108  0.00  0.00    +0.000 A 
ATOM      9  C   UNL     1      79.120  96.218 109.938  0.00  0.00    +0.000 A 
ATOM     10  C   UNL     1      80.330  96.908 109.874  0.00  0.00    +0.000 A 
ATOM     11  C   UNL     1      81.537  96.212 109.959  0.00  0.00    +0.000 A 
ENDROOT
BRANCH   4  12
ATOM     12  C   UNL     1      76.492  92.294 110.345  0.00  0.00    +0.000 A 
ATOM     13  C   UNL     1      75.846  91.934 109.163  0.00  0.00    +0.000 A 
ATOM     14  C   UNL     1      75.840  92.143 111.569  0.00  0.00    +0.000 A 
ATOM     15  C   UNL     1      74.543  91.632 111.610  0.00  0.00    +0.000 A 
ATOM     16  C   UNL     1      74.549  91.422 109.204  0.00  0.00    +0.000 A 
ATOM     17  C   UNL     1      73.897  91.271 110.428  0.00  0.00    +0.000 A 
BRANCH  15  18
ATOM     18  O   UNL     1      73.917  91.489 112.813  0.00  0.00    +0.000 OA
ATOM     19  H   UNL     1      72.987  91.260 112.648  0.00  0.00    +0.000 HD
ENDBRANCH  15  18
BRANCH  16  20
ATOM     20  O   UNL     1      73.930  91.075 108.041  0.00  0.00    +0.000 OA
ATOM     21  H   UNL     1      73.020  90.790 108.228  0.00  0.00    +0.000 HD
ENDBRANCH  16  20
BRANCH  17  22
ATOM     22  O   UNL     1      72.629  90.771 110.468  0.00  0.00    +0.000 OA
ATOM     23  H   UNL     1      72.574  89.977 109.913  0.00  0.00    +0.000 HD
ENDBRANCH  17  22
ENDBRANCH   4  12
BRANCH   6  24
ATOM     24  O   UNL     1      78.883  90.677 110.510  0.00  0.00    +0.000 OA
ATOM     25  H   UNL     1      78.670  90.277 109.652  0.00  0.00    +0.000 HD
ENDBRANCH   6  24
BRANCH   8  26
ATOM     26  O   UNL     1      82.744  94.195 110.184  0.00  0.00    +0.000 OA
ATOM     27  H   UNL     1      83.078  93.991 109.298  0.00  0.00    +0.000 HD
ENDBRANCH   8  26
BRANCH  10  28
ATOM     28  O   UNL     1      80.335  98.262 109.730  0.00  0.00    +0.000 OA
ATOM     29  H   UNL     1      80.512  98.670 110.594  0.00  0.00    +0.000 HD
ENDBRANCH  10  28
TORSDOF 7
ENDMDL
MODEL 3
REMARK VINA RESULT:    -8.926     12.133     13.577
REMARK INTER + INTRA:         -11.373
REMARK INTER:                 -11.004
REMARK INTRA:                  -0.369
REMARK UNBOUND:                -0.359
REMARK  Name = 5281672
REMARK  7 active torsions:
REMARK  status: ('A' for Active; 'I' for Inactive)
REMARK    1  A    between atoms: O_2  and  C_13
REMARK    2  A    between atoms: O_3  and  C_15
REMARK    3  A    between atoms: O_5  and  C_19
REMARK    4  A    between atoms: O_6  and  C_21
REMARK    5  A    between atoms: O_7  and  C_22
REMARK    6  A    between atoms: O_8  and  C_23
REMARK    7  A    between atoms: C_10  and  C_12
REMARK                            x       y       z     vdW  Elec       q    Type
REMARK                         _______ _______ _______ _____ _____    ______ ____
ROOT
ATOM      1  O   UNL     1      77.903  94.215 110.123  0.00  0.00    +0.000 OA
ATOM      2  O   UNL     1      81.349  92.050 110.338  0.00  0.00    +0.000 OA
ATOM      3  C   UNL     1      80.330  94.166 110.120  0.00  0.00    +0.000 A 
ATOM      4  C   UNL     1      77.884  92.838 110.285  0.00  0.00    +0.000 A 
ATOM      5  C   UNL     1      79.118  94.848 110.051  0.00  0.00    +0.000 A 
ATOM      6  C   UNL     1      78.981  92.063 110.356  0.00  0.00    +0.000 A 
ATOM      7  C   UNL     1      80.317  92.703 110.277  0.00  0.00    +0.000 A 
ATOM      8  C   UNL     1      81.538  94.864 110.039  0.00  0.00    +0.000 A 
ATOM      9  C   UNL     1      79.105  96.234 109.899  0.00  0.00    +0.000 A 
ATOM     10  C   UNL     1      80.308  96.935 109.818  0.00  0.00    +0.000 A 
ATOM     11  C   UNL     1      81.522  96.251 109.887  0.00  0.00    +0.000 A 
ENDROOT
BRANCH   4  12
ATOM     12  C   UNL     1      76.519  92.287 110.348  0.00  0.00    +0.000 A 
ATOM     13  C   UNL     1      75.883  92.137 111.580  0.00  0.00    +0.000 A 
ATOM     14  C   UNL     1      75.861  91.915 109.176  0.00  0.00    +0.000 A 
ATOM     15  C   UNL     1      74.569  91.394 109.236  0.00  0.00    +0.000 A 
ATOM     16  C   UNL     1      74.591  91.617 111.641  0.00  0.00    +0.000 A 
ATOM     17  C   UNL     1      73.933  91.245 110.468  0.00  0.00    +0.000 A 
BRANCH  15  18
ATOM     18  O   UNL     1      73.936  91.035 108.083  0.00  0.00    +0.000 OA
ATOM     19  H   UNL     1      72.978  91.024 108.250  0.00  0.00    +0.000 HD
ENDBRANCH  15  18
BRANCH  16  20
ATOM     20  O   UNL     1      73.982  91.476 112.852  0.00  0.00    +0.000 OA
ATOM     21  H   UNL     1      74.607  91.093 113.489  0.00  0.00    +0.000 HD
ENDBRANCH  16  20
BRANCH  17  22
ATOM     22  O   UNL     1      72.669  90.737 110.527  0.00  0.00    +0.000 OA
ATOM     23  H   UNL     1      72.061  91.412 110.870  0.00  0.00    +0.000 HD
ENDBRANCH  17  22
ENDBRANCH   4  12
BRANCH   6  24
ATOM     24  O   UNL     1      78.927  90.692 110.484  0.00  0.00    +0.000 OA
ATOM     25  H   UNL     1      78.002  90.398 110.493  0.00  0.00    +0.000 HD
ENDBRANCH   6  24
BRANCH   8  26
ATOM     26  O   UNL     1      82.750  94.245 110.100  0.00  0.00    +0.000 OA
ATOM     27  H   UNL     1      82.724  93.399 109.631  0.00  0.00    +0.000 HD
ENDBRANCH   8  26
BRANCH  10  28
ATOM     28  O   UNL     1      80.297  98.289 109.671  0.00  0.00    +0.000 OA
ATOM     29  H   UNL     1      80.056  98.696 110.521  0.00  0.00    +0.000 HD
ENDBRANCH  10  28
TORSDOF 7
ENDMDL
MODEL 4
REMARK VINA RESULT:    -8.757     12.835     14.874
REMARK INTER + INTRA:         -11.164
REMARK INTER:                 -11.023
REMARK INTRA:                  -0.140
REMARK UNBOUND:                -0.359
REMARK  Name = 5281672
REMARK  7 active torsions:
REMARK  status: ('A' for Active; 'I' for Inactive)
REMARK    1  A    between atoms: O_2  and  C_13
REMARK    2  A    between atoms: O_3  and  C_15
REMARK    3  A    between atoms: O_5  and  C_19
REMARK    4  A    between atoms: O_6  and  C_21
REMARK    5  A    between atoms: O_7  and  C_22
REMARK    6  A    between atoms: O_8  and  C_23
REMARK    7  A    between atoms: C_10  and  C_12
REMARK                            x       y       z     vdW  Elec       q    Type
REMARK                         _______ _______ _______ _____ _____    ______ ____
ROOT
ATOM      1  O   UNL     1      77.105  93.990 111.465  0.00  0.00    +0.000 OA
ATOM      2  O   UNL     1      76.085  90.938 108.965  0.00  0.00    +0.000 OA
ATOM      3  C   UNL     1      75.560  92.212 110.879  0.00  0.00    +0.000 A 
ATOM      4  C   UNL     1      77.881  93.668 110.362  0.00  0.00    +0.000 A 
ATOM      5  C   UNL     1      75.965  93.264 111.697  0.00  0.00    +0.000 A 
ATOM      6  C   UNL     1      77.607  92.671 109.502  0.00  0.00    +0.000 A 
ATOM      7  C   UNL     1      76.386  91.855 109.715  0.00  0.00    +0.000 A 
ATOM      8  C   UNL     1      74.389  91.507 111.165  0.00  0.00    +0.000 A 
ATOM      9  C   UNL     1      75.200  93.619 112.807  0.00  0.00    +0.000 A 
ATOM     10  C   UNL     1      74.029  92.917 113.097  0.00  0.00    +0.000 A 
ATOM     11  C   UNL     1      73.625  91.863 112.277  0.00  0.00    +0.000 A 
ENDROOT
BRANCH   4  12
ATOM     12  C   UNL     1      79.074  94.523 110.231  0.00  0.00    +0.000 A 
ATOM     13  C   UNL     1      78.931  95.902 110.085  0.00  0.00    +0.000 A 
ATOM     14  C   UNL     1      80.347  93.953 110.253  0.00  0.00    +0.000 A 
ATOM     15  C   UNL     1      81.476  94.763 110.129  0.00  0.00    +0.000 A 
ATOM     16  C   UNL     1      80.060  96.712 109.963  0.00  0.00    +0.000 A 
ATOM     17  C   UNL     1      81.333  96.142 109.984  0.00  0.00    +0.000 A 
BRANCH  15  18
ATOM     18  O   UNL     1      82.715  94.194 110.153  0.00  0.00    +0.000 OA
ATOM     19  H   UNL     1      83.014  94.073 109.235  0.00  0.00    +0.000 HD
ENDBRANCH  15  18
BRANCH  16  20
ATOM     20  O   UNL     1      79.905  98.059 109.821  0.00  0.00    +0.000 OA
ATOM     21  H   UNL     1      80.752  98.459 109.565  0.00  0.00    +0.000 HD
ENDBRANCH  16  20
BRANCH  17  22
ATOM     22  O   UNL     1      82.437  96.934 109.865  0.00  0.00    +0.000 OA
ATOM     23  H   UNL     1      83.090  96.687 110.539  0.00  0.00    +0.000 HD
ENDBRANCH  17  22
ENDBRANCH   4  12
BRANCH   6  24
ATOM     24  O   UNL     1      78.418  92.356 108.433  0.00  0.00    +0.000 OA
ATOM     25  H   UNL     1      77.892  91.943 107.730  0.00  0.00    +0.000 HD
ENDBRANCH   6  24
BRANCH   8  26
ATOM     26  O   UNL     1      73.949  90.469 110.398  0.00  0.00    +0.000 OA
ATOM     27  H   UNL     1      73.047  90.636 110.086  0.00  0.00    +0.000 HD
ENDBRANCH   8  26
BRANCH  10  28
ATOM     28  O   UNL     1      73.280  93.263 114.180  0.00  0.00    +0.000 OA
ATOM     29  H   UNL     1      72.375  93.465 113.885  0.00  0.00    +0.000 HD
ENDBRANCH  10  28
TORSDOF 7
ENDMDL
MODEL 5
REMARK VINA RESULT:    -8.735     12.848     14.844
REMARK INTER + INTRA:         -11.136
REMARK INTER:                 -10.996
REMARK INTRA:                  -0.141
REMARK UNBOUND:                -0.359
REMARK  Name = 5281672
REMARK  7 active torsions:
REMARK  status: ('A' for Active; 'I' for Inactive)
REMARK    1  A    between atoms: O_2  and  C_13
REMARK    2  A    between atoms: O_3  and  C_15
REMARK    3  A    between atoms: O_5  and  C_19
REMARK    4  A    between atoms: O_6  and  C_21
REMARK    5  A    between atoms: O_7  and  C_22
REMARK    6  A    between atoms: O_8  and  C_23
REMARK    7  A    between atoms: C_10  and  C_12
REMARK                            x       y       z     vdW  Elec       q    Type
REMARK                         _______ _______ _______ _____ _____    ______ ____
ROOT
ATOM      1  O   UNL     1      77.071  93.998 111.458  0.00  0.00    +0.000 OA
ATOM      2  O   UNL     1      76.072  90.929 108.971  0.00  0.00    +0.000 OA
ATOM      3  C   UNL     1      75.533  92.212 110.875  0.00  0.00    +0.000 A 
ATOM      4  C   UNL     1      77.853  93.672 110.361  0.00  0.00    +0.000 A 
ATOM      5  C   UNL     1      75.931  93.271 111.688  0.00  0.00    +0.000 A 
ATOM      6  C   UNL     1      77.586  92.669 109.505  0.00  0.00    +0.000 A 
ATOM      7  C   UNL     1      76.366  91.852 109.717  0.00  0.00    +0.000 A 
ATOM      8  C   UNL     1      74.362  91.506 111.159  0.00  0.00    +0.000 A 
ATOM      9  C   UNL     1      75.159  93.629 112.793  0.00  0.00    +0.000 A 
ATOM     10  C   UNL     1      73.990  92.927 113.080  0.00  0.00    +0.000 A 
ATOM     11  C   UNL     1      73.592  91.867 112.265  0.00  0.00    +0.000 A 
ENDROOT
BRANCH   4  12
ATOM     12  C   UNL     1      79.044  94.529 110.230  0.00  0.00    +0.000 A 
ATOM     13  C   UNL     1      80.318  93.963 110.258  0.00  0.00    +0.000 A 
ATOM     14  C   UNL     1      78.899  95.908 110.079  0.00  0.00    +0.000 A 
ATOM     15  C   UNL     1      80.027  96.719 109.955  0.00  0.00    +0.000 A 
ATOM     16  C   UNL     1      81.446  94.773 110.132  0.00  0.00    +0.000 A 
ATOM     17  C   UNL     1      81.301  96.152 109.981  0.00  0.00    +0.000 A 
BRANCH  15  18
ATOM     18  O   UNL     1      79.871  98.065 109.806  0.00  0.00    +0.000 OA
ATOM     19  H   UNL     1      79.216  98.371 110.457  0.00  0.00    +0.000 HD
ENDBRANCH  15  18
BRANCH  16  20
ATOM     20  O   UNL     1      82.685  94.206 110.161  0.00  0.00    +0.000 OA
ATOM     21  H   UNL     1      83.261  94.647 109.515  0.00  0.00    +0.000 HD
ENDBRANCH  16  20
BRANCH  17  22
ATOM     22  O   UNL     1      82.403  96.945 109.858  0.00  0.00    +0.000 OA
ATOM     23  H   UNL     1      82.719  96.925 108.940  0.00  0.00    +0.000 HD
ENDBRANCH  17  22
ENDBRANCH   4  12
BRANCH   6  24
ATOM     24  O   UNL     1      78.403  92.350 108.442  0.00  0.00    +0.000 OA
ATOM     25  H   UNL     1      78.962  93.110 108.215  0.00  0.00    +0.000 HD
ENDBRANCH   6  24
BRANCH   8  26
ATOM     26  O   UNL     1      73.929  90.463 110.396  0.00  0.00    +0.000 OA
ATOM     27  H   UNL     1      73.552  90.784 109.564  0.00  0.00    +0.000 HD
ENDBRANCH   8  26
BRANCH  10  28
ATOM     28  O   UNL     1      73.234  93.276 114.158  0.00  0.00    +0.000 OA
ATOM     29  H   UNL     1      72.759  94.100 113.955  0.00  0.00    +0.000 HD
ENDBRANCH  10  28
TORSDOF 7
ENDMDL
MODEL 6
REMARK VINA RESULT:    -8.578     14.398     15.840
REMARK INTER + INTRA:         -10.943
REMARK INTER:                 -10.576
REMARK INTRA:                  -0.367
REMARK UNBOUND:                -0.359
REMARK  Name = 5281672
REMARK  7 active torsions:
REMARK  status: ('A' for Active; 'I' for Inactive)
REMARK    1  A    between atoms: O_2  and  C_13
REMARK    2  A    between atoms: O_3  and  C_15
REMARK    3  A    between atoms: O_5  and  C_19
REMARK    4  A    between atoms: O_6  and  C_21
REMARK    5  A    between atoms: O_7  and  C_22
REMARK    6  A    between atoms: O_8  and  C_23
REMARK    7  A    between atoms: C_10  and  C_12
REMARK                            x       y       z     vdW  Elec       q    Type
REMARK                         _______ _______ _______ _____ _____    ______ ____
ROOT
ATOM      1  O   UNL     1      76.768  91.868 113.469  0.00  0.00    +0.000 OA
ATOM      2  O   UNL     1      78.902  91.040 110.097  0.00  0.00    +0.000 OA
ATOM      3  C   UNL     1      78.815  91.049 112.454  0.00  0.00    +0.000 A 
ATOM      4  C   UNL     1      76.236  92.079 112.205  0.00  0.00    +0.000 A 
ATOM      5  C   UNL     1      78.036  91.355 113.567  0.00  0.00    +0.000 A 
ATOM      6  C   UNL     1      76.887  91.835 111.054  0.00  0.00    +0.000 A 
ATOM      7  C   UNL     1      78.263  91.284 111.111  0.00  0.00    +0.000 A 
ATOM      8  C   UNL     1      80.102  90.529 112.615  0.00  0.00    +0.000 A 
ATOM      9  C   UNL     1      78.539  91.143 114.850  0.00  0.00    +0.000 A 
ATOM     10  C   UNL     1      79.823  90.625 115.016  0.00  0.00    +0.000 A 
ATOM     11  C   UNL     1      80.603  90.318 113.900  0.00  0.00    +0.000 A 
ENDROOT
BRANCH   4  12
ATOM     12  C   UNL     1      74.871  92.632 112.243  0.00  0.00    +0.000 A 
ATOM     13  C   UNL     1      73.771  91.775 112.254  0.00  0.00    +0.000 A 
ATOM     14  C   UNL     1      74.677  94.014 112.267  0.00  0.00    +0.000 A 
ATOM     15  C   UNL     1      73.385  94.536 112.304  0.00  0.00    +0.000 A 
ATOM     16  C   UNL     1      72.478  92.297 112.291  0.00  0.00    +0.000 A 
ATOM     17  C   UNL     1      72.285  93.679 112.316  0.00  0.00    +0.000 A 
BRANCH  15  18
ATOM     18  O   UNL     1      73.209  95.888 112.329  0.00  0.00    +0.000 OA
ATOM     19  H   UNL     1      73.295  96.224 111.420  0.00  0.00    +0.000 HD
ENDBRANCH  15  18
BRANCH  16  20
ATOM     20  O   UNL     1      71.413  91.448 112.302  0.00  0.00    +0.000 OA
ATOM     21  H   UNL     1      71.458  90.878 113.087  0.00  0.00    +0.000 HD
ENDBRANCH  16  20
BRANCH  17  22
ATOM     22  O   UNL     1      71.021  94.190 112.353  0.00  0.00    +0.000 OA
ATOM     23  H   UNL     1      70.678  94.147 113.260  0.00  0.00    +0.000 HD
ENDBRANCH  17  22
ENDBRANCH   4  12
BRANCH   6  24
ATOM     24  O   UNL     1      76.341  92.088 109.814  0.00  0.00    +0.000 OA
ATOM     25  H   UNL     1      75.387  91.914 109.831  0.00  0.00    +0.000 HD
ENDBRANCH   6  24
BRANCH   8  26
ATOM     26  O   UNL     1      80.905  90.214 111.561  0.00  0.00    +0.000 OA
ATOM     27  H   UNL     1      80.537  90.565 110.736  0.00  0.00    +0.000 HD
ENDBRANCH   8  26
BRANCH  10  28
ATOM     28  O   UNL     1      80.315  90.416 116.269  0.00  0.00    +0.000 OA
ATOM     29  H   UNL     1      79.687  90.776 116.918  0.00  0.00    +0.000 HD
ENDBRANCH  10  28
TORSDOF 7
ENDMDL
MODEL 7
REMARK VINA RESULT:    -8.368     14.438     15.883
REMARK INTER + INTRA:         -10.684
REMARK INTER:                 -10.450
REMARK INTRA:                  -0.234
REMARK UNBOUND:                -0.359
REMARK  Name = 5281672
REMARK  7 active torsions:
REMARK  status: ('A' for Active; 'I' for Inactive)
REMARK    1  A    between atoms: O_2  and  C_13
REMARK    2  A    between atoms: O_3  and  C_15
REMARK    3  A    between atoms: O_5  and  C_19
REMARK    4  A    between atoms: O_6  and  C_21
REMARK    5  A    between atoms: O_7  and  C_22
REMARK    6  A    between atoms: O_8  and  C_23
REMARK    7  A    between atoms: C_10  and  C_12
REMARK                            x       y       z     vdW  Elec       q    Type
REMARK                         _______ _______ _______ _____ _____    ______ ____
ROOT
ATOM      1  O   UNL     1      77.852  91.818 112.380  0.00  0.00    +0.000 OA
ATOM      2  O   UNL     1      79.386  90.127 115.756  0.00  0.00    +0.000 OA
ATOM      3  C   UNL     1      79.719  90.751 113.506  0.00  0.00    +0.000 A 
ATOM      4  C   UNL     1      77.107  91.725 113.546  0.00  0.00    +0.000 A 
ATOM      5  C   UNL     1      79.136  91.337 112.385  0.00  0.00    +0.000 A 
ATOM      6  C   UNL     1      77.548  91.174 114.691  0.00  0.00    +0.000 A 
ATOM      7  C   UNL     1      78.930  90.637 114.742  0.00  0.00    +0.000 A 
ATOM      8  C   UNL     1      81.033  90.278 113.452  0.00  0.00    +0.000 A 
ATOM      9  C   UNL     1      79.864  91.454 111.201  0.00  0.00    +0.000 A 
ATOM     10  C   UNL     1      81.175  90.984 111.143  0.00  0.00    +0.000 A 
ATOM     11  C   UNL     1      81.758  90.396 112.266  0.00  0.00    +0.000 A 
ENDROOT
BRANCH   4  12
ATOM     12  C   UNL     1      75.748  92.277 113.404  0.00  0.00    +0.000 A 
ATOM     13  C   UNL     1      74.832  91.665 112.548  0.00  0.00    +0.000 A 
ATOM     14  C   UNL     1      75.376  93.411 114.125  0.00  0.00    +0.000 A 
ATOM     15  C   UNL     1      74.089  93.933 113.990  0.00  0.00    +0.000 A 
ATOM     16  C   UNL     1      73.545  92.185 112.414  0.00  0.00    +0.000 A 
ATOM     17  C   UNL     1      73.173  93.320 113.136  0.00  0.00    +0.000 A 
BRANCH  15  18
ATOM     18  O   UNL     1      73.737  95.041 114.702  0.00  0.00    +0.000 OA
ATOM     19  H   UNL     1      73.897  94.863 115.644  0.00  0.00    +0.000 HD
ENDBRANCH  15  18
BRANCH  16  20
ATOM     20  O   UNL     1      72.662  91.577 111.574  0.00  0.00    +0.000 OA
ATOM     21  H   UNL     1      72.577  92.096 110.758  0.00  0.00    +0.000 HD
ENDBRANCH  16  20
BRANCH  17  22
ATOM     22  O   UNL     1      71.915  93.828 113.005  0.00  0.00    +0.000 OA
ATOM     23  H   UNL     1      71.278  93.103 112.906  0.00  0.00    +0.000 HD
ENDBRANCH  17  22
ENDBRANCH   4  12
BRANCH   6  24
ATOM     24  O   UNL     1      76.769  91.069 115.823  0.00  0.00    +0.000 OA
ATOM     25  H   UNL     1      77.296  90.709 116.554  0.00  0.00    +0.000 HD
ENDBRANCH   6  24
BRANCH   8  26
ATOM     26  O   UNL     1      81.649  89.696 114.519  0.00  0.00    +0.000 OA
ATOM     27  H   UNL     1      80.994  89.388 115.163  0.00  0.00    +0.000 HD
ENDBRANCH   8  26
BRANCH  10  28
ATOM     28  O   UNL     1      81.888  91.098 109.988  0.00  0.00    +0.000 OA
ATOM     29  H   UNL     1      81.608  91.905 109.523  0.00  0.00    +0.000 HD
ENDBRANCH  10  28
TORSDOF 7
ENDMDL
MODEL 8
REMARK VINA RESULT:    -8.286     12.029     13.988
REMARK INTER + INTRA:         -10.583
REMARK INTER:                 -10.236
REMARK INTRA:                  -0.348
REMARK UNBOUND:                -0.359
REMARK  Name = 5281672
REMARK  7 active torsions:
REMARK  status: ('A' for Active; 'I' for Inactive)
REMARK    1  A    between atoms: O_2  and  C_13
REMARK    2  A    between atoms: O_3  and  C_15
REMARK    3  A    between atoms: O_5  and  C_19
REMARK    4  A    between atoms: O_6  and  C_21
REMARK    5  A    between atoms: O_7  and  C_22
REMARK    6  A    between atoms: O_8  and  C_23
REMARK    7  A    between atoms: C_10  and  C_12
REMARK                            x       y       z     vdW  Elec       q    Type
REMARK                         _______ _______ _______ _____ _____    ______ ____
ROOT
ATOM      1  O   UNL     1      77.114  93.622 110.036  0.00  0.00    +0.000 OA
ATOM      2  O   UNL     1      75.886  92.974 106.205  0.00  0.00    +0.000 OA
ATOM      3  C   UNL     1      75.463  92.708 108.510  0.00  0.00    +0.000 A 
ATOM      4  C   UNL     1      77.854  94.073 108.953  0.00  0.00    +0.000 A 
ATOM      5  C   UNL     1      75.939  92.959 109.795  0.00  0.00    +0.000 A 
ATOM      6  C   UNL     1      77.511  93.887 107.665  0.00  0.00    +0.000 A 
ATOM      7  C   UNL     1      76.250  93.170 107.356  0.00  0.00    +0.000 A 
ATOM      8  C   UNL     1      74.258  92.025 108.325  0.00  0.00    +0.000 A 
ATOM      9  C   UNL     1      75.212  92.528 110.904  0.00  0.00    +0.000 A 
ATOM     10  C   UNL     1      74.009  91.846 110.724  0.00  0.00    +0.000 A 
ATOM     11  C   UNL     1      73.533  91.595 109.436  0.00  0.00    +0.000 A 
ENDROOT
BRANCH   4  12
ATOM     12  C   UNL     1      79.091  94.767 109.351  0.00  0.00    +0.000 A 
ATOM     13  C   UNL     1      80.220  94.032 109.709  0.00  0.00    +0.000 A 
ATOM     14  C   UNL     1      79.133  96.162 109.371  0.00  0.00    +0.000 A 
ATOM     15  C   UNL     1      80.304  96.819 109.747  0.00  0.00    +0.000 A 
ATOM     16  C   UNL     1      81.392  94.689 110.085  0.00  0.00    +0.000 A 
ATOM     17  C   UNL     1      81.434  96.083 110.104  0.00  0.00    +0.000 A 
BRANCH  15  18
ATOM     18  O   UNL     1      80.333  98.181 109.761  0.00  0.00    +0.000 OA
ATOM     19  H   UNL     1      79.693  98.508 109.106  0.00  0.00    +0.000 HD
ENDBRANCH  15  18
BRANCH  16  20
ATOM     20  O   UNL     1      82.487  93.956 110.432  0.00  0.00    +0.000 OA
ATOM     21  H   UNL     1      83.191  94.549 110.741  0.00  0.00    +0.000 HD
ENDBRANCH  16  20
BRANCH  17  22
ATOM     22  O   UNL     1      82.579  96.725 110.471  0.00  0.00    +0.000 OA
ATOM     23  H   UNL     1      82.358  97.541 110.947  0.00  0.00    +0.000 HD
ENDBRANCH  17  22
ENDBRANCH   4  12
BRANCH   6  24
ATOM     24  O   UNL     1      78.286  94.319 106.611  0.00  0.00    +0.000 OA
ATOM     25  H   UNL     1      79.088  93.778 106.547  0.00  0.00    +0.000 HD
ENDBRANCH   6  24
BRANCH   8  26
ATOM     26  O   UNL     1      73.749  91.753 107.090  0.00  0.00    +0.000 OA
ATOM     27  H   UNL     1      74.403  91.949 106.403  0.00  0.00    +0.000 HD
ENDBRANCH   8  26
BRANCH  10  28
ATOM     28  O   UNL     1      73.297  91.425 111.806  0.00  0.00    +0.000 OA
ATOM     29  H   UNL     1      72.421  91.124 111.509  0.00  0.00    +0.000 HD
ENDBRANCH  10  28
TORSDOF 7
ENDMDL
MODEL 9
REMARK VINA RESULT:    -8.168     13.147     14.710
REMARK INTER + INTRA:         -10.438
REMARK INTER:                 -10.071
REMARK INTRA:                  -0.367
REMARK UNBOUND:                -0.359
REMARK  Name = 5281672
REMARK  7 active torsions:
REMARK  status: ('A' for Active; 'I' for Inactive)
REMARK    1  A    between atoms: O_2  and  C_13
REMARK    2  A    between atoms: O_3  and  C_15
REMARK    3  A    between atoms: O_5  and  C_19
REMARK    4  A    between atoms: O_6  and  C_21
REMARK    5  A    between atoms: O_7  and  C_22
REMARK    6  A    between atoms: O_8  and  C_23
REMARK    7  A    between atoms: C_10  and  C_12
REMARK                            x       y       z     vdW  Elec       q    Type
REMARK                         _______ _______ _______ _____ _____    ______ ____
ROOT
ATOM      1  O   UNL     1      80.182  90.421 113.655  0.00  0.00    +0.000 OA
ATOM      2  O   UNL     1      82.058  91.321 110.151  0.00  0.00    +0.000 OA
ATOM      3  C   UNL     1      82.108  90.157 112.201  0.00  0.00    +0.000 A 
ATOM      4  C   UNL     1      79.594  91.250 112.711  0.00  0.00    +0.000 A 
ATOM      5  C   UNL     1      81.416  89.890 113.380  0.00  0.00    +0.000 A 
ATOM      6  C   UNL     1      80.159  91.592 111.540  0.00  0.00    +0.000 A 
ATOM      7  C   UNL     1      81.496  91.046 111.201  0.00  0.00    +0.000 A 
ATOM      8  C   UNL     1      83.364  89.588 111.976  0.00  0.00    +0.000 A 
ATOM      9  C   UNL     1      81.977  89.052 114.344  0.00  0.00    +0.000 A 
ATOM     10  C   UNL     1      83.231  88.483 114.123  0.00  0.00    +0.000 A 
ATOM     11  C   UNL     1      83.923  88.750 112.941  0.00  0.00    +0.000 A 
ENDROOT
BRANCH   4  12
ATOM     12  C   UNL     1      78.273  91.750 113.131  0.00  0.00    +0.000 A 
ATOM     13  C   UNL     1      77.121  91.035 112.806  0.00  0.00    +0.000 A 
ATOM     14  C   UNL     1      78.175  92.939 113.854  0.00  0.00    +0.000 A 
ATOM     15  C   UNL     1      76.924  93.412 114.252  0.00  0.00    +0.000 A 
ATOM     16  C   UNL     1      75.870  91.508 113.205  0.00  0.00    +0.000 A 
ATOM     17  C   UNL     1      75.772  92.697 113.928  0.00  0.00    +0.000 A 
BRANCH  15  18
ATOM     18  O   UNL     1      76.841  94.574 114.959  0.00  0.00    +0.000 OA
ATOM     19  H   UNL     1      75.921  94.691 115.249  0.00  0.00    +0.000 HD
ENDBRANCH  15  18
BRANCH  16  20
ATOM     20  O   UNL     1      74.753  90.799 112.880  0.00  0.00    +0.000 OA
ATOM     21  H   UNL     1      74.274  91.252 112.168  0.00  0.00    +0.000 HD
ENDBRANCH  16  20
BRANCH  17  22
ATOM     22  O   UNL     1      74.550  93.158 114.318  0.00  0.00    +0.000 OA
ATOM     23  H   UNL     1      73.852  92.624 113.905  0.00  0.00    +0.000 HD
ENDBRANCH  17  22
ENDBRANCH   4  12
BRANCH   6  24
ATOM     24  O   UNL     1      79.561  92.445 110.637  0.00  0.00    +0.000 OA
ATOM     25  H   UNL     1      79.708  92.126 109.733  0.00  0.00    +0.000 HD
ENDBRANCH   6  24
BRANCH   8  26
ATOM     26  O   UNL     1      84.082  89.817 110.841  0.00  0.00    +0.000 OA
ATOM     27  H   UNL     1      84.818  90.420 111.020  0.00  0.00    +0.000 HD
ENDBRANCH   8  26
BRANCH  10  28
ATOM     28  O   UNL     1      83.780  87.663 115.062  0.00  0.00    +0.000 OA
ATOM     29  H   UNL     1      83.247  87.713 115.874  0.00  0.00    +0.000 HD
ENDBRANCH  10  28
TORSDOF 7
ENDMDL
MODEL 10
REMARK VINA RESULT:    -8.088     12.845     14.342
REMARK INTER + INTRA:         -10.339
REMARK INTER:                 -10.017
REMARK INTRA:                  -0.322
REMARK UNBOUND:                -0.359
REMARK  Name = 5281672
REMARK  7 active torsions:
REMARK  status: ('A' for Active; 'I' for Inactive)
REMARK    1  A    between atoms: O_2  and  C_13
REMARK    2  A    between atoms: O_3  and  C_15
REMARK    3  A    between atoms: O_5  and  C_19
REMARK    4  A    between atoms: O_6  and  C_21
REMARK    5  A    between atoms: O_7  and  C_22
REMARK    6  A    between atoms: O_8  and  C_23
REMARK    7  A    between atoms: C_10  and  C_12
REMARK                            x       y       z     vdW  Elec       q    Type
REMARK                         _______ _______ _______ _____ _____    ______ ____
ROOT
ATOM      1  O   UNL     1      77.420  93.162 111.896  0.00  0.00    +0.000 OA
ATOM      2  O   UNL     1      75.446  90.846 109.185  0.00  0.00    +0.000 OA
ATOM      3  C   UNL     1      75.373  92.051 111.211  0.00  0.00    +0.000 A 
ATOM      4  C   UNL     1      78.045  92.699 110.748  0.00  0.00    +0.000 A 
ATOM      5  C   UNL     1      76.103  92.836 112.100  0.00  0.00    +0.000 A 
ATOM      6  C   UNL     1      77.456  91.927 109.817  0.00  0.00    +0.000 A 
ATOM      7  C   UNL     1      76.034  91.545 109.998  0.00  0.00    +0.000 A 
ATOM      8  C   UNL     1      74.034  91.750 111.472  0.00  0.00    +0.000 A 
ATOM      9  C   UNL     1      75.499  93.326 113.257  0.00  0.00    +0.000 A 
ATOM     10  C   UNL     1      74.162  93.028 113.522  0.00  0.00    +0.000 A 
ATOM     11  C   UNL     1      73.431  92.241 112.630  0.00  0.00    +0.000 A 
ENDROOT
BRANCH   4  12
ATOM     12  C   UNL     1      79.454  93.120 110.653  0.00  0.00    +0.000 A 
ATOM     13  C   UNL     1      80.473  92.224 110.974  0.00  0.00    +0.000 A 
ATOM     14  C   UNL     1      79.769  94.415 110.241  0.00  0.00    +0.000 A 
ATOM     15  C   UNL     1      81.103  94.813 110.150  0.00  0.00    +0.000 A 
ATOM     16  C   UNL     1      81.807  92.621 110.882  0.00  0.00    +0.000 A 
ATOM     17  C   UNL     1      82.122  93.916 110.470  0.00  0.00    +0.000 A 
BRANCH  15  18
ATOM     18  O   UNL     1      81.398  96.080 109.745  0.00  0.00    +0.000 OA
ATOM     19  H   UNL     1      80.941  96.247 108.903  0.00  0.00    +0.000 HD
ENDBRANCH  15  18
BRANCH  16  20
ATOM     20  O   UNL     1      82.792  91.735 111.199  0.00  0.00    +0.000 OA
ATOM     21  H   UNL     1      82.745  90.968 110.605  0.00  0.00    +0.000 HD
ENDBRANCH  16  20
BRANCH  17  22
ATOM     22  O   UNL     1      83.426  94.305 110.380  0.00  0.00    +0.000 OA
ATOM     23  H   UNL     1      83.787  94.446 111.270  0.00  0.00    +0.000 HD
ENDBRANCH  17  22
ENDBRANCH   4  12
BRANCH   6  24
ATOM     24  O   UNL     1      78.117  91.455 108.703  0.00  0.00    +0.000 OA
ATOM     25  H   UNL     1      78.644  90.675 108.937  0.00  0.00    +0.000 HD
ENDBRANCH   6  24
BRANCH   8  26
ATOM     26  O   UNL     1      73.275  90.987 110.636  0.00  0.00    +0.000 OA
ATOM     27  H   UNL     1      73.189  90.086 110.983  0.00  0.00    +0.000 HD
ENDBRANCH   8  26
BRANCH  10  28
ATOM     28  O   UNL     1      73.569  93.506 114.651  0.00  0.00    +0.000 OA
ATOM     29  H   UNL     1      72.620  93.298 114.620  0.00  0.00    +0.000 HD
ENDBRANCH  10  28
TORSDOF 7
ENDMDL
