REMARK VINA RESULT:      -7.6      2.262      8.404
REMARK  12 active torsions:
REMARK  status: ('A' for Active; 'I' for Inactive)
REMARK    1  A    between atoms: O_1  and  C_10 
REMARK    2  A    between atoms: O_2  and  C_17 
REMARK    3  A    between atoms: O_3  and  C_20 
REMARK    4  A    between atoms: O_4  and  C_27 
REMARK    5  A    between atoms: O_6  and  C_29 
REMARK    6  A    between atoms: O_7  and  C_28 
REMARK    7  A    between atoms: O_8  and  C_33 
REMARK    8  A    between atoms: C_11  and  C_20 
REMARK    9  A    between atoms: C_20  and  C_28 
REMARK   10  A    between atoms: C_28  and  C_31 
REMARK   11  A    between atoms: C_31  and  C_32 
REMARK   12  A    between atoms: C_32  and  C_33 
ROOT
HETATM    1  O   UNK     0     177.644 177.227 170.180  0.00  0.00    -0.384 OA
HETATM    2  H   UNK     0     177.807 176.690 169.391  0.00  0.00     0.211 HD
ENDROOT
BRANCH   1   3
HETATM    3  C   UNK     0     177.216 176.408 171.291  0.00  0.00     0.090 C 
HETATM    4  C   UNK     0     176.216 175.334 170.790  0.00  0.00    -0.000 C 
HETATM    5  C   UNK     0     175.044 176.230 170.313  0.00  0.00     0.034 C 
HETATM    6  C   UNK     0     176.885 174.529 169.667  0.00  0.00     0.045 C 
HETATM    7  C   UNK     0     175.748 174.367 171.914  0.00  0.00     0.019 C 
HETATM    8  C   UNK     0     174.969 177.341 171.386  0.00  0.00     0.012 C 
HETATM    9  C   UNK     0     176.316 177.314 172.143  0.00  0.00     0.044 C 
HETATM   10  C   UNK     0     178.191 173.866 170.149  0.00  0.00     0.128 C 
HETATM   11  C   UNK     0     179.207 174.850 170.839  0.00  0.00     0.055 C 
HETATM   12  C   UNK     0     180.490 174.128 171.448  0.00  0.00    -0.021 C 
HETATM   13  C   UNK     0     178.474 175.767 171.841  0.00  0.00    -0.034 C 
HETATM   14  C   UNK     0     181.202 175.064 172.468  0.00  0.00     0.071 C 
HETATM   15  C   UNK     0     181.504 173.708 170.321  0.00  0.00     0.045 C 
HETATM   16  C   UNK     0     180.082 172.834 172.206  0.00  0.00     0.017 C 
HETATM   17  C   UNK     0     181.919 176.280 171.855  0.00  0.00     0.047 C 
HETATM   18  C   UNK     0     180.234 175.553 173.526  0.00  0.00     0.154 C 
HETATM   19  C   UNK     0     182.447 176.036 170.445  0.00  0.00     0.147 C 
HETATM   20  C   UNK     0     182.767 174.567 170.205  0.00  0.00     0.147 C 
HETATM   21  O   UNK     0     180.549 175.634 174.711  0.00  0.00    -0.293 OA
HETATM   22  C   UNK     0     178.912 176.033 173.080  0.00  0.00     0.057 C 
BRANCH   5  23
HETATM   23  C   UNK     0     173.707 175.539 170.084  0.00  0.00     0.084 C 
HETATM   24  C   UNK     0     173.528 174.400 171.101  0.00  0.00     0.049 C 
BRANCH  23  25
HETATM   25  O   UNK     0     172.659 176.490 170.317  0.00  0.00    -0.387 OA
HETATM   26  H   UNK     0     172.927 177.083 171.038  0.00  0.00     0.210 HD
ENDBRANCH  23  25
BRANCH  23  27
HETATM   27  C   UNK     0     173.563 175.005 168.633  0.00  0.00     0.152 C 
BRANCH  27  28
HETATM   28  O   UNK     0     172.550 175.749 167.947  0.00  0.00    -0.393 OA
HETATM   29  H   UNK     0     171.873 175.116 167.653  0.00  0.00     0.210 HD
ENDBRANCH  27  28
BRANCH  27  30
HETATM   30  C   UNK     0     173.210 173.508 168.541  0.00  0.00     0.037 C 
BRANCH  30  31
HETATM   31  C   UNK     0     171.991 173.257 167.636  0.00  0.00     0.040 C 
BRANCH  31  32
HETATM   32  C   UNK     0     170.668 173.018 168.394  0.00  0.00     0.051 C 
HETATM   33  C   UNK     0     169.741 172.140 167.547  0.00  0.00     0.045 C 
HETATM   34  C   UNK     0     170.887 172.373 169.765  0.00  0.00     0.045 C 
BRANCH  32  35
HETATM   35  O   UNK     0     170.025 174.279 168.586  0.00  0.00    -0.391 OA
HETATM   36  H   UNK     0     170.700 174.941 168.812  0.00  0.00     0.210 HD
ENDBRANCH  32  35
ENDBRANCH  31  32
ENDBRANCH  30  31
ENDBRANCH  27  30
ENDBRANCH  23  27
ENDBRANCH   5  23
BRANCH  10  37
HETATM   37  O   UNK     0     178.789 173.242 169.016  0.00  0.00    -0.395 OA
HETATM   38  H   UNK     0     178.114 173.188 168.318  0.00  0.00     0.210 HD
ENDBRANCH  10  37
BRANCH  19  39
HETATM   39  O   UNK     0     183.608 176.837 170.246  0.00  0.00    -0.393 OA
HETATM   40  H   UNK     0     183.388 177.755 170.474  0.00  0.00     0.210 HD
ENDBRANCH  19  39
BRANCH  20  41
HETATM   41  O   UNK     0     183.731 174.106 171.154  0.00  0.00    -0.393 OA
HETATM   42  H   UNK     0     183.445 174.407 172.033  0.00  0.00     0.210 HD
ENDBRANCH  20  41
ENDBRANCH   1   3
TORSDOF 12
