MODEL 1
REMARK VINA RESULT:      -7.9      0.000      0.000
REMARK  5 active torsions:
REMARK  status: ('A' for Active; 'I' for Inactive)
REMARK    1  A    between atoms: O_2  and  C_13 
REMARK    2  A    between atoms: O_4  and  C_16 
REMARK    3  A    between atoms: O_5  and  C_19 
REMARK    4  A    between atoms: O_6  and  C_21 
REMARK    5  A    between atoms: C_9  and  C_10 
ROOT
HETATM    1  O   UNK     0     149.849 157.648 150.792  0.00  0.00    -0.309 OA
HETATM    2  O   UNK     0     147.918 154.128 150.098  0.00  0.00    -0.287 OA
HETATM    3  C   UNK     0     147.831 156.489 150.095  0.00  0.00     0.081 A 
HETATM    4  C   UNK     0     148.550 157.655 150.351  0.00  0.00     0.095 A 
HETATM    5  C   UNK     0     150.469 156.425 150.999  0.00  0.00     0.090 A 
HETATM    6  C   UNK     0     148.488 155.190 150.305  0.00  0.00     0.190 A 
HETATM    7  C   UNK     0     149.885 155.235 150.783  0.00  0.00     0.094 A 
HETATM    8  C   UNK     0     146.510 156.558 149.646  0.00  0.00     0.085 A 
HETATM    9  C   UNK     0     147.951 158.900 150.158  0.00  0.00     0.075 A 
HETATM   10  C   UNK     0     146.632 158.973 149.710  0.00  0.00     0.071 A 
HETATM   11  C   UNK     0     145.913 157.805 149.455  0.00  0.00     0.074 A 
ENDROOT
BRANCH   5  12
HETATM   12  C   UNK     0     151.865 156.531 151.468  0.00  0.00     0.001 A 
HETATM   13  C   UNK     0     152.413 157.781 151.763  0.00  0.00     0.053 A 
HETATM   14  C   UNK     0     153.732 157.882 152.205  0.00  0.00     0.099 A 
HETATM   15  C   UNK     0     154.507 156.731 152.355  0.00  0.00     0.098 A 
HETATM   16  C   UNK     0     153.963 155.481 152.061  0.00  0.00     0.040 A 
HETATM   17  C   UNK     0     152.644 155.381 151.618  0.00  0.00     0.017 A 
BRANCH  14  18
HETATM   18  O   UNK     0     154.253 159.108 152.489  0.00  0.00    -0.358 OA
HETATM   19  H   UNK     0     155.140 158.984 152.868  0.00  0.00     0.217 HD
ENDBRANCH  14  18
BRANCH  15  20
HETATM   20  O   UNK     0     155.796 156.816 152.788  0.00  0.00    -0.358 OA
HETATM   21  H   UNK     0     156.102 157.734 152.693  0.00  0.00     0.217 HD
ENDBRANCH  15  20
ENDBRANCH   5  12
BRANCH   8  22
HETATM   22  O   UNK     0     145.766 155.448 149.382  0.00  0.00    -0.360 OA
HETATM   23  H   UNK     0     145.915 155.147 148.473  0.00  0.00     0.217 HD
ENDBRANCH   8  22
BRANCH  10  24
HETATM   24  O   UNK     0     146.044 160.187 149.521  0.00  0.00    -0.361 OA
HETATM   25  H   UNK     0     145.717 160.240 148.607  0.00  0.00     0.217 HD
ENDBRANCH  10  24
TORSDOF 5
ENDMDL
MODEL 2
REMARK VINA RESULT:      -7.8      0.715      1.393
REMARK  5 active torsions:
REMARK  status: ('A' for Active; 'I' for Inactive)
REMARK    1  A    between atoms: O_2  and  C_13 
REMARK    2  A    between atoms: O_4  and  C_16 
REMARK    3  A    between atoms: O_5  and  C_19 
REMARK    4  A    between atoms: O_6  and  C_21 
REMARK    5  A    between atoms: C_9  and  C_10 
ROOT
HETATM    1  O   UNK     0     150.009 157.745 150.849  0.00  0.00    -0.309 OA
HETATM    2  O   UNK     0     148.137 154.163 150.333  0.00  0.00    -0.287 OA
HETATM    3  C   UNK     0     148.009 156.519 150.216  0.00  0.00     0.081 A 
HETATM    4  C   UNK     0     148.709 157.708 150.413  0.00  0.00     0.095 A 
HETATM    5  C   UNK     0     150.651 156.544 151.113  0.00  0.00     0.090 A 
HETATM    6  C   UNK     0     148.690 155.243 150.486  0.00  0.00     0.190 A 
HETATM    7  C   UNK     0     150.087 155.336 150.957  0.00  0.00     0.094 A 
HETATM    8  C   UNK     0     146.686 156.544 149.770  0.00  0.00     0.085 A 
HETATM    9  C   UNK     0     148.088 158.932 150.163  0.00  0.00     0.075 A 
HETATM   10  C   UNK     0     146.767 158.960 149.716  0.00  0.00     0.071 A 
HETATM   11  C   UNK     0     146.068 157.769 149.521  0.00  0.00     0.074 A 
ENDROOT
BRANCH   5  12
HETATM   12  C   UNK     0     152.046 156.697 151.571  0.00  0.00     0.001 A 
HETATM   13  C   UNK     0     152.605 155.762 152.445  0.00  0.00     0.053 A 
HETATM   14  C   UNK     0     153.923 155.906 152.877  0.00  0.00     0.099 A 
HETATM   15  C   UNK     0     154.687 156.987 152.436  0.00  0.00     0.098 A 
HETATM   16  C   UNK     0     154.133 157.923 151.564  0.00  0.00     0.040 A 
HETATM   17  C   UNK     0     152.814 157.779 151.132  0.00  0.00     0.017 A 
BRANCH  14  18
HETATM   18  O   UNK     0     154.454 154.986 153.730  0.00  0.00    -0.358 OA
HETATM   19  H   UNK     0     154.350 154.105 153.333  0.00  0.00     0.217 HD
ENDBRANCH  14  18
BRANCH  15  20
HETATM   20  O   UNK     0     155.976 157.139 152.851  0.00  0.00    -0.358 OA
HETATM   21  H   UNK     0     156.463 157.654 152.186  0.00  0.00     0.217 HD
ENDBRANCH  15  20
ENDBRANCH   5  12
BRANCH   8  22
HETATM   22  O   UNK     0     145.961 155.409 149.563  0.00  0.00    -0.360 OA
HETATM   23  H   UNK     0     145.152 155.609 149.067  0.00  0.00     0.217 HD
ENDBRANCH   8  22
BRANCH  10  24
HETATM   24  O   UNK     0     146.157 160.154 149.470  0.00  0.00    -0.361 OA
HETATM   25  H   UNK     0     145.727 160.462 150.286  0.00  0.00     0.217 HD
ENDBRANCH  10  24
TORSDOF 5
ENDMDL
MODEL 3
REMARK VINA RESULT:      -7.7      1.433      7.537
REMARK  5 active torsions:
REMARK  status: ('A' for Active; 'I' for Inactive)
REMARK    1  A    between atoms: O_2  and  C_13 
REMARK    2  A    between atoms: O_4  and  C_16 
REMARK    3  A    between atoms: O_5  and  C_19 
REMARK    4  A    between atoms: O_6  and  C_21 
REMARK    5  A    between atoms: C_9  and  C_10 
ROOT
HETATM    1  O   UNK     0     151.779 155.456 151.159  0.00  0.00    -0.309 OA
HETATM    2  O   UNK     0     153.734 158.881 152.177  0.00  0.00    -0.287 OA
HETATM    3  C   UNK     0     153.822 156.536 151.905  0.00  0.00     0.081 A 
HETATM    4  C   UNK     0     153.094 155.404 151.543  0.00  0.00     0.095 A 
HETATM    5  C   UNK     0     151.145 156.689 151.137  0.00  0.00     0.090 A 
HETATM    6  C   UNK     0     153.156 157.847 151.875  0.00  0.00     0.190 A 
HETATM    7  C   UNK     0     151.739 157.849 151.457  0.00  0.00     0.094 A 
HETATM    8  C   UNK     0     155.160 156.423 152.289  0.00  0.00     0.085 A 
HETATM    9  C   UNK     0     153.702 154.149 151.562  0.00  0.00     0.075 A 
HETATM   10  C   UNK     0     155.039 154.032 151.944  0.00  0.00     0.071 A 
HETATM   11  C   UNK     0     155.766 155.166 152.306  0.00  0.00     0.074 A 
ENDROOT
BRANCH   5  12
HETATM   12  C   UNK     0     149.735 156.632 150.704  0.00  0.00     0.001 A 
HETATM   13  C   UNK     0     149.067 155.406 150.646  0.00  0.00     0.053 A 
HETATM   14  C   UNK     0     147.735 155.352 150.237  0.00  0.00     0.099 A 
HETATM   15  C   UNK     0     147.066 156.524 149.883  0.00  0.00     0.098 A 
HETATM   16  C   UNK     0     147.729 157.750 149.938  0.00  0.00     0.040 A 
HETATM   17  C   UNK     0     149.062 157.803 150.348  0.00  0.00     0.017 A 
BRANCH  14  18
HETATM   18  O   UNK     0     147.097 154.149 150.185  0.00  0.00    -0.358 OA
HETATM   19  H   UNK     0     147.724 153.459 150.459  0.00  0.00     0.217 HD
ENDBRANCH  14  18
BRANCH  15  20
HETATM   20  O   UNK     0     145.765 156.485 149.483  0.00  0.00    -0.358 OA
HETATM   21  H   UNK     0     145.731 156.256 148.538  0.00  0.00     0.217 HD
ENDBRANCH  15  20
ENDBRANCH   5  12
BRANCH   8  22
HETATM   22  O   UNK     0     155.913 157.498 152.651  0.00  0.00    -0.360 OA
HETATM   23  H   UNK     0     155.651 157.817 153.528  0.00  0.00     0.217 HD
ENDBRANCH   8  22
BRANCH  10  24
HETATM   24  O   UNK     0     155.636 152.808 151.962  0.00  0.00    -0.361 OA
HETATM   25  H   UNK     0     155.881 152.562 151.054  0.00  0.00     0.217 HD
ENDBRANCH  10  24
TORSDOF 5
ENDMDL
MODEL 4
REMARK VINA RESULT:      -7.7     22.876     24.390
REMARK  5 active torsions:
REMARK  status: ('A' for Active; 'I' for Inactive)
REMARK    1  A    between atoms: O_2  and  C_13 
REMARK    2  A    between atoms: O_4  and  C_16 
REMARK    3  A    between atoms: O_5  and  C_19 
REMARK    4  A    between atoms: O_6  and  C_21 
REMARK    5  A    between atoms: C_9  and  C_10 
ROOT
HETATM    1  O   UNK     0     152.213 172.230 133.561  0.00  0.00    -0.309 OA
HETATM    2  O   UNK     0     151.874 170.065 130.127  0.00  0.00    -0.287 OA
HETATM    3  C   UNK     0     153.210 170.685 131.974  0.00  0.00     0.081 A 
HETATM    4  C   UNK     0     153.258 171.449 133.138  0.00  0.00     0.095 A 
HETATM    5  C   UNK     0     151.061 172.265 132.790  0.00  0.00     0.090 A 
HETATM    6  C   UNK     0     151.986 170.712 131.158  0.00  0.00     0.190 A 
HETATM    7  C   UNK     0     150.890 171.570 131.654  0.00  0.00     0.094 A 
HETATM    8  C   UNK     0     154.306 169.908 131.593  0.00  0.00     0.085 A 
HETATM    9  C   UNK     0     154.406 171.440 133.931  0.00  0.00     0.075 A 
HETATM   10  C   UNK     0     155.503 170.665 133.554  0.00  0.00     0.071 A 
HETATM   11  C   UNK     0     155.453 169.901 132.387  0.00  0.00     0.074 A 
ENDROOT
BRANCH   5  12
HETATM   12  C   UNK     0     149.998 173.130 133.338  0.00  0.00     0.001 A 
HETATM   13  C   UNK     0     148.686 173.013 132.871  0.00  0.00     0.053 A 
HETATM   14  C   UNK     0     147.682 173.831 133.389  0.00  0.00     0.099 A 
HETATM   15  C   UNK     0     147.986 174.769 134.376  0.00  0.00     0.098 A 
HETATM   16  C   UNK     0     149.293 174.889 134.844  0.00  0.00     0.040 A 
HETATM   17  C   UNK     0     150.298 174.071 134.326  0.00  0.00     0.017 A 
BRANCH  14  18
HETATM   18  O   UNK     0     146.407 173.705 132.923  0.00  0.00    -0.358 OA
HETATM   19  H   UNK     0     146.026 172.891 133.292  0.00  0.00     0.217 HD
ENDBRANCH  14  18
BRANCH  15  20
HETATM   20  O   UNK     0     147.013 175.572 134.890  0.00  0.00    -0.358 OA
HETATM   21  H   UNK     0     146.235 175.030 135.104  0.00  0.00     0.217 HD
ENDBRANCH  15  20
ENDBRANCH   5  12
BRANCH   8  22
HETATM   22  O   UNK     0     154.307 169.145 130.465  0.00  0.00    -0.360 OA
HETATM   23  H   UNK     0     155.082 169.348 129.917  0.00  0.00     0.217 HD
ENDBRANCH   8  22
BRANCH  10  24
HETATM   24  O   UNK     0     156.625 170.654 134.326  0.00  0.00    -0.361 OA
HETATM   25  H   UNK     0     156.407 171.008 135.204  0.00  0.00     0.217 HD
ENDBRANCH  10  24
TORSDOF 5
ENDMDL
MODEL 5
REMARK VINA RESULT:      -7.6     23.867     24.569
REMARK  5 active torsions:
REMARK  status: ('A' for Active; 'I' for Inactive)
REMARK    1  A    between atoms: O_2  and  C_13 
REMARK    2  A    between atoms: O_4  and  C_16 
REMARK    3  A    between atoms: O_5  and  C_19 
REMARK    4  A    between atoms: O_6  and  C_21 
REMARK    5  A    between atoms: C_9  and  C_10 
ROOT
HETATM    1  O   UNK     0     151.558 171.384 132.048  0.00  0.00    -0.309 OA
HETATM    2  O   UNK     0     149.542 169.156 129.297  0.00  0.00    -0.287 OA
HETATM    3  C   UNK     0     151.599 169.648 130.349  0.00  0.00     0.081 A 
HETATM    4  C   UNK     0     152.227 170.443 131.306  0.00  0.00     0.095 A 
HETATM    5  C   UNK     0     150.200 171.556 131.828  0.00  0.00     0.090 A 
HETATM    6  C   UNK     0     150.157 169.821 130.119  0.00  0.00     0.190 A 
HETATM    7  C   UNK     0     149.483 170.848 130.940  0.00  0.00     0.094 A 
HETATM    8  C   UNK     0     152.331 168.706 129.624  0.00  0.00     0.085 A 
HETATM    9  C   UNK     0     153.593 170.299 131.545  0.00  0.00     0.075 A 
HETATM   10  C   UNK     0     154.328 169.358 130.823  0.00  0.00     0.071 A 
HETATM   11  C   UNK     0     153.699 168.564 129.865  0.00  0.00     0.074 A 
ENDROOT
BRANCH   5  12
HETATM   12  C   UNK     0     149.579 172.587 132.681  0.00  0.00     0.001 A 
HETATM   13  C   UNK     0     150.376 173.415 133.476  0.00  0.00     0.053 A 
HETATM   14  C   UNK     0     149.789 174.389 134.282  0.00  0.00     0.099 A 
HETATM   15  C   UNK     0     148.402 174.541 134.296  0.00  0.00     0.098 A 
HETATM   16  C   UNK     0     147.603 173.717 133.505  0.00  0.00     0.040 A 
HETATM   17  C   UNK     0     148.190 172.741 132.698  0.00  0.00     0.017 A 
BRANCH  14  18
HETATM   18  O   UNK     0     150.580 175.188 135.053  0.00  0.00    -0.358 OA
HETATM   19  H   UNK     0     151.460 174.780 135.113  0.00  0.00     0.217 HD
ENDBRANCH  14  18
BRANCH  15  20
HETATM   20  O   UNK     0     147.817 175.490 135.079  0.00  0.00    -0.358 OA
HETATM   21  H   UNK     0     148.339 175.595 135.892  0.00  0.00     0.217 HD
ENDBRANCH  15  20
ENDBRANCH   5  12
BRANCH   8  22
HETATM   22  O   UNK     0     151.764 167.906 128.679  0.00  0.00    -0.360 OA
HETATM   23  H   UNK     0     151.672 166.999 129.011  0.00  0.00     0.217 HD
ENDBRANCH   8  22
BRANCH  10  24
HETATM   24  O   UNK     0     155.663 169.215 131.055  0.00  0.00    -0.361 OA
HETATM   25  H   UNK     0     155.794 168.522 131.724  0.00  0.00     0.217 HD
ENDBRANCH  10  24
TORSDOF 5
ENDMDL
MODEL 6
REMARK VINA RESULT:      -7.6      2.361      4.097
REMARK  5 active torsions:
REMARK  status: ('A' for Active; 'I' for Inactive)
REMARK    1  A    between atoms: O_2  and  C_13 
REMARK    2  A    between atoms: O_4  and  C_16 
REMARK    3  A    between atoms: O_5  and  C_19 
REMARK    4  A    between atoms: O_6  and  C_21 
REMARK    5  A    between atoms: C_9  and  C_10 
ROOT
HETATM    1  O   UNK     0     148.347 156.872 149.440  0.00  0.00    -0.309 OA
HETATM    2  O   UNK     0     144.661 158.605 149.490  0.00  0.00    -0.287 OA
HETATM    3  C   UNK     0     146.003 156.785 148.807  0.00  0.00     0.081 A 
HETATM    4  C   UNK     0     147.289 156.248 148.828  0.00  0.00     0.095 A 
HETATM    5  C   UNK     0     148.127 158.094 150.057  0.00  0.00     0.090 A 
HETATM    6  C   UNK     0     145.764 158.077 149.468  0.00  0.00     0.190 A 
HETATM    7  C   UNK     0     146.935 158.709 150.109  0.00  0.00     0.094 A 
HETATM    8  C   UNK     0     144.964 156.105 148.169  0.00  0.00     0.085 A 
HETATM    9  C   UNK     0     147.544 155.024 148.210  0.00  0.00     0.075 A 
HETATM   10  C   UNK     0     146.508 154.341 147.572  0.00  0.00     0.071 A 
HETATM   11  C   UNK     0     145.222 154.880 147.551  0.00  0.00     0.074 A 
ENDROOT
BRANCH   5  12
HETATM   12  C   UNK     0     149.329 158.674 150.687  0.00  0.00     0.001 A 
HETATM   13  C   UNK     0     149.300 159.977 151.189  0.00  0.00     0.053 A 
HETATM   14  C   UNK     0     150.435 160.524 151.785  0.00  0.00     0.099 A 
HETATM   15  C   UNK     0     151.605 159.770 151.881  0.00  0.00     0.098 A 
HETATM   16  C   UNK     0     151.639 158.469 151.380  0.00  0.00     0.040 A 
HETATM   17  C   UNK     0     150.502 157.922 150.784  0.00  0.00     0.017 A 
BRANCH  14  18
HETATM   18  O   UNK     0     150.391 161.797 152.270  0.00  0.00    -0.358 OA
HETATM   19  H   UNK     0     150.516 162.412 151.526  0.00  0.00     0.217 HD
ENDBRANCH  14  18
BRANCH  15  20
HETATM   20  O   UNK     0     152.721 160.294 152.461  0.00  0.00    -0.358 OA
HETATM   21  H   UNK     0     153.180 159.593 152.954  0.00  0.00     0.217 HD
ENDBRANCH  15  20
ENDBRANCH   5  12
BRANCH   8  22
HETATM   22  O   UNK     0     143.692 156.588 148.121  0.00  0.00    -0.360 OA
HETATM   23  H   UNK     0     143.362 156.766 149.015  0.00  0.00     0.217 HD
ENDBRANCH   8  22
BRANCH  10  24
HETATM   24  O   UNK     0     146.753 153.145 146.968  0.00  0.00    -0.361 OA
HETATM   25  H   UNK     0     147.165 153.307 146.103  0.00  0.00     0.217 HD
ENDBRANCH  10  24
TORSDOF 5
ENDMDL
MODEL 7
REMARK VINA RESULT:      -7.5      1.351      7.245
REMARK  5 active torsions:
REMARK  status: ('A' for Active; 'I' for Inactive)
REMARK    1  A    between atoms: O_2  and  C_13 
REMARK    2  A    between atoms: O_4  and  C_16 
REMARK    3  A    between atoms: O_5  and  C_19 
REMARK    4  A    between atoms: O_6  and  C_21 
REMARK    5  A    between atoms: C_9  and  C_10 
ROOT
HETATM    1  O   UNK     0     150.633 156.639 151.127  0.00  0.00    -0.309 OA
HETATM    2  O   UNK     0     152.658 160.114 151.773  0.00  0.00    -0.287 OA
HETATM    3  C   UNK     0     152.667 157.753 151.850  0.00  0.00     0.081 A 
HETATM    4  C   UNK     0     151.918 156.603 151.606  0.00  0.00     0.095 A 
HETATM    5  C   UNK     0     150.053 157.875 150.883  0.00  0.00     0.090 A 
HETATM    6  C   UNK     0     152.058 159.066 151.584  0.00  0.00     0.190 A 
HETATM    7  C   UNK     0     150.672 159.050 151.072  0.00  0.00     0.094 A 
HETATM    8  C   UNK     0     153.972 157.656 152.338  0.00  0.00     0.085 A 
HETATM    9  C   UNK     0     152.472 155.346 151.848  0.00  0.00     0.075 A 
HETATM   10  C   UNK     0     153.776 155.245 152.334  0.00  0.00     0.071 A 
HETATM   11  C   UNK     0     154.523 156.397 152.579  0.00  0.00     0.074 A 
ENDROOT
BRANCH   5  12
HETATM   12  C   UNK     0     148.673 157.798 150.365  0.00  0.00     0.001 A 
HETATM   13  C   UNK     0     147.905 158.958 150.239  0.00  0.00     0.053 A 
HETATM   14  C   UNK     0     146.601 158.886 149.750  0.00  0.00     0.099 A 
HETATM   15  C   UNK     0     146.060 157.653 149.385  0.00  0.00     0.098 A 
HETATM   16  C   UNK     0     146.823 156.492 149.510  0.00  0.00     0.040 A 
HETATM   17  C   UNK     0     148.128 156.565 150.000  0.00  0.00     0.017 A 
BRANCH  14  18
HETATM   18  O   UNK     0     145.864 160.026 149.632  0.00  0.00    -0.358 OA
HETATM   19  H   UNK     0     146.307 160.729 150.137  0.00  0.00     0.217 HD
ENDBRANCH  14  18
BRANCH  15  20
HETATM   20  O   UNK     0     144.788 157.569 148.905  0.00  0.00    -0.358 OA
HETATM   21  H   UNK     0     144.699 158.163 148.140  0.00  0.00     0.217 HD
ENDBRANCH  15  20
ENDBRANCH   5  12
BRANCH   8  22
HETATM   22  O   UNK     0     154.744 158.749 152.592  0.00  0.00    -0.360 OA
HETATM   23  H   UNK     0     155.539 158.497 153.086  0.00  0.00     0.217 HD
ENDBRANCH   8  22
BRANCH  10  24
HETATM   24  O   UNK     0     154.319 154.019 152.572  0.00  0.00    -0.361 OA
HETATM   25  H   UNK     0     153.878 153.621 153.341  0.00  0.00     0.217 HD
ENDBRANCH  10  24
TORSDOF 5
ENDMDL
MODEL 8
REMARK VINA RESULT:      -7.5     10.317     13.195
REMARK  5 active torsions:
REMARK  status: ('A' for Active; 'I' for Inactive)
REMARK    1  A    between atoms: O_2  and  C_13 
REMARK    2  A    between atoms: O_4  and  C_16 
REMARK    3  A    between atoms: O_5  and  C_19 
REMARK    4  A    between atoms: O_6  and  C_21 
REMARK    5  A    between atoms: C_9  and  C_10 
ROOT
HETATM    1  O   UNK     0     149.756 149.315 142.139  0.00  0.00    -0.309 OA
HETATM    2  O   UNK     0     148.160 151.216 145.370  0.00  0.00    -0.287 OA
HETATM    3  C   UNK     0     150.052 150.842 144.005  0.00  0.00     0.081 A 
HETATM    4  C   UNK     0     150.533 150.162 142.889  0.00  0.00     0.095 A 
HETATM    5  C   UNK     0     148.436 149.123 142.517  0.00  0.00     0.090 A 
HETATM    6  C   UNK     0     148.649 150.649 144.403  0.00  0.00     0.190 A 
HETATM    7  C   UNK     0     147.855 149.726 143.566  0.00  0.00     0.094 A 
HETATM    8  C   UNK     0     150.890 151.692 144.730  0.00  0.00     0.085 A 
HETATM    9  C   UNK     0     151.859 150.328 142.489  0.00  0.00     0.075 A 
HETATM   10  C   UNK     0     152.699 151.177 143.210  0.00  0.00     0.071 A 
HETATM   11  C   UNK     0     152.216 151.857 144.328  0.00  0.00     0.074 A 
ENDROOT
BRANCH   5  12
HETATM   12  C   UNK     0     147.689 148.199 141.641  0.00  0.00     0.001 A 
HETATM   13  C   UNK     0     148.257 147.752 140.445  0.00  0.00     0.053 A 
HETATM   14  C   UNK     0     147.552 146.879 139.618  0.00  0.00     0.099 A 
HETATM   15  C   UNK     0     146.275 146.449 139.983  0.00  0.00     0.098 A 
HETATM   16  C   UNK     0     145.704 146.894 141.174  0.00  0.00     0.040 A 
HETATM   17  C   UNK     0     146.410 147.768 142.003  0.00  0.00     0.017 A 
BRANCH  14  18
HETATM   18  O   UNK     0     148.118 146.452 138.454  0.00  0.00    -0.358 OA
HETATM   19  H   UNK     0     148.193 147.212 137.853  0.00  0.00     0.217 HD
ENDBRANCH  14  18
BRANCH  15  20
HETATM   20  O   UNK     0     145.577 145.596 139.183  0.00  0.00    -0.358 OA
HETATM   21  H   UNK     0     145.527 145.971 138.288  0.00  0.00     0.217 HD
ENDBRANCH  15  20
ENDBRANCH   5  12
BRANCH   8  22
HETATM   22  O   UNK     0     150.466 152.379 145.828  0.00  0.00    -0.360 OA
HETATM   23  H   UNK     0     151.102 152.286 146.553  0.00  0.00     0.217 HD
ENDBRANCH   8  22
BRANCH  10  24
HETATM   24  O   UNK     0     153.995 151.342 142.822  0.00  0.00    -0.361 OA
HETATM   25  H   UNK     0     154.035 151.343 141.851  0.00  0.00     0.217 HD
ENDBRANCH  10  24
TORSDOF 5
ENDMDL
MODEL 9
REMARK VINA RESULT:      -7.5     23.810     24.457
REMARK  5 active torsions:
REMARK  status: ('A' for Active; 'I' for Inactive)
REMARK    1  A    between atoms: O_2  and  C_13 
REMARK    2  A    between atoms: O_4  and  C_16 
REMARK    3  A    between atoms: O_5  and  C_19 
REMARK    4  A    between atoms: O_6  and  C_21 
REMARK    5  A    between atoms: C_9  and  C_10 
ROOT
HETATM    1  O   UNK     0     149.834 171.049 131.276  0.00  0.00    -0.309 OA
HETATM    2  O   UNK     0     152.838 172.616 133.539  0.00  0.00    -0.287 OA
HETATM    3  C   UNK     0     150.539 172.615 132.994  0.00  0.00     0.081 A 
HETATM    4  C   UNK     0     149.560 172.035 132.189  0.00  0.00     0.095 A 
HETATM    5  C   UNK     0     151.146 170.618 131.143  0.00  0.00     0.090 A 
HETATM    6  C   UNK     0     151.929 172.154 132.863  0.00  0.00     0.190 A 
HETATM    7  C   UNK     0     152.174 171.093 131.864  0.00  0.00     0.094 A 
HETATM    8  C   UNK     0     150.200 173.615 133.908  0.00  0.00     0.085 A 
HETATM    9  C   UNK     0     148.233 172.452 132.295  0.00  0.00     0.075 A 
HETATM   10  C   UNK     0     147.891 173.451 133.207  0.00  0.00     0.071 A 
HETATM   11  C   UNK     0     148.872 174.031 134.011  0.00  0.00     0.074 A 
ENDROOT
BRANCH   5  12
HETATM   12  C   UNK     0     151.329 169.553 130.138  0.00  0.00     0.001 A 
HETATM   13  C   UNK     0     152.435 168.702 130.209  0.00  0.00     0.053 A 
HETATM   14  C   UNK     0     152.608 167.696 129.259  0.00  0.00     0.099 A 
HETATM   15  C   UNK     0     151.674 167.536 128.235  0.00  0.00     0.098 A 
HETATM   16  C   UNK     0     150.569 168.383 128.160  0.00  0.00     0.040 A 
HETATM   17  C   UNK     0     150.396 169.390 129.110  0.00  0.00     0.017 A 
BRANCH  14  18
HETATM   18  O   UNK     0     153.692 166.875 129.341  0.00  0.00    -0.358 OA
HETATM   19  H   UNK     0     154.373 167.321 129.873  0.00  0.00     0.217 HD
ENDBRANCH  14  18
BRANCH  15  20
HETATM   20  O   UNK     0     151.832 166.556 127.302  0.00  0.00    -0.358 OA
HETATM   21  H   UNK     0     152.460 165.895 127.640  0.00  0.00     0.217 HD
ENDBRANCH  15  20
ENDBRANCH   5  12
BRANCH   8  22
HETATM   22  O   UNK     0     151.120 174.212 134.716  0.00  0.00    -0.360 OA
HETATM   23  H   UNK     0     150.690 174.591 135.498  0.00  0.00     0.217 HD
ENDBRANCH   8  22
BRANCH  10  24
HETATM   24  O   UNK     0     146.596 173.861 133.312  0.00  0.00    -0.361 OA
HETATM   25  H   UNK     0     146.213 173.489 134.125  0.00  0.00     0.217 HD
ENDBRANCH  10  24
TORSDOF 5
ENDMDL
MODEL 10
REMARK VINA RESULT:      -7.5      1.604      6.661
REMARK  5 active torsions:
REMARK  status: ('A' for Active; 'I' for Inactive)
REMARK    1  A    between atoms: O_2  and  C_13 
REMARK    2  A    between atoms: O_4  and  C_16 
REMARK    3  A    between atoms: O_5  and  C_19 
REMARK    4  A    between atoms: O_6  and  C_21 
REMARK    5  A    between atoms: C_9  and  C_10 
ROOT
HETATM    1  O   UNK     0     151.499 157.102 151.372  0.00  0.00    -0.309 OA
HETATM    2  O   UNK     0     151.651 153.035 151.193  0.00  0.00    -0.287 OA
HETATM    3  C   UNK     0     152.776 155.057 151.671  0.00  0.00     0.081 A 
HETATM    4  C   UNK     0     152.655 156.445 151.711  0.00  0.00     0.095 A 
HETATM    5  C   UNK     0     150.407 156.351 150.964  0.00  0.00     0.090 A 
HETATM    6  C   UNK     0     151.617 154.256 151.248  0.00  0.00     0.190 A 
HETATM    7  C   UNK     0     150.397 155.010 150.891  0.00  0.00     0.094 A 
HETATM    8  C   UNK     0     153.978 154.443 152.028  0.00  0.00     0.085 A 
HETATM    9  C   UNK     0     153.738 157.228 152.109  0.00  0.00     0.075 A 
HETATM   10  C   UNK     0     154.940 156.618 152.467  0.00  0.00     0.071 A 
HETATM   11  C   UNK     0     155.060 155.229 152.426  0.00  0.00     0.074 A 
ENDROOT
BRANCH   5  12
HETATM   12  C   UNK     0     149.216 157.156 150.629  0.00  0.00     0.001 A 
HETATM   13  C   UNK     0     149.268 158.550 150.699  0.00  0.00     0.053 A 
HETATM   14  C   UNK     0     148.142 159.310 150.382  0.00  0.00     0.099 A 
HETATM   15  C   UNK     0     146.961 158.678 149.993  0.00  0.00     0.098 A 
HETATM   16  C   UNK     0     146.905 157.287 149.923  0.00  0.00     0.040 A 
HETATM   17  C   UNK     0     148.031 156.526 150.240  0.00  0.00     0.017 A 
BRANCH  14  18
HETATM   18  O   UNK     0     148.208 160.669 150.456  0.00  0.00    -0.358 OA
HETATM   19  H   UNK     0     149.083 160.950 150.140  0.00  0.00     0.217 HD
ENDBRANCH  14  18
BRANCH  15  20
HETATM   20  O   UNK     0     145.855 159.410 149.680  0.00  0.00    -0.358 OA
HETATM   21  H   UNK     0     145.850 159.583 148.724  0.00  0.00     0.217 HD
ENDBRANCH  15  20
ENDBRANCH   5  12
BRANCH   8  22
HETATM   22  O   UNK     0     154.145 153.091 152.006  0.00  0.00    -0.360 OA
HETATM   23  H   UNK     0     153.397 152.663 151.562  0.00  0.00     0.217 HD
ENDBRANCH   8  22
BRANCH  10  24
HETATM   24  O   UNK     0     156.000 157.380 152.857  0.00  0.00    -0.361 OA
HETATM   25  H   UNK     0     156.817 156.867 152.739  0.00  0.00     0.217 HD
ENDBRANCH  10  24
TORSDOF 5
ENDMDL
