MODEL 1
REMARK VINA RESULT:      -8.8      0.000      0.000
REMARK  13 active torsions:
REMARK  status: ('A' for Active; 'I' for Inactive)
REMARK    1  A    between atoms: O_2  and  C_16 
REMARK    2  A    between atoms: O_2  and  C_17 
REMARK    3  A    between atoms: O_4  and  C_12 
REMARK    4  A    between atoms: O_5  and  C_13 
REMARK    5  A    between atoms: O_6  and  C_15 
REMARK    6  A    between atoms: O_6  and  C_22 
REMARK    7  A    between atoms: O_7  and  C_14 
REMARK    8  A    between atoms: O_8  and  C_18 
REMARK    9  A    between atoms: O_9  and  C_19 
REMARK   10  A    between atoms: O_10  and  C_20 
REMARK   11  A    between atoms: C_11  and  C_16 
REMARK   12  A    between atoms: C_22  and  C_23 
REMARK   13  A    between atoms: C_24  and  C_25 
ROOT
HETATM    1  O   UNK     0      33.199   7.221  -6.057  0.00  0.00    -0.348 OA
HETATM    2  C   UNK     0      31.821   7.574  -6.178  0.00  0.00     0.180 C 
HETATM    3  C   UNK     0      31.043   6.427  -6.829  0.00  0.00     0.180 C 
HETATM    4  C   UNK     0      31.655   6.054  -8.179  0.00  0.00     0.183 C 
HETATM    5  C   UNK     0      33.168   5.857  -8.066  0.00  0.00     0.204 C 
HETATM    6  C   UNK     0      33.825   7.019  -7.322  0.00  0.00     0.291 C 
ENDROOT
BRANCH   2   7
HETATM    7  C   UNK     0      31.300   7.886  -4.778  0.00  0.00     0.205 C 
BRANCH   7   8
HETATM    8  O   UNK     0      30.999   9.267  -4.708  0.00  0.00    -0.356 OA
BRANCH   8   9
HETATM    9  C   UNK     0      29.612   9.516  -4.919  0.00  0.00     0.290 C 
HETATM   10  O   UNK     0      29.283  10.899  -4.745  0.00  0.00    -0.356 OA
HETATM   11  C   UNK     0      29.431  11.361  -3.404  0.00  0.00     0.205 C 
HETATM   12  C   UNK     0      28.516  10.585  -2.465  0.00  0.00     0.173 C 
HETATM   13  C   UNK     0      28.810   9.086  -2.542  0.00  0.00     0.182 C 
HETATM   14  C   UNK     0      28.773   8.615  -4.000  0.00  0.00     0.204 C 
BRANCH  12  15
HETATM   15  O   UNK     0      28.676  11.040  -1.129  0.00  0.00    -0.391 OA
HETATM   16  H   UNK     0      29.533  11.499  -1.076  0.00  0.00     0.210 HD
ENDBRANCH  12  15
BRANCH  13  17
HETATM   17  O   UNK     0      30.100   8.830  -1.989  0.00  0.00    -0.390 OA
HETATM   18  H   UNK     0      30.156   9.308  -1.144  0.00  0.00     0.210 HD
ENDBRANCH  13  17
BRANCH  14  19
HETATM   19  O   UNK     0      27.427   8.637  -4.470  0.00  0.00    -0.388 OA
HETATM   20  H   UNK     0      26.925   9.274  -3.935  0.00  0.00     0.210 HD
ENDBRANCH  14  19
ENDBRANCH   8   9
ENDBRANCH   7   8
ENDBRANCH   2   7
BRANCH   6  21
HETATM   21  O   UNK     0      35.202   6.696  -7.132  0.00  0.00    -0.355 OA
BRANCH  21  22
HETATM   22  C   UNK     0      35.355   5.515  -6.361  0.00  0.00     0.198 C 
BRANCH  22  23
HETATM   23  C   UNK     0      36.638   5.601  -5.598  0.00  0.00     0.000 C 
HETATM   24  C   UNK     0      37.027   6.701  -4.935  0.00  0.00     0.009 C 
BRANCH  24  25
HETATM   25  C   UNK     0      38.272   6.828  -4.158  0.00  0.00    -0.036 A 
HETATM   26  C   UNK     0      38.926   5.683  -3.730  0.00  0.00     0.011 A 
HETATM   27  C   UNK     0      40.105   5.803  -2.994  0.00  0.00     0.001 A 
HETATM   28  C   UNK     0      40.616   7.067  -2.698  0.00  0.00     0.000 A 
HETATM   29  C   UNK     0      39.948   8.210  -3.136  0.00  0.00     0.001 A 
HETATM   30  C   UNK     0      38.768   8.090  -3.871  0.00  0.00     0.011 A 
ENDBRANCH  24  25
ENDBRANCH  22  23
ENDBRANCH  21  22
ENDBRANCH   6  21
BRANCH   3  31
HETATM   31  O   UNK     0      29.688   6.824  -7.019  0.00  0.00    -0.390 OA
HETATM   32  H   UNK     0      29.373   6.429  -7.851  0.00  0.00     0.210 HD
ENDBRANCH   3  31
BRANCH   5  33
HETATM   33  O   UNK     0      33.734   5.784  -9.374  0.00  0.00    -0.388 OA
HETATM   34  H   UNK     0      33.428   4.961  -9.790  0.00  0.00     0.210 HD
ENDBRANCH   5  33
BRANCH   4  35
HETATM   35  O   UNK     0      31.049   4.837  -8.618  0.00  0.00    -0.390 OA
HETATM   36  H   UNK     0      31.541   4.104  -8.212  0.00  0.00     0.210 HD
ENDBRANCH   4  35
TORSDOF 13
ENDMDL
MODEL 2
REMARK VINA RESULT:      -8.7     17.683     20.010
REMARK  13 active torsions:
REMARK  status: ('A' for Active; 'I' for Inactive)
REMARK    1  A    between atoms: O_2  and  C_16 
REMARK    2  A    between atoms: O_2  and  C_17 
REMARK    3  A    between atoms: O_4  and  C_12 
REMARK    4  A    between atoms: O_5  and  C_13 
REMARK    5  A    between atoms: O_6  and  C_15 
REMARK    6  A    between atoms: O_6  and  C_22 
REMARK    7  A    between atoms: O_7  and  C_14 
REMARK    8  A    between atoms: O_8  and  C_18 
REMARK    9  A    between atoms: O_9  and  C_19 
REMARK   10  A    between atoms: O_10  and  C_20 
REMARK   11  A    between atoms: C_11  and  C_16 
REMARK   12  A    between atoms: C_22  and  C_23 
REMARK   13  A    between atoms: C_24  and  C_25 
ROOT
HETATM    1  O   UNK     0      37.057  -2.301  12.831  0.00  0.00    -0.348 OA
HETATM    2  C   UNK     0      35.715  -2.233  12.345  0.00  0.00     0.180 C 
HETATM    3  C   UNK     0      35.333  -3.557  11.680  0.00  0.00     0.180 C 
HETATM    4  C   UNK     0      36.322  -3.912  10.571  0.00  0.00     0.183 C 
HETATM    5  C   UNK     0      37.767  -3.803  11.061  0.00  0.00     0.204 C 
HETATM    6  C   UNK     0      38.009  -2.480  11.786  0.00  0.00     0.291 C 
ENDROOT
BRANCH   2   7
HETATM    7  C   UNK     0      34.811  -1.915  13.532  0.00  0.00     0.205 C 
BRANCH   7   8
HETATM    8  O   UNK     0      35.435  -0.917  14.319  0.00  0.00    -0.356 OA
BRANCH   8   9
HETATM    9  C   UNK     0      34.568   0.188  14.556  0.00  0.00     0.290 C 
HETATM   10  O   UNK     0      34.713   1.206  13.560  0.00  0.00    -0.356 OA
HETATM   11  C   UNK     0      35.980   1.859  13.585  0.00  0.00     0.205 C 
HETATM   12  C   UNK     0      36.206   2.543  14.927  0.00  0.00     0.173 C 
HETATM   13  C   UNK     0      36.111   1.531  16.070  0.00  0.00     0.182 C 
HETATM   14  C   UNK     0      34.802   0.742  15.970  0.00  0.00     0.204 C 
BRANCH  12  15
HETATM   15  O   UNK     0      37.475   3.180  14.951  0.00  0.00    -0.391 OA
HETATM   16  H   UNK     0      37.939   2.942  14.129  0.00  0.00     0.210 HD
ENDBRANCH  12  15
BRANCH  13  17
HETATM   17  O   UNK     0      37.217   0.632  15.997  0.00  0.00    -0.390 OA
HETATM   18  H   UNK     0      37.064   0.040  15.241  0.00  0.00     0.210 HD
ENDBRANCH  13  17
BRANCH  14  19
HETATM   19  O   UNK     0      33.708   1.598  16.294  0.00  0.00    -0.388 OA
HETATM   20  H   UNK     0      34.057   2.383  16.749  0.00  0.00     0.210 HD
ENDBRANCH  14  19
ENDBRANCH   8   9
ENDBRANCH   7   8
ENDBRANCH   2   7
BRANCH   6  21
HETATM   21  O   UNK     0      39.326  -2.513  12.333  0.00  0.00    -0.355 OA
BRANCH  21  22
HETATM   22  C   UNK     0      39.662  -1.278  12.946  0.00  0.00     0.198 C 
BRANCH  22  23
HETATM   23  C   UNK     0      39.304  -0.165  12.013  0.00  0.00     0.000 C 
HETATM   24  C   UNK     0      40.213   0.647  11.453  0.00  0.00     0.009 C 
BRANCH  24  25
HETATM   25  C   UNK     0      39.910   1.745  10.518  0.00  0.00    -0.036 A 
HETATM   26  C   UNK     0      38.737   2.466  10.675  0.00  0.00     0.011 A 
HETATM   27  C   UNK     0      38.449   3.505   9.790  0.00  0.00     0.001 A 
HETATM   28  C   UNK     0      39.339   3.810   8.761  0.00  0.00     0.000 A 
HETATM   29  C   UNK     0      40.515   3.076   8.615  0.00  0.00     0.001 A 
HETATM   30  C   UNK     0      40.803   2.036   9.500  0.00  0.00     0.011 A 
ENDBRANCH  24  25
ENDBRANCH  22  23
ENDBRANCH  21  22
ENDBRANCH   6  21
BRANCH   3  31
HETATM   31  O   UNK     0      34.024  -3.447  11.127  0.00  0.00    -0.390 OA
HETATM   32  H   UNK     0      34.070  -2.842  10.367  0.00  0.00     0.210 HD
ENDBRANCH   3  31
BRANCH   5  33
HETATM   33  O   UNK     0      38.652  -3.870   9.943  0.00  0.00    -0.388 OA
HETATM   34  H   UNK     0      38.658  -4.786   9.618  0.00  0.00     0.210 HD
ENDBRANCH   5  33
BRANCH   4  35
HETATM   35  O   UNK     0      36.060  -5.255  10.158  0.00  0.00    -0.390 OA
HETATM   36  H   UNK     0      35.265  -5.237   9.599  0.00  0.00     0.210 HD
ENDBRANCH   4  35
TORSDOF 13
ENDMDL
MODEL 3
REMARK VINA RESULT:      -8.6      2.190      3.417
REMARK  13 active torsions:
REMARK  status: ('A' for Active; 'I' for Inactive)
REMARK    1  A    between atoms: O_2  and  C_16 
REMARK    2  A    between atoms: O_2  and  C_17 
REMARK    3  A    between atoms: O_4  and  C_12 
REMARK    4  A    between atoms: O_5  and  C_13 
REMARK    5  A    between atoms: O_6  and  C_15 
REMARK    6  A    between atoms: O_6  and  C_22 
REMARK    7  A    between atoms: O_7  and  C_14 
REMARK    8  A    between atoms: O_8  and  C_18 
REMARK    9  A    between atoms: O_9  and  C_19 
REMARK   10  A    between atoms: O_10  and  C_20 
REMARK   11  A    between atoms: C_11  and  C_16 
REMARK   12  A    between atoms: C_22  and  C_23 
REMARK   13  A    between atoms: C_24  and  C_25 
ROOT
HETATM    1  O   UNK     0      33.504   7.275  -6.106  0.00  0.00    -0.348 OA
HETATM    2  C   UNK     0      32.131   7.669  -6.109  0.00  0.00     0.180 C 
HETATM    3  C   UNK     0      31.255   6.506  -6.580  0.00  0.00     0.180 C 
HETATM    4  C   UNK     0      31.707   6.007  -7.952  0.00  0.00     0.183 C 
HETATM    5  C   UNK     0      33.216   5.763  -7.983  0.00  0.00     0.204 C 
HETATM    6  C   UNK     0      33.983   6.953  -7.409  0.00  0.00     0.291 C 
ENDROOT
BRANCH   2   7
HETATM    7  C   UNK     0      31.774   8.108  -4.692  0.00  0.00     0.205 C 
BRANCH   7   8
HETATM    8  O   UNK     0      32.956   8.544  -4.045  0.00  0.00    -0.356 OA
BRANCH   8   9
HETATM    9  C   UNK     0      32.818   8.528  -2.628  0.00  0.00     0.290 C 
HETATM   10  O   UNK     0      33.990   9.022  -1.969  0.00  0.00    -0.356 OA
HETATM   11  C   UNK     0      35.134   8.188  -2.130  0.00  0.00     0.205 C 
HETATM   12  C   UNK     0      34.874   6.803  -1.551  0.00  0.00     0.173 C 
HETATM   13  C   UNK     0      33.656   6.160  -2.217  0.00  0.00     0.182 C 
HETATM   14  C   UNK     0      32.457   7.112  -2.153  0.00  0.00     0.204 C 
BRANCH  12  15
HETATM   15  O   UNK     0      36.013   5.972  -1.726  0.00  0.00    -0.391 OA
HETATM   16  H   UNK     0      36.468   5.912  -0.868  0.00  0.00     0.210 HD
ENDBRANCH  12  15
BRANCH  13  17
HETATM   17  O   UNK     0      33.962   5.868  -3.579  0.00  0.00    -0.390 OA
HETATM   18  H   UNK     0      34.148   6.712  -4.025  0.00  0.00     0.210 HD
ENDBRANCH  13  17
BRANCH  14  19
HETATM   19  O   UNK     0      31.996   7.203  -0.806  0.00  0.00    -0.388 OA
HETATM   20  H   UNK     0      32.647   6.770  -0.229  0.00  0.00     0.210 HD
ENDBRANCH  14  19
ENDBRANCH   8   9
ENDBRANCH   7   8
ENDBRANCH   2   7
BRANCH   6  21
HETATM   21  O   UNK     0      35.363   6.594  -7.340  0.00  0.00    -0.355 OA
BRANCH  21  22
HETATM   22  C   UNK     0      35.553   5.418  -6.570  0.00  0.00     0.198 C 
BRANCH  22  23
HETATM   23  C   UNK     0      36.753   5.604  -5.696  0.00  0.00     0.000 C 
HETATM   24  C   UNK     0      37.069   6.773  -5.119  0.00  0.00     0.009 C 
BRANCH  24  25
HETATM   25  C   UNK     0      38.230   7.001  -4.241  0.00  0.00    -0.036 A 
HETATM   26  C   UNK     0      38.912   5.912  -3.722  0.00  0.00     0.011 A 
HETATM   27  C   UNK     0      40.011   6.126  -2.890  0.00  0.00     0.001 A 
HETATM   28  C   UNK     0      40.414   7.427  -2.589  0.00  0.00     0.000 A 
HETATM   29  C   UNK     0      39.718   8.513  -3.119  0.00  0.00     0.001 A 
HETATM   30  C   UNK     0      38.618   8.299  -3.951  0.00  0.00     0.011 A 
ENDBRANCH  24  25
ENDBRANCH  22  23
ENDBRANCH  21  22
ENDBRANCH   6  21
BRANCH   3  31
HETATM   31  O   UNK     0      29.899   6.938  -6.658  0.00  0.00    -0.390 OA
HETATM   32  H   UNK     0      29.655   7.314  -5.794  0.00  0.00     0.210 HD
ENDBRANCH   3  31
BRANCH   5  33
HETATM   33  O   UNK     0      33.636   5.568  -9.334  0.00  0.00    -0.388 OA
HETATM   34  H   UNK     0      32.893   5.183  -9.828  0.00  0.00     0.210 HD
ENDBRANCH   5  33
BRANCH   4  35
HETATM   35  O   UNK     0      31.021   4.784  -8.226  0.00  0.00    -0.390 OA
HETATM   36  H   UNK     0      31.087   4.621  -9.182  0.00  0.00     0.210 HD
ENDBRANCH   4  35
TORSDOF 13
ENDMDL
MODEL 4
REMARK VINA RESULT:      -8.5      2.986      8.998
REMARK  13 active torsions:
REMARK  status: ('A' for Active; 'I' for Inactive)
REMARK    1  A    between atoms: O_2  and  C_16 
REMARK    2  A    between atoms: O_2  and  C_17 
REMARK    3  A    between atoms: O_4  and  C_12 
REMARK    4  A    between atoms: O_5  and  C_13 
REMARK    5  A    between atoms: O_6  and  C_15 
REMARK    6  A    between atoms: O_6  and  C_22 
REMARK    7  A    between atoms: O_7  and  C_14 
REMARK    8  A    between atoms: O_8  and  C_18 
REMARK    9  A    between atoms: O_9  and  C_19 
REMARK   10  A    between atoms: O_10  and  C_20 
REMARK   11  A    between atoms: C_11  and  C_16 
REMARK   12  A    between atoms: C_22  and  C_23 
REMARK   13  A    between atoms: C_24  and  C_25 
ROOT
HETATM    1  O   UNK     0      34.928   7.603  -5.546  0.00  0.00    -0.348 OA
HETATM    2  C   UNK     0      35.866   6.552  -5.309  0.00  0.00     0.180 C 
HETATM    3  C   UNK     0      36.109   5.767  -6.600  0.00  0.00     0.180 C 
HETATM    4  C   UNK     0      34.793   5.236  -7.167  0.00  0.00     0.183 C 
HETATM    5  C   UNK     0      33.738   6.340  -7.244  0.00  0.00     0.204 C 
HETATM    6  C   UNK     0      33.646   7.113  -5.930  0.00  0.00     0.291 C 
ENDROOT
BRANCH   2   7
HETATM    7  C   UNK     0      37.150   7.191  -4.786  0.00  0.00     0.205 C 
BRANCH   7   8
HETATM    8  O   UNK     0      37.958   6.177  -4.217  0.00  0.00    -0.356 OA
BRANCH   8   9
HETATM    9  C   UNK     0      38.213   6.417  -2.837  0.00  0.00     0.290 C 
HETATM   10  O   UNK     0      38.953   7.625  -2.631  0.00  0.00    -0.356 OA
HETATM   11  C   UNK     0      40.285   7.577  -3.138  0.00  0.00     0.205 C 
HETATM   12  C   UNK     0      41.080   6.471  -2.456  0.00  0.00     0.173 C 
HETATM   13  C   UNK     0      40.393   5.117  -2.648  0.00  0.00     0.182 C 
HETATM   14  C   UNK     0      38.925   5.205  -2.218  0.00  0.00     0.204 C 
BRANCH  12  15
HETATM   15  O   UNK     0      42.401   6.418  -2.975  0.00  0.00    -0.391 OA
HETATM   16  H   UNK     0      43.015   6.467  -2.221  0.00  0.00     0.210 HD
ENDBRANCH  12  15
BRANCH  13  17
HETATM   17  O   UNK     0      40.467   4.742  -4.022  0.00  0.00    -0.390 OA
HETATM   18  H   UNK     0      41.028   5.395  -4.474  0.00  0.00     0.210 HD
ENDBRANCH  13  17
BRANCH  14  19
HETATM   19  O   UNK     0      38.854   5.329  -0.799  0.00  0.00    -0.388 OA
HETATM   20  H   UNK     0      38.990   6.263  -0.565  0.00  0.00     0.210 HD
ENDBRANCH  14  19
ENDBRANCH   8   9
ENDBRANCH   7   8
ENDBRANCH   2   7
BRANCH   6  21
HETATM   21  O   UNK     0      32.751   8.207  -6.126  0.00  0.00    -0.355 OA
BRANCH  21  22
HETATM   22  C   UNK     0      32.996   9.249  -5.194  0.00  0.00     0.198 C 
BRANCH  22  23
HETATM   23  C   UNK     0      31.784   9.422  -4.336  0.00  0.00     0.000 C 
HETATM   24  C   UNK     0      30.568   8.969  -4.679  0.00  0.00     0.009 C 
BRANCH  24  25
HETATM   25  C   UNK     0      29.350   9.103  -3.862  0.00  0.00    -0.036 A 
HETATM   26  C   UNK     0      28.232   8.347  -4.179  0.00  0.00     0.011 A 
HETATM   27  C   UNK     0      27.078   8.474  -3.405  0.00  0.00     0.001 A 
HETATM   28  C   UNK     0      27.058   9.353  -2.324  0.00  0.00     0.000 A 
HETATM   29  C   UNK     0      28.190  10.107  -2.015  0.00  0.00     0.001 A 
HETATM   30  C   UNK     0      29.344   9.981  -2.789  0.00  0.00     0.011 A 
ENDBRANCH  24  25
ENDBRANCH  22  23
ENDBRANCH  21  22
ENDBRANCH   6  21
BRANCH   3  31
HETATM   31  O   UNK     0      36.982   4.673  -6.329  0.00  0.00    -0.390 OA
HETATM   32  H   UNK     0      37.042   4.131  -7.135  0.00  0.00     0.210 HD
ENDBRANCH   3  31
BRANCH   5  33
HETATM   33  O   UNK     0      32.463   5.757  -7.513  0.00  0.00    -0.388 OA
HETATM   34  H   UNK     0      32.562   4.791  -7.491  0.00  0.00     0.210 HD
ENDBRANCH   5  33
BRANCH   4  35
HETATM   35  O   UNK     0      35.050   4.730  -8.478  0.00  0.00    -0.390 OA
HETATM   36  H   UNK     0      34.676   5.364  -9.113  0.00  0.00     0.210 HD
ENDBRANCH   4  35
TORSDOF 13
ENDMDL
MODEL 5
REMARK VINA RESULT:      -8.4      1.162      2.027
REMARK  13 active torsions:
REMARK  status: ('A' for Active; 'I' for Inactive)
REMARK    1  A    between atoms: O_2  and  C_16 
REMARK    2  A    between atoms: O_2  and  C_17 
REMARK    3  A    between atoms: O_4  and  C_12 
REMARK    4  A    between atoms: O_5  and  C_13 
REMARK    5  A    between atoms: O_6  and  C_15 
REMARK    6  A    between atoms: O_6  and  C_22 
REMARK    7  A    between atoms: O_7  and  C_14 
REMARK    8  A    between atoms: O_8  and  C_18 
REMARK    9  A    between atoms: O_9  and  C_19 
REMARK   10  A    between atoms: O_10  and  C_20 
REMARK   11  A    between atoms: C_11  and  C_16 
REMARK   12  A    between atoms: C_22  and  C_23 
REMARK   13  A    between atoms: C_24  and  C_25 
ROOT
HETATM    1  O   UNK     0      33.998   7.269  -6.051  0.00  0.00    -0.348 OA
HETATM    2  C   UNK     0      32.693   7.715  -6.422  0.00  0.00     0.180 C 
HETATM    3  C   UNK     0      31.784   6.512  -6.685  0.00  0.00     0.180 C 
HETATM    4  C   UNK     0      32.393   5.593  -7.744  0.00  0.00     0.183 C 
HETATM    5  C   UNK     0      33.854   5.271  -7.424  0.00  0.00     0.204 C 
HETATM    6  C   UNK     0      34.642   6.537  -7.091  0.00  0.00     0.291 C 
ENDROOT
BRANCH   2   7
HETATM    7  C   UNK     0      32.163   8.585  -5.286  0.00  0.00     0.205 C 
BRANCH   7   8
HETATM    8  O   UNK     0      31.176   7.855  -4.582  0.00  0.00    -0.356 OA
BRANCH   8   9
HETATM    9  C   UNK     0      31.053   8.296  -3.234  0.00  0.00     0.290 C 
HETATM   10  O   UNK     0      30.066   7.551  -2.513  0.00  0.00    -0.356 OA
HETATM   11  C   UNK     0      28.735   7.759  -2.979  0.00  0.00     0.205 C 
HETATM   12  C   UNK     0      28.342   9.225  -2.843  0.00  0.00     0.173 C 
HETATM   13  C   UNK     0      29.316  10.118  -3.614  0.00  0.00     0.182 C 
HETATM   14  C   UNK     0      30.758   9.804  -3.202  0.00  0.00     0.204 C 
BRANCH  12  15
HETATM   15  O   UNK     0      27.020   9.430  -3.321  0.00  0.00    -0.391 OA
HETATM   16  H   UNK     0      26.691  10.258  -2.930  0.00  0.00     0.210 HD
ENDBRANCH  12  15
BRANCH  13  17
HETATM   17  O   UNK     0      29.159   9.888  -5.013  0.00  0.00    -0.390 OA
HETATM   18  H   UNK     0      29.728  10.524  -5.480  0.00  0.00     0.210 HD
ENDBRANCH  13  17
BRANCH  14  19
HETATM   19  O   UNK     0      30.982  10.269  -1.873  0.00  0.00    -0.388 OA
HETATM   20  H   UNK     0      30.523   9.673  -1.257  0.00  0.00     0.210 HD
ENDBRANCH  14  19
ENDBRANCH   8   9
ENDBRANCH   7   8
ENDBRANCH   2   7
BRANCH   6  21
HETATM   21  O   UNK     0      35.947   6.144  -6.668  0.00  0.00    -0.355 OA
BRANCH  21  22
HETATM   22  C   UNK     0      36.051   6.139  -5.252  0.00  0.00     0.198 C 
BRANCH  22  23
HETATM   23  C   UNK     0      37.383   6.699  -4.866  0.00  0.00     0.000 C 
HETATM   24  C   UNK     0      38.018   6.371  -3.731  0.00  0.00     0.009 C 
BRANCH  24  25
HETATM   25  C   UNK     0      39.336   6.884  -3.317  0.00  0.00    -0.036 A 
HETATM   26  C   UNK     0      40.325   5.990  -2.939  0.00  0.00     0.011 A 
HETATM   27  C   UNK     0      41.572   6.476  -2.546  0.00  0.00     0.001 A 
HETATM   28  C   UNK     0      41.814   7.849  -2.538  0.00  0.00     0.000 A 
HETATM   29  C   UNK     0      40.809   8.737  -2.921  0.00  0.00     0.001 A 
HETATM   30  C   UNK     0      39.561   8.252  -3.313  0.00  0.00     0.011 A 
ENDBRANCH  24  25
ENDBRANCH  22  23
ENDBRANCH  21  22
ENDBRANCH   6  21
BRANCH   3  31
HETATM   31  O   UNK     0      30.512   6.971  -7.134  0.00  0.00    -0.390 OA
HETATM   32  H   UNK     0      30.324   7.815  -6.689  0.00  0.00     0.210 HD
ENDBRANCH   3  31
BRANCH   5  33
HETATM   33  O   UNK     0      34.460   4.650  -8.557  0.00  0.00    -0.388 OA
HETATM   34  H   UNK     0      34.274   5.198  -9.337  0.00  0.00     0.210 HD
ENDBRANCH   5  33
BRANCH   4  35
HETATM   35  O   UNK     0      31.634   4.384  -7.769  0.00  0.00    -0.390 OA
HETATM   36  H   UNK     0      31.698   3.981  -6.887  0.00  0.00     0.210 HD
ENDBRANCH   4  35
TORSDOF 13
ENDMDL
MODEL 6
REMARK VINA RESULT:      -8.3      3.691      7.815
REMARK  13 active torsions:
REMARK  status: ('A' for Active; 'I' for Inactive)
REMARK    1  A    between atoms: O_2  and  C_16 
REMARK    2  A    between atoms: O_2  and  C_17 
REMARK    3  A    between atoms: O_4  and  C_12 
REMARK    4  A    between atoms: O_5  and  C_13 
REMARK    5  A    between atoms: O_6  and  C_15 
REMARK    6  A    between atoms: O_6  and  C_22 
REMARK    7  A    between atoms: O_7  and  C_14 
REMARK    8  A    between atoms: O_8  and  C_18 
REMARK    9  A    between atoms: O_9  and  C_19 
REMARK   10  A    between atoms: O_10  and  C_20 
REMARK   11  A    between atoms: C_11  and  C_16 
REMARK   12  A    between atoms: C_22  and  C_23 
REMARK   13  A    between atoms: C_24  and  C_25 
ROOT
HETATM    1  O   UNK     0      34.885   7.530  -5.510  0.00  0.00    -0.348 OA
HETATM    2  C   UNK     0      35.850   6.494  -5.326  0.00  0.00     0.180 C 
HETATM    3  C   UNK     0      36.067   5.743  -6.642  0.00  0.00     0.180 C 
HETATM    4  C   UNK     0      34.745   5.199  -7.181  0.00  0.00     0.183 C 
HETATM    5  C   UNK     0      33.667   6.284  -7.201  0.00  0.00     0.204 C 
HETATM    6  C   UNK     0      33.601   7.025  -5.866  0.00  0.00     0.291 C 
ENDROOT
BRANCH   2   7
HETATM    7  C   UNK     0      37.137   7.145  -4.828  0.00  0.00     0.205 C 
BRANCH   7   8
HETATM    8  O   UNK     0      37.957   6.142  -4.257  0.00  0.00    -0.356 OA
BRANCH   8   9
HETATM    9  C   UNK     0      38.188   6.375  -2.871  0.00  0.00     0.290 C 
HETATM   10  O   UNK     0      38.916   7.587  -2.645  0.00  0.00    -0.356 OA
HETATM   11  C   UNK     0      40.255   7.552  -3.131  0.00  0.00     0.205 C 
HETATM   12  C   UNK     0      41.047   6.447  -2.444  0.00  0.00     0.173 C 
HETATM   13  C   UNK     0      40.375   5.090  -2.655  0.00  0.00     0.182 C 
HETATM   14  C   UNK     0      38.899   5.164  -2.249  0.00  0.00     0.204 C 
BRANCH  12  15
HETATM   15  O   UNK     0      42.377   6.409  -2.941  0.00  0.00    -0.391 OA
HETATM   16  H   UNK     0      42.400   6.933  -3.761  0.00  0.00     0.210 HD
ENDBRANCH  12  15
BRANCH  13  17
HETATM   17  O   UNK     0      40.473   4.724  -4.031  0.00  0.00    -0.390 OA
HETATM   18  H   UNK     0      40.751   5.515  -4.525  0.00  0.00     0.210 HD
ENDBRANCH  13  17
BRANCH  14  19
HETATM   19  O   UNK     0      38.805   5.278  -0.830  0.00  0.00    -0.388 OA
HETATM   20  H   UNK     0      39.679   5.093  -0.448  0.00  0.00     0.210 HD
ENDBRANCH  14  19
ENDBRANCH   8   9
ENDBRANCH   7   8
ENDBRANCH   2   7
BRANCH   6  21
HETATM   21  O   UNK     0      32.680   8.106  -6.008  0.00  0.00    -0.355 OA
BRANCH  21  22
HETATM   22  C   UNK     0      31.682   8.071  -5.000  0.00  0.00     0.198 C 
BRANCH  22  23
HETATM   23  C   UNK     0      32.251   7.414  -3.783  0.00  0.00     0.000 C 
HETATM   24  C   UNK     0      32.792   8.097  -2.762  0.00  0.00     0.009 C 
BRANCH  24  25
HETATM   25  C   UNK     0      33.351   7.495  -1.539  0.00  0.00    -0.036 A 
HETATM   26  C   UNK     0      32.512   6.807  -0.677  0.00  0.00     0.011 A 
HETATM   27  C   UNK     0      33.041   6.237   0.482  0.00  0.00     0.001 A 
HETATM   28  C   UNK     0      34.402   6.362   0.761  0.00  0.00     0.000 A 
HETATM   29  C   UNK     0      35.234   7.056  -0.116  0.00  0.00     0.001 A 
HETATM   30  C   UNK     0      34.705   7.627  -1.275  0.00  0.00     0.011 A 
ENDBRANCH  24  25
ENDBRANCH  22  23
ENDBRANCH  21  22
ENDBRANCH   6  21
BRANCH   3  31
HETATM   31  O   UNK     0      36.969   4.660  -6.425  0.00  0.00    -0.390 OA
HETATM   32  H   UNK     0      37.843   5.035  -6.218  0.00  0.00     0.210 HD
ENDBRANCH   3  31
BRANCH   5  33
HETATM   33  O   UNK     0      32.395   5.683  -7.443  0.00  0.00    -0.388 OA
HETATM   34  H   UNK     0      31.775   6.005  -6.768  0.00  0.00     0.210 HD
ENDBRANCH   5  33
BRANCH   4  35
HETATM   35  O   UNK     0      34.970   4.728  -8.511  0.00  0.00    -0.390 OA
HETATM   36  H   UNK     0      35.530   5.384  -8.961  0.00  0.00     0.210 HD
ENDBRANCH   4  35
TORSDOF 13
ENDMDL
MODEL 7
REMARK VINA RESULT:      -8.2     13.600     17.275
REMARK  13 active torsions:
REMARK  status: ('A' for Active; 'I' for Inactive)
REMARK    1  A    between atoms: O_2  and  C_16 
REMARK    2  A    between atoms: O_2  and  C_17 
REMARK    3  A    between atoms: O_4  and  C_12 
REMARK    4  A    between atoms: O_5  and  C_13 
REMARK    5  A    between atoms: O_6  and  C_15 
REMARK    6  A    between atoms: O_6  and  C_22 
REMARK    7  A    between atoms: O_7  and  C_14 
REMARK    8  A    between atoms: O_8  and  C_18 
REMARK    9  A    between atoms: O_9  and  C_19 
REMARK   10  A    between atoms: O_10  and  C_20 
REMARK   11  A    between atoms: C_11  and  C_16 
REMARK   12  A    between atoms: C_22  and  C_23 
REMARK   13  A    between atoms: C_24  and  C_25 
ROOT
HETATM    1  O   UNK     0      24.756  -6.653  -4.885  0.00  0.00    -0.348 OA
HETATM    2  C   UNK     0      25.906  -7.499  -4.830  0.00  0.00     0.180 C 
HETATM    3  C   UNK     0      26.576  -7.560  -6.205  0.00  0.00     0.180 C 
HETATM    4  C   UNK     0      25.582  -8.018  -7.272  0.00  0.00     0.183 C 
HETATM    5  C   UNK     0      24.281  -7.219  -7.197  0.00  0.00     0.204 C 
HETATM    6  C   UNK     0      23.753  -7.150  -5.765  0.00  0.00     0.291 C 
ENDROOT
BRANCH   2   7
HETATM    7  C   UNK     0      26.845  -6.933  -3.769  0.00  0.00     0.205 C 
BRANCH   7   8
HETATM    8  O   UNK     0      27.557  -5.846  -4.332  0.00  0.00    -0.356 OA
BRANCH   8   9
HETATM    9  C   UNK     0      27.419  -4.663  -3.551  0.00  0.00     0.290 C 
HETATM   10  O   UNK     0      27.958  -3.515  -4.216  0.00  0.00    -0.356 OA
HETATM   11  C   UNK     0      29.373  -3.557  -4.380  0.00  0.00     0.205 C 
HETATM   12  C   UNK     0      30.068  -3.627  -3.026  0.00  0.00     0.173 C 
HETATM   13  C   UNK     0      29.592  -4.849  -2.238  0.00  0.00     0.182 C 
HETATM   14  C   UNK     0      28.061  -4.869  -2.171  0.00  0.00     0.204 C 
BRANCH  12  15
HETATM   15  O   UNK     0      31.477  -3.682  -3.194  0.00  0.00    -0.391 OA
HETATM   16  H   UNK     0      31.706  -4.587  -3.470  0.00  0.00     0.210 HD
ENDBRANCH  12  15
BRANCH  13  17
HETATM   17  O   UNK     0      30.057  -6.035  -2.881  0.00  0.00    -0.390 OA
HETATM   18  H   UNK     0      30.542  -6.556  -2.218  0.00  0.00     0.210 HD
ENDBRANCH  13  17
BRANCH  14  19
HETATM   19  O   UNK     0      27.612  -3.821  -1.314  0.00  0.00    -0.388 OA
HETATM   20  H   UNK     0      26.820  -4.130  -0.842  0.00  0.00     0.210 HD
ENDBRANCH  14  19
ENDBRANCH   8   9
ENDBRANCH   7   8
ENDBRANCH   2   7
BRANCH   6  21
HETATM   21  O   UNK     0      22.625  -6.276  -5.754  0.00  0.00    -0.355 OA
BRANCH  21  22
HETATM   22  C   UNK     0      23.026  -4.916  -5.690  0.00  0.00     0.198 C 
BRANCH  22  23
HETATM   23  C   UNK     0      22.174  -4.120  -6.626  0.00  0.00     0.000 C 
HETATM   24  C   UNK     0      20.920  -3.739  -6.337  0.00  0.00     0.009 C 
BRANCH  24  25
HETATM   25  C   UNK     0      20.050  -2.942  -7.219  0.00  0.00    -0.036 A 
HETATM   26  C   UNK     0      20.397  -2.782  -8.551  0.00  0.00     0.011 A 
HETATM   27  C   UNK     0      19.573  -2.028  -9.387  0.00  0.00     0.001 A 
HETATM   28  C   UNK     0      18.412  -1.445  -8.880  0.00  0.00     0.000 A 
HETATM   29  C   UNK     0      18.075  -1.616  -7.537  0.00  0.00     0.001 A 
HETATM   30  C   UNK     0      18.899  -2.370  -6.701  0.00  0.00     0.011 A 
ENDBRANCH  24  25
ENDBRANCH  22  23
ENDBRANCH  21  22
ENDBRANCH   6  21
BRANCH   3  31
HETATM   31  O   UNK     0      27.671  -8.471  -6.157  0.00  0.00    -0.390 OA
HETATM   32  H   UNK     0      27.388  -9.253  -5.651  0.00  0.00     0.210 HD
ENDBRANCH   3  31
BRANCH   5  33
HETATM   33  O   UNK     0      23.291  -7.849  -8.011  0.00  0.00    -0.388 OA
HETATM   34  H   UNK     0      22.423  -7.490  -7.762  0.00  0.00     0.210 HD
ENDBRANCH   5  33
BRANCH   4  35
HETATM   35  O   UNK     0      26.188  -7.823  -8.552  0.00  0.00    -0.390 OA
HETATM   36  H   UNK     0      25.790  -8.467  -9.162  0.00  0.00     0.210 HD
ENDBRANCH   4  35
TORSDOF 13
ENDMDL
MODEL 8
REMARK VINA RESULT:      -8.2     15.274     18.348
REMARK  13 active torsions:
REMARK  status: ('A' for Active; 'I' for Inactive)
REMARK    1  A    between atoms: O_2  and  C_16 
REMARK    2  A    between atoms: O_2  and  C_17 
REMARK    3  A    between atoms: O_4  and  C_12 
REMARK    4  A    between atoms: O_5  and  C_13 
REMARK    5  A    between atoms: O_6  and  C_15 
REMARK    6  A    between atoms: O_6  and  C_22 
REMARK    7  A    between atoms: O_7  and  C_14 
REMARK    8  A    between atoms: O_8  and  C_18 
REMARK    9  A    between atoms: O_9  and  C_19 
REMARK   10  A    between atoms: O_10  and  C_20 
REMARK   11  A    between atoms: C_11  and  C_16 
REMARK   12  A    between atoms: C_22  and  C_23 
REMARK   13  A    between atoms: C_24  and  C_25 
ROOT
HETATM    1  O   UNK     0      25.750  -7.124  -4.929  0.00  0.00    -0.348 OA
HETATM    2  C   UNK     0      25.565  -8.538  -4.837  0.00  0.00     0.180 C 
HETATM    3  C   UNK     0      25.976  -9.205  -6.152  0.00  0.00     0.180 C 
HETATM    4  C   UNK     0      25.207  -8.606  -7.328  0.00  0.00     0.183 C 
HETATM    5  C   UNK     0      25.265  -7.078  -7.307  0.00  0.00     0.204 C 
HETATM    6  C   UNK     0      24.922  -6.528  -5.924  0.00  0.00     0.291 C 
ENDROOT
BRANCH   2   7
HETATM    7  C   UNK     0      26.402  -9.037  -3.663  0.00  0.00     0.205 C 
BRANCH   7   8
HETATM    8  O   UNK     0      27.744  -9.173  -4.093  0.00  0.00    -0.356 OA
BRANCH   8   9
HETATM    9  C   UNK     0      28.539  -9.859  -3.132  0.00  0.00     0.290 C 
HETATM   10  O   UNK     0      28.666  -9.117  -1.913  0.00  0.00    -0.356 OA
HETATM   11  C   UNK     0      29.407  -7.907  -2.051  0.00  0.00     0.205 C 
HETATM   12  C   UNK     0      30.827  -8.198  -2.520  0.00  0.00     0.173 C 
HETATM   13  C   UNK     0      30.811  -8.960  -3.846  0.00  0.00     0.182 C 
HETATM   14  C   UNK     0      29.912 -10.196  -3.733  0.00  0.00     0.204 C 
BRANCH  12  15
HETATM   15  O   UNK     0      31.556  -6.988  -2.668  0.00  0.00    -0.391 OA
HETATM   16  H   UNK     0      32.218  -6.955  -1.956  0.00  0.00     0.210 HD
ENDBRANCH  12  15
BRANCH  13  17
HETATM   17  O   UNK     0      30.320  -8.104  -4.876  0.00  0.00    -0.390 OA
HETATM   18  H   UNK     0      30.577  -8.495  -5.729  0.00  0.00     0.210 HD
ENDBRANCH  13  17
BRANCH  14  19
HETATM   19  O   UNK     0      30.539 -11.161  -2.890  0.00  0.00    -0.388 OA
HETATM   20  H   UNK     0      31.216 -11.628  -3.408  0.00  0.00     0.210 HD
ENDBRANCH  14  19
ENDBRANCH   8   9
ENDBRANCH   7   8
ENDBRANCH   2   7
BRANCH   6  21
HETATM   21  O   UNK     0      25.136  -5.117  -5.946  0.00  0.00    -0.355 OA
BRANCH  21  22
HETATM   22  C   UNK     0      24.264  -4.448  -5.048  0.00  0.00     0.198 C 
BRANCH  22  23
HETATM   23  C   UNK     0      23.064  -3.978  -5.805  0.00  0.00     0.000 C 
HETATM   24  C   UNK     0      23.136  -3.381  -7.005  0.00  0.00     0.009 C 
BRANCH  24  25
HETATM   25  C   UNK     0      21.983  -2.915  -7.793  0.00  0.00    -0.036 A 
HETATM   26  C   UNK     0      22.111  -2.771  -9.165  0.00  0.00     0.011 A 
HETATM   27  C   UNK     0      21.019  -2.330  -9.913  0.00  0.00     0.001 A 
HETATM   28  C   UNK     0      19.812  -2.040  -9.277  0.00  0.00     0.000 A 
HETATM   29  C   UNK     0      19.697  -2.190  -7.895  0.00  0.00     0.001 A 
HETATM   30  C   UNK     0      20.789  -2.631  -7.148  0.00  0.00     0.011 A 
ENDBRANCH  24  25
ENDBRANCH  22  23
ENDBRANCH  21  22
ENDBRANCH   6  21
BRANCH   3  31
HETATM   31  O   UNK     0      25.708 -10.603  -6.075  0.00  0.00    -0.390 OA
HETATM   32  H   UNK     0      26.488 -11.037  -5.687  0.00  0.00     0.210 HD
ENDBRANCH   3  31
BRANCH   5  33
HETATM   33  O   UNK     0      24.323  -6.556  -8.244  0.00  0.00    -0.388 OA
HETATM   34  H   UNK     0      24.228  -7.199  -8.966  0.00  0.00     0.210 HD
ENDBRANCH   5  33
BRANCH   4  35
HETATM   35  O   UNK     0      25.800  -9.089  -8.535  0.00  0.00    -0.390 OA
HETATM   36  H   UNK     0      25.373  -9.936  -8.750  0.00  0.00     0.210 HD
ENDBRANCH   4  35
TORSDOF 13
ENDMDL
MODEL 9
REMARK VINA RESULT:      -8.1      2.671      7.025
REMARK  13 active torsions:
REMARK  status: ('A' for Active; 'I' for Inactive)
REMARK    1  A    between atoms: O_2  and  C_16 
REMARK    2  A    between atoms: O_2  and  C_17 
REMARK    3  A    between atoms: O_4  and  C_12 
REMARK    4  A    between atoms: O_5  and  C_13 
REMARK    5  A    between atoms: O_6  and  C_15 
REMARK    6  A    between atoms: O_6  and  C_22 
REMARK    7  A    between atoms: O_7  and  C_14 
REMARK    8  A    between atoms: O_8  and  C_18 
REMARK    9  A    between atoms: O_9  and  C_19 
REMARK   10  A    between atoms: O_10  and  C_20 
REMARK   11  A    between atoms: C_11  and  C_16 
REMARK   12  A    between atoms: C_22  and  C_23 
REMARK   13  A    between atoms: C_24  and  C_25 
ROOT
HETATM    1  O   UNK     0      34.369   7.382  -5.710  0.00  0.00    -0.348 OA
HETATM    2  C   UNK     0      35.437   6.753  -4.999  0.00  0.00     0.180 C 
HETATM    3  C   UNK     0      36.411   6.104  -5.986  0.00  0.00     0.180 C 
HETATM    4  C   UNK     0      35.682   5.122  -6.901  0.00  0.00     0.183 C 
HETATM    5  C   UNK     0      34.434   5.759  -7.515  0.00  0.00     0.204 C 
HETATM    6  C   UNK     0      33.584   6.452  -6.451  0.00  0.00     0.291 C 
ENDROOT
BRANCH   2   7
HETATM    7  C   UNK     0      36.120   7.823  -4.152  0.00  0.00     0.205 C 
BRANCH   7   8
HETATM    8  O   UNK     0      35.142   8.759  -3.735  0.00  0.00    -0.356 OA
BRANCH   8   9
HETATM    9  C   UNK     0      35.641  10.092  -3.767  0.00  0.00     0.290 C 
HETATM   10  O   UNK     0      35.065  10.905  -2.738  0.00  0.00    -0.356 OA
HETATM   11  C   UNK     0      33.670  11.143  -2.906  0.00  0.00     0.205 C 
HETATM   12  C   UNK     0      33.404  11.870  -4.218  0.00  0.00     0.173 C 
HETATM   13  C   UNK     0      33.948  11.065  -5.400  0.00  0.00     0.182 C 
HETATM   14  C   UNK     0      35.417  10.701  -5.159  0.00  0.00     0.204 C 
BRANCH  12  15
HETATM   15  O   UNK     0      32.012  12.093  -4.388  0.00  0.00    -0.391 OA
HETATM   16  H   UNK     0      31.801  11.941  -5.326  0.00  0.00     0.210 HD
ENDBRANCH  12  15
BRANCH  13  17
HETATM   17  O   UNK     0      33.179   9.873  -5.552  0.00  0.00    -0.390 OA
HETATM   18  H   UNK     0      32.300  10.131  -5.876  0.00  0.00     0.210 HD
ENDBRANCH  13  17
BRANCH  14  19
HETATM   19  O   UNK     0      36.218  11.877  -5.260  0.00  0.00    -0.388 OA
HETATM   20  H   UNK     0      36.311  12.262  -4.373  0.00  0.00     0.210 HD
ENDBRANCH  14  19
ENDBRANCH   8   9
ENDBRANCH   7   8
ENDBRANCH   2   7
BRANCH   6  21
HETATM   21  O   UNK     0      32.523   7.138  -7.114  0.00  0.00    -0.355 OA
BRANCH  21  22
HETATM   22  C   UNK     0      31.259   6.593  -6.768  0.00  0.00     0.198 C 
BRANCH  22  23
HETATM   23  C   UNK     0      30.710   7.356  -5.605  0.00  0.00     0.000 C 
HETATM   24  C   UNK     0      29.435   7.769  -5.531  0.00  0.00     0.009 C 
BRANCH  24  25
HETATM   25  C   UNK     0      28.846   8.508  -4.401  0.00  0.00    -0.036 A 
HETATM   26  C   UNK     0      29.557   9.550  -3.827  0.00  0.00     0.011 A 
HETATM   27  C   UNK     0      28.999  10.251  -2.757  0.00  0.00     0.001 A 
HETATM   28  C   UNK     0      27.738   9.900  -2.276  0.00  0.00     0.000 A 
HETATM   29  C   UNK     0      27.034   8.850  -2.864  0.00  0.00     0.001 A 
HETATM   30  C   UNK     0      27.592   8.149  -3.934  0.00  0.00     0.011 A 
ENDBRANCH  24  25
ENDBRANCH  22  23
ENDBRANCH  21  22
ENDBRANCH   6  21
BRANCH   3  31
HETATM   31  O   UNK     0      37.424   5.411  -5.261  0.00  0.00    -0.390 OA
HETATM   32  H   UNK     0      38.167   5.246  -5.868  0.00  0.00     0.210 HD
ENDBRANCH   3  31
BRANCH   5  33
HETATM   33  O   UNK     0      33.641   4.746  -8.133  0.00  0.00    -0.388 OA
HETATM   34  H   UNK     0      33.196   5.138  -8.903  0.00  0.00     0.210 HD
ENDBRANCH   5  33
BRANCH   4  35
HETATM   35  O   UNK     0      36.581   4.738  -7.943  0.00  0.00    -0.390 OA
HETATM   36  H   UNK     0      37.324   5.365  -7.932  0.00  0.00     0.210 HD
ENDBRANCH   4  35
TORSDOF 13
ENDMDL
