MODEL 1
REMARK VINA RESULT:      -9.4      0.000      0.000
REMARK  Name = 5320623
REMARK  11 active torsions:
REMARK  status: ('A' for Active; 'I' for Inactive)
REMARK    1  A    between atoms: O_2  and  C_16
REMARK    2  A    between atoms: O_2  and  C_18
REMARK    3  A    between atoms: O_3  and  C_12
REMARK    4  A    between atoms: O_4  and  C_13
REMARK    5  A    between atoms: O_5  and  C_14
REMARK    6  A    between atoms: O_6  and  C_17
REMARK    7  A    between atoms: O_8  and  C_20
REMARK    8  A    between atoms: O_9  and  C_23
REMARK    9  A    between atoms: O_11  and  C_32
REMARK   10  A    between atoms: C_15  and  C_17
REMARK   11  A    between atoms: C_25  and  C_27
REMARK                            x       y       z     vdW  Elec       q    Type
REMARK                         _______ _______ _______ _____ _____    ______ ____
ROOT
ATOM      7  O   UNL     1      77.081  34.036  36.590  0.00  0.00    +0.000 OA
ATOM     10  O   UNL     1      74.682  30.997  37.860  0.00  0.00    +0.000 OA
ATOM     18  C   UNL     1      74.795  33.898  33.755  0.00  0.00    +0.000 A 
ATOM     19  C   UNL     1      75.844  34.277  34.592  0.00  0.00    +0.000 A 
ATOM     20  C   UNL     1      73.936  32.865  34.132  0.00  0.00    +0.000 A 
ATOM     21  C   UNL     1      76.033  33.620  35.808  0.00  0.00    +0.000 A 
ATOM     22  C   UNL     1      75.173  32.588  36.183  0.00  0.00    +0.000 A 
ATOM     23  C   UNL     1      74.122  32.206  35.347  0.00  0.00    +0.000 A 
ATOM     24  C   UNL     1      75.395  31.912  37.470  0.00  0.00    +0.000 A 
ATOM     25  C   UNL     1      77.287  33.406  37.808  0.00  0.00    +0.000 A 
ATOM     26  C   UNL     1      76.534  32.398  38.275  0.00  0.00    +0.000 A 
ENDROOT
BRANCH  25  27
ATOM     27  C   UNL     1      78.444  33.927  38.563  0.00  0.00    +0.000 A 
ATOM     28  C   UNL     1      79.735  33.484  38.266  0.00  0.00    +0.000 A 
ATOM     29  C   UNL     1      78.252  34.864  39.582  0.00  0.00    +0.000 A 
ATOM     30  C   UNL     1      80.827  33.976  38.980  0.00  0.00    +0.000 A 
ATOM     31  C   UNL     1      79.344  35.357  40.297  0.00  0.00    +0.000 A 
ATOM     32  C   UNL     1      80.632  34.912  39.996  0.00  0.00    +0.000 A 
BRANCH  32  11
ATOM     11  O   UNL     1      81.698  35.392  40.694  0.00  0.00    +0.000 OA
ATOM     39  H   UNL     1      82.515  35.054  40.291  0.00  0.00    +0.000 HD
ENDBRANCH  32  11
ENDBRANCH  25  27
BRANCH  20   8
ATOM      8  O   UNL     1      72.912  32.500  33.305  0.00  0.00    +0.000 OA
ATOM     37  H   UNL     1      73.068  31.586  33.010  0.00  0.00    +0.000 HD
ENDBRANCH  20   8
BRANCH  23   9
ATOM      9  O   UNL     1      73.261  31.203  35.680  0.00  0.00    +0.000 OA
ATOM     38  H   UNL     1      72.652  31.015  34.949  0.00  0.00    +0.000 HD
ENDBRANCH  23   9
BRANCH  18   2
ATOM      2  O   UNL     1      74.620  34.548  32.567  0.00  0.00    +0.000 OA
BRANCH   2  16
ATOM      1  O   UNL     1      72.537  35.494  32.102  0.00  0.00    +0.000 OA
ATOM     12  C   UNL     1      73.723  38.063  31.604  0.00  0.00    +0.000 C 
ATOM     13  C   UNL     1      72.280  37.737  31.219  0.00  0.00    +0.000 C 
ATOM     14  C   UNL     1      74.560  36.790  31.743  0.00  0.00    +0.000 C 
ATOM     15  C   UNL     1      71.704  36.653  32.134  0.00  0.00    +0.000 C 
ATOM     16  C   UNL     1      73.848  35.747  32.604  0.00  0.00    +0.000 C 
BRANCH  12   3
ATOM      3  O   UNL     1      74.278  38.889  30.580  0.00  0.00    +0.000 OA
ATOM     33  H   UNL     1      75.243  38.773  30.604  0.00  0.00    +0.000 HD
ENDBRANCH  12   3
BRANCH  13   4
ATOM      4  O   UNL     1      71.486  38.915  31.326  0.00  0.00    +0.000 OA
ATOM     34  H   UNL     1      71.740  39.376  32.144  0.00  0.00    +0.000 HD
ENDBRANCH  13   4
BRANCH  14   5
ATOM      5  O   UNL     1      75.805  37.109  32.363  0.00  0.00    +0.000 OA
ATOM     35  H   UNL     1      76.147  36.303  32.786  0.00  0.00    +0.000 HD
ENDBRANCH  14   5
BRANCH  15  17
ATOM     17  C   UNL     1      70.307  36.227  31.697  0.00  0.00    +0.000 C 
BRANCH  17   6
ATOM      6  O   UNL     1      70.110  36.631  30.354  0.00  0.00    +0.000 OA
ATOM     36  H   UNL     1      70.036  37.601  30.347  0.00  0.00    +0.000 HD
ENDBRANCH  17   6
ENDBRANCH  15  17
ENDBRANCH   2  16
ENDBRANCH  18   2
TORSDOF 11
ENDMDL
MODEL 2
REMARK VINA RESULT:      -9.1     21.773     25.503
REMARK  Name = 5320623
REMARK  11 active torsions:
REMARK  status: ('A' for Active; 'I' for Inactive)
REMARK    1  A    between atoms: O_2  and  C_16
REMARK    2  A    between atoms: O_2  and  C_18
REMARK    3  A    between atoms: O_3  and  C_12
REMARK    4  A    between atoms: O_4  and  C_13
REMARK    5  A    between atoms: O_5  and  C_14
REMARK    6  A    between atoms: O_6  and  C_17
REMARK    7  A    between atoms: O_8  and  C_20
REMARK    8  A    between atoms: O_9  and  C_23
REMARK    9  A    between atoms: O_11  and  C_32
REMARK   10  A    between atoms: C_15  and  C_17
REMARK   11  A    between atoms: C_25  and  C_27
REMARK                            x       y       z     vdW  Elec       q    Type
REMARK                         _______ _______ _______ _____ _____    ______ ____
ROOT
ATOM      7  O   UNL     1      61.367  18.537  23.606  0.00  0.00    +0.000 OA
ATOM     10  O   UNL     1      63.146  22.060  24.618  0.00  0.00    +0.000 OA
ATOM     18  C   UNL     1      58.815  19.831  25.864  0.00  0.00    +0.000 A 
ATOM     19  C   UNL     1      59.500  19.000  24.977  0.00  0.00    +0.000 A 
ATOM     20  C   UNL     1      59.369  21.052  26.250  0.00  0.00    +0.000 A 
ATOM     21  C   UNL     1      60.741  19.395  24.475  0.00  0.00    +0.000 A 
ATOM     22  C   UNL     1      61.293  20.615  24.862  0.00  0.00    +0.000 A 
ATOM     23  C   UNL     1      60.610  21.449  25.751  0.00  0.00    +0.000 A 
ATOM     24  C   UNL     1      62.602  21.005  24.320  0.00  0.00    +0.000 A 
ATOM     25  C   UNL     1      62.597  18.906  23.086  0.00  0.00    +0.000 A 
ATOM     26  C   UNL     1      63.233  20.049  23.387  0.00  0.00    +0.000 A 
ENDROOT
BRANCH  25  27
ATOM     27  C   UNL     1      63.184  17.909  22.168  0.00  0.00    +0.000 A 
ATOM     28  C   UNL     1      62.672  16.610  22.122  0.00  0.00    +0.000 A 
ATOM     29  C   UNL     1      64.256  18.260  21.343  0.00  0.00    +0.000 A 
ATOM     30  C   UNL     1      63.227  15.669  21.255  0.00  0.00    +0.000 A 
ATOM     31  C   UNL     1      64.810  17.319  20.476  0.00  0.00    +0.000 A 
ATOM     32  C   UNL     1      64.296  16.023  20.433  0.00  0.00    +0.000 A 
BRANCH  32  11
ATOM     11  O   UNL     1      64.838  15.104  19.587  0.00  0.00    +0.000 OA
ATOM     39  H   UNL     1      64.765  14.223  19.991  0.00  0.00    +0.000 HD
ENDBRANCH  32  11
ENDBRANCH  25  27
BRANCH  20   8
ATOM      8  O   UNL     1      58.692  21.857  27.120  0.00  0.00    +0.000 OA
ATOM     37  H   UNL     1      58.434  22.669  26.649  0.00  0.00    +0.000 HD
ENDBRANCH  20   8
BRANCH  23   9
ATOM      9  O   UNL     1      61.117  22.649  26.151  0.00  0.00    +0.000 OA
ATOM     38  H   UNL     1      60.432  23.335  26.131  0.00  0.00    +0.000 HD
ENDBRANCH  23   9
BRANCH  18   2
ATOM      2  O   UNL     1      57.601  19.436  26.348  0.00  0.00    +0.000 OA
BRANCH   2  16
ATOM      1  O   UNL     1      56.468  17.417  26.646  0.00  0.00    +0.000 OA
ATOM     12  C   UNL     1      57.256  17.286  29.405  0.00  0.00    +0.000 C 
ATOM     13  C   UNL     1      56.168  16.385  28.819  0.00  0.00    +0.000 C 
ATOM     14  C   UNL     1      57.444  18.547  28.561  0.00  0.00    +0.000 C 
ATOM     15  C   UNL     1      56.397  16.161  27.322  0.00  0.00    +0.000 C 
ATOM     16  C   UNL     1      57.573  18.209  27.076  0.00  0.00    +0.000 C 
BRANCH  12   3
ATOM      3  O   UNL     1      56.860  17.652  30.728  0.00  0.00    +0.000 OA
ATOM     33  H   UNL     1      56.717  16.830  31.227  0.00  0.00    +0.000 HD
ENDBRANCH  12   3
BRANCH  13   4
ATOM      4  O   UNL     1      56.183  15.129  29.491  0.00  0.00    +0.000 OA
ATOM     34  H   UNL     1      55.630  14.510  28.984  0.00  0.00    +0.000 HD
ENDBRANCH  13   4
BRANCH  14   5
ATOM      5  O   UNL     1      58.635  19.218  28.973  0.00  0.00    +0.000 OA
ATOM     35  H   UNL     1      59.108  19.510  28.176  0.00  0.00    +0.000 HD
ENDBRANCH  14   5
BRANCH  15  17
ATOM     17  C   UNL     1      55.262  15.363  26.690  0.00  0.00    +0.000 C 
BRANCH  17   6
ATOM      6  O   UNL     1      54.074  16.128  26.765  0.00  0.00    +0.000 OA
ATOM     36  H   UNL     1      54.186  16.903  26.187  0.00  0.00    +0.000 HD
ENDBRANCH  17   6
ENDBRANCH  15  17
ENDBRANCH   2  16
ENDBRANCH  18   2
TORSDOF 11
ENDMDL
MODEL 3
REMARK VINA RESULT:      -8.9      2.344      3.868
REMARK  Name = 5320623
REMARK  11 active torsions:
REMARK  status: ('A' for Active; 'I' for Inactive)
REMARK    1  A    between atoms: O_2  and  C_16
REMARK    2  A    between atoms: O_2  and  C_18
REMARK    3  A    between atoms: O_3  and  C_12
REMARK    4  A    between atoms: O_4  and  C_13
REMARK    5  A    between atoms: O_5  and  C_14
REMARK    6  A    between atoms: O_6  and  C_17
REMARK    7  A    between atoms: O_8  and  C_20
REMARK    8  A    between atoms: O_9  and  C_23
REMARK    9  A    between atoms: O_11  and  C_32
REMARK   10  A    between atoms: C_15  and  C_17
REMARK   11  A    between atoms: C_25  and  C_27
REMARK                            x       y       z     vdW  Elec       q    Type
REMARK                         _______ _______ _______ _____ _____    ______ ____
ROOT
ATOM      7  O   UNL     1      73.888  33.560  35.179  0.00  0.00    +0.000 OA
ATOM     10  O   UNL     1      71.977  30.068  34.311  0.00  0.00    +0.000 OA
ATOM     18  C   UNL     1      71.406  34.842  32.838  0.00  0.00    +0.000 A 
ATOM     19  C   UNL     1      72.470  34.781  33.739  0.00  0.00    +0.000 A 
ATOM     20  C   UNL     1      70.709  33.681  32.500  0.00  0.00    +0.000 A 
ATOM     21  C   UNL     1      72.835  33.557  34.300  0.00  0.00    +0.000 A 
ATOM     22  C   UNL     1      72.137  32.399  33.961  0.00  0.00    +0.000 A 
ATOM     23  C   UNL     1      71.072  32.456  33.059  0.00  0.00    +0.000 A 
ATOM     24  C   UNL     1      72.543  31.123  34.566  0.00  0.00    +0.000 A 
ATOM     25  C   UNL     1      74.268  32.360  35.759  0.00  0.00    +0.000 A 
ATOM     26  C   UNL     1      73.680  31.179  35.507  0.00  0.00    +0.000 A 
ENDROOT
BRANCH  25  27
ATOM     27  C   UNL     1      75.414  32.476  36.683  0.00  0.00    +0.000 A 
ATOM     28  C   UNL     1      76.263  33.583  36.613  0.00  0.00    +0.000 A 
ATOM     29  C   UNL     1      75.656  31.476  37.629  0.00  0.00    +0.000 A 
ATOM     30  C   UNL     1      77.346  33.691  37.485  0.00  0.00    +0.000 A 
ATOM     31  C   UNL     1      76.739  31.585  38.502  0.00  0.00    +0.000 A 
ATOM     32  C   UNL     1      77.584  32.692  38.429  0.00  0.00    +0.000 A 
BRANCH  32  11
ATOM     11  O   UNL     1      78.641  32.798  39.281  0.00  0.00    +0.000 OA
ATOM     39  H   UNL     1      78.851  33.739  39.406  0.00  0.00    +0.000 HD
ENDBRANCH  32  11
ENDBRANCH  25  27
BRANCH  20   8
ATOM      8  O   UNL     1      69.670  33.750  31.617  0.00  0.00    +0.000 OA
ATOM     37  H   UNL     1      69.975  33.408  30.758  0.00  0.00    +0.000 HD
ENDBRANCH  20   8
BRANCH  23   9
ATOM      9  O   UNL     1      70.366  31.346  32.704  0.00  0.00    +0.000 OA
ATOM     38  H   UNL     1      70.902  30.760  32.147  0.00  0.00    +0.000 HD
ENDBRANCH  23   9
BRANCH  18   2
ATOM      2  O   UNL     1      71.057  36.045  32.295  0.00  0.00    +0.000 OA
BRANCH   2  16
ATOM      1  O   UNL     1      72.131  38.077  31.891  0.00  0.00    +0.000 OA
ATOM     12  C   UNL     1      72.590  37.383  29.141  0.00  0.00    +0.000 C 
ATOM     13  C   UNL     1      72.774  38.806  29.670  0.00  0.00    +0.000 C 
ATOM     14  C   UNL     1      71.656  36.574  30.043  0.00  0.00    +0.000 C 
ATOM     15  C   UNL     1      73.128  38.791  31.159  0.00  0.00    +0.000 C 
ATOM     16  C   UNL     1      72.052  36.704  31.514  0.00  0.00    +0.000 C 
BRANCH  12   3
ATOM      3  O   UNL     1      72.030  37.469  27.830  0.00  0.00    +0.000 OA
ATOM     33  H   UNL     1      71.578  38.327  27.762  0.00  0.00    +0.000 HD
ENDBRANCH  12   3
BRANCH  13   4
ATOM      4  O   UNL     1      73.818  39.448  28.944  0.00  0.00    +0.000 OA
ATOM     34  H   UNL     1      74.651  38.988  29.146  0.00  0.00    +0.000 HD
ENDBRANCH  13   4
BRANCH  14   5
ATOM      5  O   UNL     1      71.726  35.196  29.681  0.00  0.00    +0.000 OA
ATOM     35  H   UNL     1      71.313  35.091  28.808  0.00  0.00    +0.000 HD
ENDBRANCH  14   5
BRANCH  15  17
ATOM     17  C   UNL     1      73.202  40.200  31.738  0.00  0.00    +0.000 C 
BRANCH  17   6
ATOM      6  O   UNL     1      72.085  40.937  31.275  0.00  0.00    +0.000 OA
ATOM     36  H   UNL     1      71.301  40.369  31.363  0.00  0.00    +0.000 HD
ENDBRANCH  17   6
ENDBRANCH  15  17
ENDBRANCH   2  16
ENDBRANCH  18   2
TORSDOF 11
ENDMDL
MODEL 4
REMARK VINA RESULT:      -8.7     20.381     22.954
REMARK  Name = 5320623
REMARK  11 active torsions:
REMARK  status: ('A' for Active; 'I' for Inactive)
REMARK    1  A    between atoms: O_2  and  C_16
REMARK    2  A    between atoms: O_2  and  C_18
REMARK    3  A    between atoms: O_3  and  C_12
REMARK    4  A    between atoms: O_4  and  C_13
REMARK    5  A    between atoms: O_5  and  C_14
REMARK    6  A    between atoms: O_6  and  C_17
REMARK    7  A    between atoms: O_8  and  C_20
REMARK    8  A    between atoms: O_9  and  C_23
REMARK    9  A    between atoms: O_11  and  C_32
REMARK   10  A    between atoms: C_15  and  C_17
REMARK   11  A    between atoms: C_25  and  C_27
REMARK                            x       y       z     vdW  Elec       q    Type
REMARK                         _______ _______ _______ _____ _____    ______ ____
ROOT
ATOM      7  O   UNL     1      75.051  33.723  13.737  0.00  0.00    +0.000 OA
ATOM     10  O   UNL     1      71.944  32.132  15.839  0.00  0.00    +0.000 OA
ATOM     18  C   UNL     1      72.466  36.128  12.831  0.00  0.00    +0.000 A 
ATOM     19  C   UNL     1      73.695  35.473  12.913  0.00  0.00    +0.000 A 
ATOM     20  C   UNL     1      71.362  35.635  13.528  0.00  0.00    +0.000 A 
ATOM     21  C   UNL     1      73.818  34.324  13.695  0.00  0.00    +0.000 A 
ATOM     22  C   UNL     1      72.714  33.833  14.390  0.00  0.00    +0.000 A 
ATOM     23  C   UNL     1      71.482  34.486  14.310  0.00  0.00    +0.000 A 
ATOM     24  C   UNL     1      72.871  32.619  15.205  0.00  0.00    +0.000 A 
ATOM     25  C   UNL     1      75.204  32.584  14.512  0.00  0.00    +0.000 A 
ATOM     26  C   UNL     1      74.217  32.013  15.220  0.00  0.00    +0.000 A 
ENDROOT
BRANCH  25  27
ATOM     27  C   UNL     1      76.568  32.017  14.481  0.00  0.00    +0.000 A 
ATOM     28  C   UNL     1      77.527  32.542  13.613  0.00  0.00    +0.000 A 
ATOM     29  C   UNL     1      76.902  30.950  15.319  0.00  0.00    +0.000 A 
ATOM     30  C   UNL     1      78.814  32.006  13.584  0.00  0.00    +0.000 A 
ATOM     31  C   UNL     1      78.190  30.413  15.290  0.00  0.00    +0.000 A 
ATOM     32  C   UNL     1      79.145  30.941  14.422  0.00  0.00    +0.000 A 
BRANCH  32  11
ATOM     11  O   UNL     1      80.402  30.417  14.393  0.00  0.00    +0.000 OA
ATOM     39  H   UNL     1      81.036  31.107  14.650  0.00  0.00    +0.000 HD
ENDBRANCH  32  11
ENDBRANCH  25  27
BRANCH  20   8
ATOM      8  O   UNL     1      70.163  36.282  13.441  0.00  0.00    +0.000 OA
ATOM     37  H   UNL     1      69.563  35.741  12.898  0.00  0.00    +0.000 HD
ENDBRANCH  20   8
BRANCH  23   9
ATOM      9  O   UNL     1      70.381  34.037  14.976  0.00  0.00    +0.000 OA
ATOM     38  H   UNL     1      69.609  34.590  14.778  0.00  0.00    +0.000 HD
ENDBRANCH  23   9
BRANCH  18   2
ATOM      2  O   UNL     1      72.358  37.252  12.064  0.00  0.00    +0.000 OA
BRANCH   2  16
ATOM      1  O   UNL     1      73.822  38.478  10.723  0.00  0.00    +0.000 OA
ATOM     12  C   UNL     1      72.768  37.281   8.333  0.00  0.00    +0.000 C 
ATOM     13  C   UNL     1      73.673  38.513   8.303  0.00  0.00    +0.000 C 
ATOM     14  C   UNL     1      72.084  37.129   9.693  0.00  0.00    +0.000 C 
ATOM     15  C   UNL     1      74.596  38.540   9.524  0.00  0.00    +0.000 C 
ATOM     16  C   UNL     1      73.088  37.261  10.838  0.00  0.00    +0.000 C 
BRANCH  12   3
ATOM      3  O   UNL     1      71.778  37.435   7.316  0.00  0.00    +0.000 OA
ATOM     33  H   UNL     1      71.743  38.379   7.085  0.00  0.00    +0.000 HD
ENDBRANCH  12   3
BRANCH  13   4
ATOM      4  O   UNL     1      74.461  38.491   7.117  0.00  0.00    +0.000 OA
ATOM     34  H   UNL     1      73.862  38.587   6.356  0.00  0.00    +0.000 HD
ENDBRANCH  13   4
BRANCH  14   5
ATOM      5  O   UNL     1      71.478  35.840   9.775  0.00  0.00    +0.000 OA
ATOM     35  H   UNL     1      71.140  35.722  10.679  0.00  0.00    +0.000 HD
ENDBRANCH  14   5
BRANCH  15  17
ATOM     17  C   UNL     1      75.425  39.819   9.578  0.00  0.00    +0.000 C 
BRANCH  17   6
ATOM      6  O   UNL     1      76.149  39.837  10.794  0.00  0.00    +0.000 OA
ATOM     36  H   UNL     1      75.753  39.172  11.383  0.00  0.00    +0.000 HD
ENDBRANCH  17   6
ENDBRANCH  15  17
ENDBRANCH   2  16
ENDBRANCH  18   2
TORSDOF 11
ENDMDL
MODEL 5
REMARK VINA RESULT:      -8.6      3.306      5.753
REMARK  Name = 5320623
REMARK  11 active torsions:
REMARK  status: ('A' for Active; 'I' for Inactive)
REMARK    1  A    between atoms: O_2  and  C_16
REMARK    2  A    between atoms: O_2  and  C_18
REMARK    3  A    between atoms: O_3  and  C_12
REMARK    4  A    between atoms: O_4  and  C_13
REMARK    5  A    between atoms: O_5  and  C_14
REMARK    6  A    between atoms: O_6  and  C_17
REMARK    7  A    between atoms: O_8  and  C_20
REMARK    8  A    between atoms: O_9  and  C_23
REMARK    9  A    between atoms: O_11  and  C_32
REMARK   10  A    between atoms: C_15  and  C_17
REMARK   11  A    between atoms: C_25  and  C_27
REMARK                            x       y       z     vdW  Elec       q    Type
REMARK                         _______ _______ _______ _____ _____    ______ ____
ROOT
ATOM      7  O   UNL     1      72.337  33.923  33.715  0.00  0.00    +0.000 OA
ATOM     10  O   UNL     1      69.864  31.338  31.765  0.00  0.00    +0.000 OA
ATOM     18  C   UNL     1      70.689  36.291  31.489  0.00  0.00    +0.000 A 
ATOM     19  C   UNL     1      71.527  35.757  32.468  0.00  0.00    +0.000 A 
ATOM     20  C   UNL     1      69.816  35.460  30.785  0.00  0.00    +0.000 A 
ATOM     21  C   UNL     1      71.490  34.390  32.742  0.00  0.00    +0.000 A 
ATOM     22  C   UNL     1      70.618  33.561  32.037  0.00  0.00    +0.000 A 
ATOM     23  C   UNL     1      69.778  34.091  31.056  0.00  0.00    +0.000 A 
ATOM     24  C   UNL     1      70.601  32.123  32.345  0.00  0.00    +0.000 A 
ATOM     25  C   UNL     1      72.317  32.569  34.014  0.00  0.00    +0.000 A 
ATOM     26  C   UNL     1      71.529  31.671  33.402  0.00  0.00    +0.000 A 
ENDROOT
BRANCH  25  27
ATOM     27  C   UNL     1      73.271  32.174  35.070  0.00  0.00    +0.000 A 
ATOM     28  C   UNL     1      74.259  33.066  35.493  0.00  0.00    +0.000 A 
ATOM     29  C   UNL     1      73.191  30.905  35.648  0.00  0.00    +0.000 A 
ATOM     30  C   UNL     1      75.160  32.692  36.490  0.00  0.00    +0.000 A 
ATOM     31  C   UNL     1      74.092  30.531  36.645  0.00  0.00    +0.000 A 
ATOM     32  C   UNL     1      75.077  31.424  37.066  0.00  0.00    +0.000 A 
BRANCH  32  11
ATOM     11  O   UNL     1      75.956  31.059  38.039  0.00  0.00    +0.000 OA
ATOM     39  H   UNL     1      76.838  31.400  37.810  0.00  0.00    +0.000 HD
ENDBRANCH  32  11
ENDBRANCH  25  27
BRANCH  20   8
ATOM      8  O   UNL     1      69.000  35.990  29.828  0.00  0.00    +0.000 OA
ATOM     37  H   UNL     1      68.898  35.336  29.115  0.00  0.00    +0.000 HD
ENDBRANCH  20   8
BRANCH  23   9
ATOM      9  O   UNL     1      68.912  33.313  30.348  0.00  0.00    +0.000 OA
ATOM     38  H   UNL     1      68.015  33.379  30.711  0.00  0.00    +0.000 HD
ENDBRANCH  23   9
BRANCH  18   2
ATOM      2  O   UNL     1      70.732  37.630  31.229  0.00  0.00    +0.000 OA
BRANCH   2  16
ATOM      1  O   UNL     1      72.683  37.015  30.105  0.00  0.00    +0.000 OA
ATOM     12  C   UNL     1      73.684  39.707  30.199  0.00  0.00    +0.000 C 
ATOM     13  C   UNL     1      74.566  38.516  29.822  0.00  0.00    +0.000 C 
ATOM     14  C   UNL     1      72.467  39.259  31.010  0.00  0.00    +0.000 C 
ATOM     15  C   UNL     1      73.728  37.392  29.208  0.00  0.00    +0.000 C 
ATOM     16  C   UNL     1      71.761  38.076  30.347  0.00  0.00    +0.000 C 
BRANCH  12   3
ATOM      3  O   UNL     1      74.470  40.609  30.978  0.00  0.00    +0.000 OA
ATOM     33  H   UNL     1      74.341  41.500  30.609  0.00  0.00    +0.000 HD
ENDBRANCH  12   3
BRANCH  13   4
ATOM      4  O   UNL     1      75.551  38.937  28.883  0.00  0.00    +0.000 OA
ATOM     34  H   UNL     1      75.890  38.146  28.429  0.00  0.00    +0.000 HD
ENDBRANCH  13   4
BRANCH  14   5
ATOM      5  O   UNL     1      71.539  40.339  31.103  0.00  0.00    +0.000 OA
ATOM     35  H   UNL     1      71.421  40.557  32.043  0.00  0.00    +0.000 HD
ENDBRANCH  14   5
BRANCH  15  17
ATOM     17  C   UNL     1      74.566  36.148  28.932  0.00  0.00    +0.000 C 
BRANCH  17   6
ATOM      6  O   UNL     1      74.687  35.408  30.133  0.00  0.00    +0.000 OA
ATOM     36  H   UNL     1      74.902  36.035  30.844  0.00  0.00    +0.000 HD
ENDBRANCH  17   6
ENDBRANCH  15  17
ENDBRANCH   2  16
ENDBRANCH  18   2
TORSDOF 11
ENDMDL
MODEL 6
REMARK VINA RESULT:      -8.5     20.636     24.180
REMARK  Name = 5320623
REMARK  11 active torsions:
REMARK  status: ('A' for Active; 'I' for Inactive)
REMARK    1  A    between atoms: O_2  and  C_16
REMARK    2  A    between atoms: O_2  and  C_18
REMARK    3  A    between atoms: O_3  and  C_12
REMARK    4  A    between atoms: O_4  and  C_13
REMARK    5  A    between atoms: O_5  and  C_14
REMARK    6  A    between atoms: O_6  and  C_17
REMARK    7  A    between atoms: O_8  and  C_20
REMARK    8  A    between atoms: O_9  and  C_23
REMARK    9  A    between atoms: O_11  and  C_32
REMARK   10  A    between atoms: C_15  and  C_17
REMARK   11  A    between atoms: C_25  and  C_27
REMARK                            x       y       z     vdW  Elec       q    Type
REMARK                         _______ _______ _______ _____ _____    ______ ____
ROOT
ATOM      7  O   UNL     1      64.714  16.968  23.416  0.00  0.00    +0.000 OA
ATOM     10  O   UNL     1      64.336  15.900  19.502  0.00  0.00    +0.000 OA
ATOM     18  C   UNL     1      68.203  16.193  22.704  0.00  0.00    +0.000 A 
ATOM     19  C   UNL     1      67.042  16.576  23.376  0.00  0.00    +0.000 A 
ATOM     20  C   UNL     1      68.142  15.817  21.361  0.00  0.00    +0.000 A 
ATOM     21  C   UNL     1      65.820  16.582  22.703  0.00  0.00    +0.000 A 
ATOM     22  C   UNL     1      65.762  16.206  21.361  0.00  0.00    +0.000 A 
ATOM     23  C   UNL     1      66.922  15.822  20.685  0.00  0.00    +0.000 A 
ATOM     24  C   UNL     1      64.461  16.221  20.677  0.00  0.00    +0.000 A 
ATOM     25  C   UNL     1      63.487  16.992  22.770  0.00  0.00    +0.000 A 
ATOM     26  C   UNL     1      63.302  16.646  21.486  0.00  0.00    +0.000 A 
ENDROOT
BRANCH  25  27
ATOM     27  C   UNL     1      62.364  17.415  23.631  0.00  0.00    +0.000 A 
ATOM     28  C   UNL     1      61.822  16.529  24.564  0.00  0.00    +0.000 A 
ATOM     29  C   UNL     1      61.838  18.704  23.514  0.00  0.00    +0.000 A 
ATOM     30  C   UNL     1      60.761  16.930  25.376  0.00  0.00    +0.000 A 
ATOM     31  C   UNL     1      60.777  19.105  24.326  0.00  0.00    +0.000 A 
ATOM     32  C   UNL     1      60.238  18.217  25.257  0.00  0.00    +0.000 A 
BRANCH  32  11
ATOM     11  O   UNL     1      59.202  18.608  26.049  0.00  0.00    +0.000 OA
ATOM     39  H   UNL     1      58.752  17.817  26.391  0.00  0.00    +0.000 HD
ENDBRANCH  32  11
ENDBRANCH  25  27
BRANCH  20   8
ATOM      8  O   UNL     1      69.283  15.443  20.711  0.00  0.00    +0.000 OA
ATOM     37  H   UNL     1      69.993  15.347  21.370  0.00  0.00    +0.000 HD
ENDBRANCH  20   8
BRANCH  23   9
ATOM      9  O   UNL     1      66.904  15.449  19.374  0.00  0.00    +0.000 OA
ATOM     38  H   UNL     1      67.761  15.627  18.955  0.00  0.00    +0.000 HD
ENDBRANCH  23   9
BRANCH  18   2
ATOM      2  O   UNL     1      69.393  16.192  23.372  0.00  0.00    +0.000 OA
BRANCH   2  16
ATOM      1  O   UNL     1      70.244  17.952  22.097  0.00  0.00    +0.000 OA
ATOM     12  C   UNL     1      72.357  18.409  23.989  0.00  0.00    +0.000 C 
ATOM     13  C   UNL     1      72.357  19.033  22.593  0.00  0.00    +0.000 C 
ATOM     14  C   UNL     1      71.472  17.164  24.039  0.00  0.00    +0.000 C 
ATOM     15  C   UNL     1      70.927  19.206  22.075  0.00  0.00    +0.000 C 
ATOM     16  C   UNL     1      70.101  17.430  23.417  0.00  0.00    +0.000 C 
BRANCH  12   3
ATOM      3  O   UNL     1      73.702  18.052  24.312  0.00  0.00    +0.000 OA
ATOM     33  H   UNL     1      73.692  17.129  24.618  0.00  0.00    +0.000 HD
ENDBRANCH  12   3
BRANCH  13   4
ATOM      4  O   UNL     1      72.997  20.304  22.643  0.00  0.00    +0.000 OA
ATOM     34  H   UNL     1      73.610  20.302  23.398  0.00  0.00    +0.000 HD
ENDBRANCH  13   4
BRANCH  14   5
ATOM      5  O   UNL     1      71.278  16.776  25.399  0.00  0.00    +0.000 OA
ATOM     35  H   UNL     1      70.631  16.052  25.418  0.00  0.00    +0.000 HD
ENDBRANCH  14   5
BRANCH  15  17
ATOM     17  C   UNL     1      70.903  19.717  20.638  0.00  0.00    +0.000 C 
BRANCH  17   6
ATOM      6  O   UNL     1      72.163  19.462  20.047  0.00  0.00    +0.000 OA
ATOM     36  H   UNL     1      72.089  18.634  19.542  0.00  0.00    +0.000 HD
ENDBRANCH  17   6
ENDBRANCH  15  17
ENDBRANCH   2  16
ENDBRANCH  18   2
TORSDOF 11
ENDMDL
MODEL 7
REMARK VINA RESULT:      -8.5     39.521     41.979
REMARK  Name = 5320623
REMARK  11 active torsions:
REMARK  status: ('A' for Active; 'I' for Inactive)
REMARK    1  A    between atoms: O_2  and  C_16
REMARK    2  A    between atoms: O_2  and  C_18
REMARK    3  A    between atoms: O_3  and  C_12
REMARK    4  A    between atoms: O_4  and  C_13
REMARK    5  A    between atoms: O_5  and  C_14
REMARK    6  A    between atoms: O_6  and  C_17
REMARK    7  A    between atoms: O_8  and  C_20
REMARK    8  A    between atoms: O_9  and  C_23
REMARK    9  A    between atoms: O_11  and  C_32
REMARK   10  A    between atoms: C_15  and  C_17
REMARK   11  A    between atoms: C_25  and  C_27
REMARK                            x       y       z     vdW  Elec       q    Type
REMARK                         _______ _______ _______ _____ _____    ______ ____
ROOT
ATOM      7  O   UNL     1      71.648   4.689   9.275  0.00  0.00    +0.000 OA
ATOM     10  O   UNL     1      75.685   5.156   9.561  0.00  0.00    +0.000 OA
ATOM     18  C   UNL     1      72.668   2.431   6.602  0.00  0.00    +0.000 A 
ATOM     19  C   UNL     1      71.876   3.158   7.491  0.00  0.00    +0.000 A 
ATOM     20  C   UNL     1      74.059   2.545   6.649  0.00  0.00    +0.000 A 
ATOM     21  C   UNL     1      72.478   3.999   8.427  0.00  0.00    +0.000 A 
ATOM     22  C   UNL     1      73.867   4.112   8.472  0.00  0.00    +0.000 A 
ATOM     23  C   UNL     1      74.663   3.386   7.583  0.00  0.00    +0.000 A 
ATOM     24  C   UNL     1      74.474   5.007   9.468  0.00  0.00    +0.000 A 
ATOM     25  C   UNL     1      72.218   5.526  10.221  0.00  0.00    +0.000 A 
ATOM     26  C   UNL     1      73.539   5.724  10.358  0.00  0.00    +0.000 A 
ENDROOT
BRANCH  25  27
ATOM     27  C   UNL     1      71.235   6.223  11.075  0.00  0.00    +0.000 A 
ATOM     28  C   UNL     1      71.565   7.440  11.676  0.00  0.00    +0.000 A 
ATOM     29  C   UNL     1      69.972   5.665  11.289  0.00  0.00    +0.000 A 
ATOM     30  C   UNL     1      70.636   8.097  12.483  0.00  0.00    +0.000 A 
ATOM     31  C   UNL     1      69.043   6.322  12.096  0.00  0.00    +0.000 A 
ATOM     32  C   UNL     1      69.376   7.537  12.694  0.00  0.00    +0.000 A 
BRANCH  32  11
ATOM     11  O   UNL     1      68.469   8.178  13.483  0.00  0.00    +0.000 OA
ATOM     39  H   UNL     1      68.258   9.039  13.083  0.00  0.00    +0.000 HD
ENDBRANCH  32  11
ENDBRANCH  25  27
BRANCH  20   8
ATOM      8  O   UNL     1      74.825   1.830   5.774  0.00  0.00    +0.000 OA
ATOM     37  H   UNL     1      74.339   1.024   5.528  0.00  0.00    +0.000 HD
ENDBRANCH  20   8
BRANCH  23   9
ATOM      9  O   UNL     1      76.023   3.469   7.598  0.00  0.00    +0.000 OA
ATOM     38  H   UNL     1      76.358   3.781   6.743  0.00  0.00    +0.000 HD
ENDBRANCH  23   9
BRANCH  18   2
ATOM      2  O   UNL     1      72.069   1.610   5.690  0.00  0.00    +0.000 OA
BRANCH   2  16
ATOM      1  O   UNL     1      69.941   1.644   4.733  0.00  0.00    +0.000 OA
ATOM     12  C   UNL     1      70.994   2.565   2.224  0.00  0.00    +0.000 C 
ATOM     13  C   UNL     1      69.569   2.031   2.369  0.00  0.00    +0.000 C 
ATOM     14  C   UNL     1      71.894   2.052   3.348  0.00  0.00    +0.000 C 
ATOM     15  C   UNL     1      69.050   2.246   3.793  0.00  0.00    +0.000 C 
ATOM     16  C   UNL     1      71.238   2.238   4.716  0.00  0.00    +0.000 C 
BRANCH  12   3
ATOM      3  O   UNL     1      71.505   2.124   0.965  0.00  0.00    +0.000 OA
ATOM     33  H   UNL     1      70.805   2.260   0.304  0.00  0.00    +0.000 HD
ENDBRANCH  12   3
BRANCH  13   4
ATOM      4  O   UNL     1      68.715   2.708   1.450  0.00  0.00    +0.000 OA
ATOM     34  H   UNL     1      67.811   2.683   1.806  0.00  0.00    +0.000 HD
ENDBRANCH  13   4
BRANCH  14   5
ATOM      5  O   UNL     1      73.123   2.779   3.339  0.00  0.00    +0.000 OA
ATOM     35  H   UNL     1      73.705   2.382   2.670  0.00  0.00    +0.000 HD
ENDBRANCH  14   5
BRANCH  15  17
ATOM     17  C   UNL     1      67.676   1.617   3.995  0.00  0.00    +0.000 C 
BRANCH  17   6
ATOM      6  O   UNL     1      66.726   2.357   3.251  0.00  0.00    +0.000 OA
ATOM     36  H   UNL     1      66.209   2.889   3.881  0.00  0.00    +0.000 HD
ENDBRANCH  17   6
ENDBRANCH  15  17
ENDBRANCH   2  16
ENDBRANCH  18   2
TORSDOF 11
ENDMDL
MODEL 8
REMARK VINA RESULT:      -8.5     21.877     25.239
REMARK  Name = 5320623
REMARK  11 active torsions:
REMARK  status: ('A' for Active; 'I' for Inactive)
REMARK    1  A    between atoms: O_2  and  C_16
REMARK    2  A    between atoms: O_2  and  C_18
REMARK    3  A    between atoms: O_3  and  C_12
REMARK    4  A    between atoms: O_4  and  C_13
REMARK    5  A    between atoms: O_5  and  C_14
REMARK    6  A    between atoms: O_6  and  C_17
REMARK    7  A    between atoms: O_8  and  C_20
REMARK    8  A    between atoms: O_9  and  C_23
REMARK    9  A    between atoms: O_11  and  C_32
REMARK   10  A    between atoms: C_15  and  C_17
REMARK   11  A    between atoms: C_25  and  C_27
REMARK                            x       y       z     vdW  Elec       q    Type
REMARK                         _______ _______ _______ _____ _____    ______ ____
ROOT
ATOM      7  O   UNL     1      61.415  18.428  23.555  0.00  0.00    +0.000 OA
ATOM     10  O   UNL     1      62.844  22.051  24.753  0.00  0.00    +0.000 OA
ATOM     18  C   UNL     1      58.676  19.419  25.745  0.00  0.00    +0.000 A 
ATOM     19  C   UNL     1      59.464  18.682  24.860  0.00  0.00    +0.000 A 
ATOM     20  C   UNL     1      59.108  20.669  26.193  0.00  0.00    +0.000 A 
ATOM     21  C   UNL     1      60.685  19.198  24.424  0.00  0.00    +0.000 A 
ATOM     22  C   UNL     1      61.114  20.447  24.873  0.00  0.00    +0.000 A 
ATOM     23  C   UNL     1      60.328  21.187  25.759  0.00  0.00    +0.000 A 
ATOM     24  C   UNL     1      62.405  20.965  24.398  0.00  0.00    +0.000 A 
ATOM     25  C   UNL     1      62.629  18.919  23.098  0.00  0.00    +0.000 A 
ATOM     26  C   UNL     1      63.152  20.101  23.462  0.00  0.00    +0.000 A 
ENDROOT
BRANCH  25  27
ATOM     27  C   UNL     1      63.334  18.008  22.174  0.00  0.00    +0.000 A 
ATOM     28  C   UNL     1      64.397  18.480  21.399  0.00  0.00    +0.000 A 
ATOM     29  C   UNL     1      62.940  16.672  22.068  0.00  0.00    +0.000 A 
ATOM     30  C   UNL     1      65.062  17.619  20.526  0.00  0.00    +0.000 A 
ATOM     31  C   UNL     1      63.605  15.812  21.195  0.00  0.00    +0.000 A 
ATOM     32  C   UNL     1      64.666  16.286  20.423  0.00  0.00    +0.000 A 
BRANCH  32  11
ATOM     11  O   UNL     1      65.315  15.446  19.570  0.00  0.00    +0.000 OA
ATOM     39  H   UNL     1      65.096  14.529  19.804  0.00  0.00    +0.000 HD
ENDBRANCH  32  11
ENDBRANCH  25  27
BRANCH  20   8
ATOM      8  O   UNL     1      58.331  21.382  27.059  0.00  0.00    +0.000 OA
ATOM     37  H   UNL     1      58.830  22.168  27.343  0.00  0.00    +0.000 HD
ENDBRANCH  20   8
BRANCH  23   9
ATOM      9  O   UNL     1      60.714  22.410  26.218  0.00  0.00    +0.000 OA
ATOM     38  H   UNL     1      60.876  22.384  27.174  0.00  0.00    +0.000 HD
ENDBRANCH  23   9
BRANCH  18   2
ATOM      2  O   UNL     1      57.483  18.906  26.165  0.00  0.00    +0.000 OA
BRANCH   2  16
ATOM      1  O   UNL     1      58.678  18.383  28.100  0.00  0.00    +0.000 OA
ATOM     12  C   UNL     1      56.496  16.822  29.127  0.00  0.00    +0.000 C 
ATOM     13  C   UNL     1      57.899  16.768  29.732  0.00  0.00    +0.000 C 
ATOM     14  C   UNL     1      56.535  17.320  27.681  0.00  0.00    +0.000 C 
ATOM     15  C   UNL     1      58.644  18.084  29.497  0.00  0.00    +0.000 C 
ATOM     16  C   UNL     1      57.378  18.589  27.552  0.00  0.00    +0.000 C 
BRANCH  12   3
ATOM      3  O   UNL     1      55.948  15.504  29.162  0.00  0.00    +0.000 OA
ATOM     33  H   UNL     1      56.164  15.122  30.030  0.00  0.00    +0.000 HD
ENDBRANCH  12   3
BRANCH  13   4
ATOM      4  O   UNL     1      57.800  16.526  31.132  0.00  0.00    +0.000 OA
ATOM     34  H   UNL     1      58.306  17.218  31.593  0.00  0.00    +0.000 HD
ENDBRANCH  13   4
BRANCH  14   5
ATOM      5  O   UNL     1      55.209  17.618  27.248  0.00  0.00    +0.000 OA
ATOM     35  H   UNL     1      55.157  17.449  26.292  0.00  0.00    +0.000 HD
ENDBRANCH  14   5
BRANCH  15  17
ATOM     17  C   UNL     1      60.086  18.013  29.987  0.00  0.00    +0.000 C 
BRANCH  17   6
ATOM      6  O   UNL     1      60.598  16.725  29.701  0.00  0.00    +0.000 OA
ATOM     36  H   UNL     1      59.864  16.186  29.359  0.00  0.00    +0.000 HD
ENDBRANCH  17   6
ENDBRANCH  15  17
ENDBRANCH   2  16
ENDBRANCH  18   2
TORSDOF 11
ENDMDL
MODEL 9
REMARK VINA RESULT:      -8.5     20.781     23.986
REMARK  Name = 5320623
REMARK  11 active torsions:
REMARK  status: ('A' for Active; 'I' for Inactive)
REMARK    1  A    between atoms: O_2  and  C_16
REMARK    2  A    between atoms: O_2  and  C_18
REMARK    3  A    between atoms: O_3  and  C_12
REMARK    4  A    between atoms: O_4  and  C_13
REMARK    5  A    between atoms: O_5  and  C_14
REMARK    6  A    between atoms: O_6  and  C_17
REMARK    7  A    between atoms: O_8  and  C_20
REMARK    8  A    between atoms: O_9  and  C_23
REMARK    9  A    between atoms: O_11  and  C_32
REMARK   10  A    between atoms: C_15  and  C_17
REMARK   11  A    between atoms: C_25  and  C_27
REMARK                            x       y       z     vdW  Elec       q    Type
REMARK                         _______ _______ _______ _____ _____    ______ ____
ROOT
ATOM      7  O   UNL     1      64.681  18.922  22.179  0.00  0.00    +0.000 OA
ATOM     10  O   UNL     1      63.539  15.512  20.264  0.00  0.00    +0.000 OA
ATOM     18  C   UNL     1      67.807  18.161  20.467  0.00  0.00    +0.000 A 
ATOM     19  C   UNL     1      66.856  18.795  21.266  0.00  0.00    +0.000 A 
ATOM     20  C   UNL     1      67.480  16.990  19.782  0.00  0.00    +0.000 A 
ATOM     21  C   UNL     1      65.574  18.255  21.379  0.00  0.00    +0.000 A 
ATOM     22  C   UNL     1      65.249  17.084  20.695  0.00  0.00    +0.000 A 
ATOM     23  C   UNL     1      66.199  16.447  19.894  0.00  0.00    +0.000 A 
ATOM     24  C   UNL     1      63.892  16.536  20.833  0.00  0.00    +0.000 A 
ATOM     25  C   UNL     1      63.398  18.412  22.304  0.00  0.00    +0.000 A 
ATOM     26  C   UNL     1      62.968  17.292  21.702  0.00  0.00    +0.000 A 
ENDROOT
BRANCH  25  27
ATOM     27  C   UNL     1      62.522  19.203  23.191  0.00  0.00    +0.000 A 
ATOM     28  C   UNL     1      62.840  20.530  23.490  0.00  0.00    +0.000 A 
ATOM     29  C   UNL     1      61.373  18.627  23.739  0.00  0.00    +0.000 A 
ATOM     30  C   UNL     1      62.013  21.277  24.329  0.00  0.00    +0.000 A 
ATOM     31  C   UNL     1      60.546  19.374  24.577  0.00  0.00    +0.000 A 
ATOM     32  C   UNL     1      60.866  20.698  24.873  0.00  0.00    +0.000 A 
BRANCH  32  11
ATOM     11  O   UNL     1      60.059  21.427  25.692  0.00  0.00    +0.000 OA
ATOM     39  H   UNL     1      59.508  22.016  25.148  0.00  0.00    +0.000 HD
ENDBRANCH  32  11
ENDBRANCH  25  27
BRANCH  20   8
ATOM      8  O   UNL     1      68.418  16.376  19.004  0.00  0.00    +0.000 OA
ATOM     37  H   UNL     1      67.962  15.933  18.267  0.00  0.00    +0.000 HD
ENDBRANCH  20   8
BRANCH  23   9
ATOM      9  O   UNL     1      65.918  15.303  19.210  0.00  0.00    +0.000 OA
ATOM     38  H   UNL     1      65.653  14.594  19.817  0.00  0.00    +0.000 HD
ENDBRANCH  23   9
BRANCH  18   2
ATOM      2  O   UNL     1      69.058  18.699  20.362  0.00  0.00    +0.000 OA
BRANCH   2  16
ATOM      1  O   UNL     1      69.558  17.711  22.417  0.00  0.00    +0.000 OA
ATOM     12  C   UNL     1      72.291  18.583  22.265  0.00  0.00    +0.000 C 
ATOM     13  C   UNL     1      71.674  18.041  23.554  0.00  0.00    +0.000 C 
ATOM     14  C   UNL     1      71.214  19.102  21.311  0.00  0.00    +0.000 C 
ATOM     15  C   UNL     1      70.531  17.071  23.243  0.00  0.00    +0.000 C 
ATOM     16  C   UNL     1      70.082  18.088  21.146  0.00  0.00    +0.000 C 
BRANCH  12   3
ATOM      3  O   UNL     1      73.174  19.651  22.613  0.00  0.00    +0.000 OA
ATOM     33  H   UNL     1      72.809  20.466  22.229  0.00  0.00    +0.000 HD
ENDBRANCH  12   3
BRANCH  13   4
ATOM      4  O   UNL     1      72.675  17.363  24.308  0.00  0.00    +0.000 OA
ATOM     34  H   UNL     1      72.968  17.956  25.021  0.00  0.00    +0.000 HD
ENDBRANCH  13   4
BRANCH  14   5
ATOM      5  O   UNL     1      71.793  19.339  20.029  0.00  0.00    +0.000 OA
ATOM     35  H   UNL     1      71.114  19.737  19.459  0.00  0.00    +0.000 HD
ENDBRANCH  14   5
BRANCH  15  17
ATOM     17  C   UNL     1      69.823  16.607  24.512  0.00  0.00    +0.000 C 
BRANCH  17   6
ATOM      6  O   UNL     1      70.507  15.479  25.025  0.00  0.00    +0.000 OA
ATOM     36  H   UNL     1      69.945  15.082  25.713  0.00  0.00    +0.000 HD
ENDBRANCH  17   6
ENDBRANCH  15  17
ENDBRANCH   2  16
ENDBRANCH  18   2
TORSDOF 11
ENDMDL
