MODEL 1
REMARK VINA RESULT:      -5.3      0.000      0.000
REMARK  16 active torsions:
REMARK  status: ('A' for Active; 'I' for Inactive)
REMARK    1  A    between atoms: O_2  and  C_22 
REMARK    2  A    between atoms: O_2  and  C_26 
REMARK    3  A    between atoms: O_4  and  C_18 
REMARK    4  A    between atoms: O_5  and  C_19 
REMARK    5  A    between atoms: O_6  and  C_25 
REMARK    6  A    between atoms: O_6  and  C_29 
REMARK    7  A    between atoms: O_7  and  C_20 
REMARK    8  A    between atoms: O_8  and  C_21 
REMARK    9  A    between atoms: O_9  and  C_23 
REMARK   10  A    between atoms: O_10  and  C_24 
REMARK   11  A    between atoms: O_13  and  C_35 
REMARK   12  A    between atoms: O_14  and  C_40 
REMARK   13  A    between atoms: O_15  and  C_41 
REMARK   14  A    between atoms: O_16  and  C_43 
REMARK   15  A    between atoms: C_17  and  C_26 
REMARK   16  A    between atoms: C_30  and  C_33 
ROOT
HETATM    1  O   UNK     0      -4.782  -5.168   8.457  0.00  0.00    -0.348 OA
HETATM    2  C   UNK     0      -6.168  -5.341   8.760  0.00  0.00     0.180 C 
HETATM    3  C   UNK     0      -6.739  -4.050   9.351  0.00  0.00     0.180 C 
HETATM    4  C   UNK     0      -5.939  -3.615  10.579  0.00  0.00     0.183 C 
HETATM    5  C   UNK     0      -4.438  -3.610  10.289  0.00  0.00     0.205 C 
HETATM    6  C   UNK     0      -3.997  -4.912   9.619  0.00  0.00     0.298 C 
ENDROOT
BRANCH   2   7
HETATM    7  C   UNK     0      -6.875  -5.732   7.466  0.00  0.00     0.205 C 
BRANCH   7   8
HETATM    8  O   UNK     0      -6.007  -6.547   6.693  0.00  0.00    -0.356 OA
BRANCH   8   9
HETATM    9  C   UNK     0      -6.737  -7.465   5.885  0.00  0.00     0.291 C 
HETATM   10  O   UNK     0      -5.882  -8.309   5.108  0.00  0.00    -0.351 OA
HETATM   11  C   UNK     0      -5.096  -7.612   4.136  0.00  0.00     0.152 C 
HETATM   12  C   UNK     0      -5.991  -6.856   3.143  0.00  0.00     0.178 C 
HETATM   13  C   UNK     0      -4.222  -8.651   3.439  0.00  0.00     0.042 C 
HETATM   14  C   UNK     0      -6.951  -5.935   3.897  0.00  0.00     0.183 C 
HETATM   15  C   UNK     0      -7.706  -6.702   4.984  0.00  0.00     0.204 C 
BRANCH  12  16
HETATM   16  O   UNK     0      -5.196  -6.053   2.274  0.00  0.00    -0.390 OA
HETATM   17  H   UNK     0      -5.510  -5.135   2.346  0.00  0.00     0.210 HD
ENDBRANCH  12  16
BRANCH  14  18
HETATM   18  O   UNK     0      -7.875  -5.363   2.974  0.00  0.00    -0.390 OA
HETATM   19  H   UNK     0      -8.650  -5.061   3.479  0.00  0.00     0.210 HD
ENDBRANCH  14  18
BRANCH  15  20
HETATM   20  O   UNK     0      -8.586  -7.655   4.385  0.00  0.00    -0.388 OA
HETATM   21  H   UNK     0      -8.342  -7.752   3.448  0.00  0.00     0.210 HD
ENDBRANCH  15  20
ENDBRANCH   8   9
ENDBRANCH   7   8
ENDBRANCH   2   7
BRANCH   6  22
HETATM   22  O   UNK     0      -2.625  -4.774   9.253  0.00  0.00    -0.311 OA
BRANCH  22  23
HETATM   23  C   UNK     0      -2.234  -5.759   8.372  0.00  0.00     0.157 A 
HETATM   24  C   UNK     0      -2.051  -7.040   8.737  0.00  0.00     0.124 A 
HETATM   25  O   UNK     0      -1.627  -8.048   7.884  0.00  0.00    -0.306 OA
HETATM   26  C   UNK     0      -1.394  -7.737   6.569  0.00  0.00     0.096 A 
HETATM   27  C   UNK     0      -1.553  -6.451   6.058  0.00  0.00     0.084 A 
HETATM   28  C   UNK     0      -0.978  -8.774   5.733  0.00  0.00     0.075 A 
HETATM   29  C   UNK     0      -1.989  -5.375   6.961  0.00  0.00     0.223 A 
HETATM   30  C   UNK     0      -1.299  -6.192   4.708  0.00  0.00     0.085 A 
HETATM   31  O   UNK     0      -2.141  -4.225   6.570  0.00  0.00    -0.284 OA
HETATM   32  C   UNK     0      -0.884  -7.231   3.874  0.00  0.00     0.074 A 
HETATM   33  C   UNK     0      -0.724  -8.519   4.386  0.00  0.00     0.071 A 
BRANCH  24  34
HETATM   34  C   UNK     0      -2.264  -7.509  10.118  0.00  0.00     0.004 A 
HETATM   35  C   UNK     0      -1.349  -7.176  11.117  0.00  0.00     0.053 A 
HETATM   36  C   UNK     0      -1.551  -7.618  12.424  0.00  0.00     0.099 A 
HETATM   37  C   UNK     0      -2.668  -8.395  12.733  0.00  0.00     0.098 A 
HETATM   38  C   UNK     0      -3.582  -8.729  11.734  0.00  0.00     0.040 A 
HETATM   39  C   UNK     0      -3.380  -8.286  10.427  0.00  0.00     0.017 A 
BRANCH  36  40
HETATM   40  O   UNK     0      -0.650  -7.287  13.391  0.00  0.00    -0.358 OA
HETATM   41  H   UNK     0       0.015  -7.990  13.472  0.00  0.00     0.217 HD
ENDBRANCH  36  40
BRANCH  37  42
HETATM   42  O   UNK     0      -2.876  -8.832  14.006  0.00  0.00    -0.358 OA
HETATM   43  H   UNK     0      -3.458  -9.608  13.994  0.00  0.00     0.217 HD
ENDBRANCH  37  42
ENDBRANCH  24  34
BRANCH  30  44
HETATM   44  O   UNK     0      -1.439  -4.954   4.159  0.00  0.00    -0.360 OA
HETATM   45  H   UNK     0      -1.802  -4.343   4.823  0.00  0.00     0.217 HD
ENDBRANCH  30  44
BRANCH  33  46
HETATM   46  O   UNK     0      -0.319  -9.530   3.569  0.00  0.00    -0.361 OA
HETATM   47  H   UNK     0      -0.761 -10.352   3.840  0.00  0.00     0.217 HD
ENDBRANCH  33  46
ENDBRANCH  22  23
ENDBRANCH   6  22
BRANCH   3  48
HETATM   48  O   UNK     0      -8.097  -4.263   9.724  0.00  0.00    -0.390 OA
HETATM   49  H   UNK     0      -8.641  -4.224   8.919  0.00  0.00     0.210 HD
ENDBRANCH   3  48
BRANCH   5  50
HETATM   50  O   UNK     0      -3.719  -3.471  11.514  0.00  0.00    -0.388 OA
HETATM   51  H   UNK     0      -3.778  -4.313  11.996  0.00  0.00     0.210 HD
ENDBRANCH   5  50
BRANCH   4  52
HETATM   52  O   UNK     0      -6.359  -2.297  10.935  0.00  0.00    -0.390 OA
HETATM   53  H   UNK     0      -5.565  -1.737  10.967  0.00  0.00     0.210 HD
ENDBRANCH   4  52
TORSDOF 16
ENDMDL
MODEL 2
REMARK VINA RESULT:      -5.2      1.735      5.324
REMARK  16 active torsions:
REMARK  status: ('A' for Active; 'I' for Inactive)
REMARK    1  A    between atoms: O_2  and  C_22 
REMARK    2  A    between atoms: O_2  and  C_26 
REMARK    3  A    between atoms: O_4  and  C_18 
REMARK    4  A    between atoms: O_5  and  C_19 
REMARK    5  A    between atoms: O_6  and  C_25 
REMARK    6  A    between atoms: O_6  and  C_29 
REMARK    7  A    between atoms: O_7  and  C_20 
REMARK    8  A    between atoms: O_8  and  C_21 
REMARK    9  A    between atoms: O_9  and  C_23 
REMARK   10  A    between atoms: O_10  and  C_24 
REMARK   11  A    between atoms: O_13  and  C_35 
REMARK   12  A    between atoms: O_14  and  C_40 
REMARK   13  A    between atoms: O_15  and  C_41 
REMARK   14  A    between atoms: O_16  and  C_43 
REMARK   15  A    between atoms: C_17  and  C_26 
REMARK   16  A    between atoms: C_30  and  C_33 
ROOT
HETATM    1  O   UNK     0      -5.516  -5.329   8.438  0.00  0.00    -0.348 OA
HETATM    2  C   UNK     0      -6.756  -6.027   8.301  0.00  0.00     0.180 C 
HETATM    3  C   UNK     0      -7.896  -5.028   8.091  0.00  0.00     0.180 C 
HETATM    4  C   UNK     0      -7.941  -4.008   9.229  0.00  0.00     0.183 C 
HETATM    5  C   UNK     0      -6.561  -3.401   9.483  0.00  0.00     0.205 C 
HETATM    6  C   UNK     0      -5.488  -4.485   9.587  0.00  0.00     0.298 C 
ENDROOT
BRANCH   2   7
HETATM    7  C   UNK     0      -6.616  -6.983   7.120  0.00  0.00     0.205 C 
BRANCH   7   8
HETATM    8  O   UNK     0      -6.910  -6.282   5.921  0.00  0.00    -0.356 OA
BRANCH   8   9
HETATM    9  C   UNK     0      -7.459  -7.148   4.933  0.00  0.00     0.291 C 
HETATM   10  O   UNK     0      -6.493  -8.068   4.417  0.00  0.00    -0.351 OA
HETATM   11  C   UNK     0      -5.414  -7.450   3.708  0.00  0.00     0.152 C 
HETATM   12  C   UNK     0      -5.933  -6.638   2.514  0.00  0.00     0.178 C 
HETATM   13  C   UNK     0      -4.468  -8.566   3.273  0.00  0.00     0.042 C 
HETATM   14  C   UNK     0      -6.986  -5.632   2.979  0.00  0.00     0.183 C 
HETATM   15  C   UNK     0      -8.074  -6.321   3.805  0.00  0.00     0.204 C 
BRANCH  12  16
HETATM   16  O   UNK     0      -4.864  -5.913   1.908  0.00  0.00    -0.390 OA
HETATM   17  H   UNK     0      -5.170  -5.003   1.755  0.00  0.00     0.210 HD
ENDBRANCH  12  16
BRANCH  14  18
HETATM   18  O   UNK     0      -7.567  -5.000   1.841  0.00  0.00    -0.390 OA
HETATM   19  H   UNK     0      -7.836  -5.698   1.219  0.00  0.00     0.210 HD
ENDBRANCH  14  18
BRANCH  15  20
HETATM   20  O   UNK     0      -8.827  -7.207   2.976  0.00  0.00    -0.388 OA
HETATM   21  H   UNK     0      -8.340  -8.046   2.903  0.00  0.00     0.210 HD
ENDBRANCH  15  20
ENDBRANCH   8   9
ENDBRANCH   7   8
ENDBRANCH   2   7
BRANCH   6  22
HETATM   22  O   UNK     0      -4.219  -3.839   9.679  0.00  0.00    -0.311 OA
BRANCH  22  23
HETATM   23  C   UNK     0      -3.392  -4.472  10.581  0.00  0.00     0.157 A 
HETATM   24  C   UNK     0      -2.480  -5.393  10.221  0.00  0.00     0.124 A 
HETATM   25  O   UNK     0      -1.655  -6.071  11.106  0.00  0.00    -0.306 OA
HETATM   26  C   UNK     0      -1.752  -5.782  12.442  0.00  0.00     0.096 A 
HETATM   27  C   UNK     0      -2.648  -4.844  12.949  0.00  0.00     0.084 A 
HETATM   28  C   UNK     0      -0.903  -6.474  13.307  0.00  0.00     0.075 A 
HETATM   29  C   UNK     0      -3.534  -4.130  12.017  0.00  0.00     0.223 A 
HETATM   30  C   UNK     0      -2.703  -4.590  14.322  0.00  0.00     0.085 A 
HETATM   31  O   UNK     0      -4.346  -3.300  12.404  0.00  0.00    -0.284 OA
HETATM   32  C   UNK     0      -1.853  -5.283  15.185  0.00  0.00     0.074 A 
HETATM   33  C   UNK     0      -0.954  -6.223  14.678  0.00  0.00     0.071 A 
BRANCH  24  34
HETATM   34  C   UNK     0      -2.275  -5.799   8.819  0.00  0.00     0.004 A 
HETATM   35  C   UNK     0      -1.856  -4.861   7.875  0.00  0.00     0.053 A 
HETATM   36  C   UNK     0      -1.661  -5.246   6.549  0.00  0.00     0.099 A 
HETATM   37  C   UNK     0      -1.885  -6.568   6.165  0.00  0.00     0.098 A 
HETATM   38  C   UNK     0      -2.304  -7.506   7.109  0.00  0.00     0.040 A 
HETATM   39  C   UNK     0      -2.498  -7.121   8.436  0.00  0.00     0.017 A 
BRANCH  36  40
HETATM   40  O   UNK     0      -1.253  -4.320   5.635  0.00  0.00    -0.358 OA
HETATM   41  H   UNK     0      -0.642  -4.732   5.003  0.00  0.00     0.217 HD
ENDBRANCH  36  40
BRANCH  37  42
HETATM   42  O   UNK     0      -1.696  -6.955   4.873  0.00  0.00    -0.358 OA
HETATM   43  H   UNK     0      -2.055  -6.282   4.274  0.00  0.00     0.217 HD
ENDBRANCH  37  42
ENDBRANCH  24  34
BRANCH  30  44
HETATM   44  O   UNK     0      -3.561  -3.685  14.868  0.00  0.00    -0.360 OA
HETATM   45  H   UNK     0      -3.129  -2.814  14.914  0.00  0.00     0.217 HD
ENDBRANCH  30  44
BRANCH  33  46
HETATM   46  O   UNK     0      -0.127  -6.897  15.523  0.00  0.00    -0.361 OA
HETATM   47  H   UNK     0       0.062  -7.774  15.147  0.00  0.00     0.217 HD
ENDBRANCH  33  46
ENDBRANCH  22  23
ENDBRANCH   6  22
BRANCH   3  48
HETATM   48  O   UNK     0      -9.135  -5.732   8.040  0.00  0.00    -0.390 OA
HETATM   49  H   UNK     0      -8.999  -6.543   7.522  0.00  0.00     0.210 HD
ENDBRANCH   3  48
BRANCH   5  50
HETATM   50  O   UNK     0      -6.583  -2.673  10.711  0.00  0.00    -0.388 OA
HETATM   51  H   UNK     0      -5.889  -1.993  10.670  0.00  0.00     0.210 HD
ENDBRANCH   5  50
BRANCH   4  52
HETATM   52  O   UNK     0      -8.855  -2.974   8.859  0.00  0.00    -0.390 OA
HETATM   53  H   UNK     0      -8.608  -2.176   9.356  0.00  0.00     0.210 HD
ENDBRANCH   4  52
TORSDOF 16
ENDMDL
MODEL 3
REMARK VINA RESULT:      -5.2      2.037      6.644
REMARK  16 active torsions:
REMARK  status: ('A' for Active; 'I' for Inactive)
REMARK    1  A    between atoms: O_2  and  C_22 
REMARK    2  A    between atoms: O_2  and  C_26 
REMARK    3  A    between atoms: O_4  and  C_18 
REMARK    4  A    between atoms: O_5  and  C_19 
REMARK    5  A    between atoms: O_6  and  C_25 
REMARK    6  A    between atoms: O_6  and  C_29 
REMARK    7  A    between atoms: O_7  and  C_20 
REMARK    8  A    between atoms: O_8  and  C_21 
REMARK    9  A    between atoms: O_9  and  C_23 
REMARK   10  A    between atoms: O_10  and  C_24 
REMARK   11  A    between atoms: O_13  and  C_35 
REMARK   12  A    between atoms: O_14  and  C_40 
REMARK   13  A    between atoms: O_15  and  C_41 
REMARK   14  A    between atoms: O_16  and  C_43 
REMARK   15  A    between atoms: C_17  and  C_26 
REMARK   16  A    between atoms: C_30  and  C_33 
ROOT
HETATM    1  O   UNK     0      -3.955  -7.196   8.131  0.00  0.00    -0.348 OA
HETATM    2  C   UNK     0      -4.408  -8.482   7.705  0.00  0.00     0.180 C 
HETATM    3  C   UNK     0      -5.194  -8.352   6.398  0.00  0.00     0.180 C 
HETATM    4  C   UNK     0      -6.352  -7.366   6.557  0.00  0.00     0.183 C 
HETATM    5  C   UNK     0      -5.880  -6.055   7.185  0.00  0.00     0.205 C 
HETATM    6  C   UNK     0      -5.031  -6.309   8.431  0.00  0.00     0.298 C 
ENDROOT
BRANCH   2   7
HETATM    7  C   UNK     0      -3.179  -9.370   7.540  0.00  0.00     0.205 C 
BRANCH   7   8
HETATM    8  O   UNK     0      -2.505  -9.008   6.343  0.00  0.00    -0.356 OA
BRANCH   8   9
HETATM    9  C   UNK     0      -1.197  -8.513   6.612  0.00  0.00     0.291 C 
HETATM   10  O   UNK     0      -1.213  -7.172   7.111  0.00  0.00    -0.351 OA
HETATM   11  C   UNK     0      -1.715  -6.207   6.182  0.00  0.00     0.152 C 
HETATM   12  C   UNK     0      -0.876  -6.190   4.896  0.00  0.00     0.178 C 
HETATM   13  C   UNK     0      -1.701  -4.855   6.891  0.00  0.00     0.042 C 
HETATM   14  C   UNK     0      -0.798  -7.596   4.301  0.00  0.00     0.183 C 
HETATM   15  C   UNK     0      -0.340  -8.610   5.351  0.00  0.00     0.204 C 
BRANCH  12  16
HETATM   16  O   UNK     0      -1.473  -5.331   3.928  0.00  0.00    -0.390 OA
HETATM   17  H   UNK     0      -1.513  -5.813   3.085  0.00  0.00     0.210 HD
ENDBRANCH  12  16
BRANCH  14  18
HETATM   18  O   UNK     0       0.111  -7.591   3.202  0.00  0.00    -0.390 OA
HETATM   19  H   UNK     0      -0.242  -6.983   2.529  0.00  0.00     0.210 HD
ENDBRANCH  14  18
BRANCH  15  20
HETATM   20  O   UNK     0       1.014  -8.348   5.724  0.00  0.00    -0.388 OA
HETATM   21  H   UNK     0       1.481  -7.988   4.950  0.00  0.00     0.210 HD
ENDBRANCH  15  20
ENDBRANCH   8   9
ENDBRANCH   7   8
ENDBRANCH   2   7
BRANCH   6  22
HETATM   22  O   UNK     0      -4.513  -5.055   8.874  0.00  0.00    -0.311 OA
BRANCH  22  23
HETATM   23  C   UNK     0      -4.906  -4.771  10.163  0.00  0.00     0.157 A 
HETATM   24  C   UNK     0      -4.458  -5.449  11.235  0.00  0.00     0.124 A 
HETATM   25  O   UNK     0      -4.859  -5.209  12.541  0.00  0.00    -0.306 OA
HETATM   26  C   UNK     0      -5.758  -4.202  12.774  0.00  0.00     0.096 A 
HETATM   27  C   UNK     0      -6.295  -3.417  11.756  0.00  0.00     0.084 A 
HETATM   28  C   UNK     0      -6.134  -3.979  14.100  0.00  0.00     0.075 A 
HETATM   29  C   UNK     0      -5.884  -3.675  10.367  0.00  0.00     0.223 A 
HETATM   30  C   UNK     0      -7.210  -2.403  12.054  0.00  0.00     0.085 A 
HETATM   31  O   UNK     0      -6.326  -3.022   9.431  0.00  0.00    -0.284 OA
HETATM   32  C   UNK     0      -7.584  -2.182  13.380  0.00  0.00     0.074 A 
HETATM   33  C   UNK     0      -7.047  -2.967  14.401  0.00  0.00     0.071 A 
BRANCH  24  34
HETATM   34  C   UNK     0      -3.492  -6.556  11.125  0.00  0.00     0.004 A 
HETATM   35  C   UNK     0      -2.196  -6.309  10.671  0.00  0.00     0.053 A 
HETATM   36  C   UNK     0      -1.281  -7.356  10.569  0.00  0.00     0.099 A 
HETATM   37  C   UNK     0      -1.661  -8.651  10.918  0.00  0.00     0.098 A 
HETATM   38  C   UNK     0      -2.957  -8.899  11.370  0.00  0.00     0.040 A 
HETATM   39  C   UNK     0      -3.872  -7.852  11.474  0.00  0.00     0.017 A 
BRANCH  36  40
HETATM   40  O   UNK     0      -0.018  -7.102  10.123  0.00  0.00    -0.358 OA
HETATM   41  H   UNK     0       0.269  -6.228  10.435  0.00  0.00     0.217 HD
ENDBRANCH  36  40
BRANCH  37  42
HETATM   42  O   UNK     0      -0.776  -9.682  10.822  0.00  0.00    -0.358 OA
HETATM   43  H   UNK     0      -1.038 -10.396  11.424  0.00  0.00     0.217 HD
ENDBRANCH  37  42
ENDBRANCH  24  34
BRANCH  30  44
HETATM   44  O   UNK     0      -7.764  -1.609  11.097  0.00  0.00    -0.360 OA
HETATM   45  H   UNK     0      -8.256  -0.885  11.520  0.00  0.00     0.217 HD
ENDBRANCH  30  44
BRANCH  33  46
HETATM   46  O   UNK     0      -7.415  -2.748  15.693  0.00  0.00    -0.361 OA
HETATM   47  H   UNK     0      -7.919  -3.516  16.012  0.00  0.00     0.217 HD
ENDBRANCH  33  46
ENDBRANCH  22  23
ENDBRANCH   6  22
BRANCH   3  48
HETATM   48  O   UNK     0      -5.710  -9.628   6.030  0.00  0.00    -0.390 OA
HETATM   49  H   UNK     0      -5.356  -9.854   5.153  0.00  0.00     0.210 HD
ENDBRANCH   3  48
BRANCH   5  50
HETATM   50  O   UNK     0      -7.014  -5.277   7.567  0.00  0.00    -0.388 OA
HETATM   51  H   UNK     0      -7.781  -5.595   7.063  0.00  0.00     0.210 HD
ENDBRANCH   5  50
BRANCH   4  52
HETATM   52  O   UNK     0      -6.890  -7.105   5.259  0.00  0.00    -0.390 OA
HETATM   53  H   UNK     0      -7.630  -7.720   5.122  0.00  0.00     0.210 HD
ENDBRANCH   4  52
TORSDOF 16
ENDMDL
MODEL 4
REMARK VINA RESULT:      -5.1      1.870      4.984
REMARK  16 active torsions:
REMARK  status: ('A' for Active; 'I' for Inactive)
REMARK    1  A    between atoms: O_2  and  C_22 
REMARK    2  A    between atoms: O_2  and  C_26 
REMARK    3  A    between atoms: O_4  and  C_18 
REMARK    4  A    between atoms: O_5  and  C_19 
REMARK    5  A    between atoms: O_6  and  C_25 
REMARK    6  A    between atoms: O_6  and  C_29 
REMARK    7  A    between atoms: O_7  and  C_20 
REMARK    8  A    between atoms: O_8  and  C_21 
REMARK    9  A    between atoms: O_9  and  C_23 
REMARK   10  A    between atoms: O_10  and  C_24 
REMARK   11  A    between atoms: O_13  and  C_35 
REMARK   12  A    between atoms: O_14  and  C_40 
REMARK   13  A    between atoms: O_15  and  C_41 
REMARK   14  A    between atoms: O_16  and  C_43 
REMARK   15  A    between atoms: C_17  and  C_26 
REMARK   16  A    between atoms: C_30  and  C_33 
ROOT
HETATM    1  O   UNK     0      -6.267  -6.304   8.627  0.00  0.00    -0.348 OA
HETATM    2  C   UNK     0      -6.485  -4.934   8.970  0.00  0.00     0.180 C 
HETATM    3  C   UNK     0      -7.936  -4.547   8.675  0.00  0.00     0.180 C 
HETATM    4  C   UNK     0      -8.287  -4.829   7.214  0.00  0.00     0.183 C 
HETATM    5  C   UNK     0      -7.879  -6.246   6.810  0.00  0.00     0.205 C 
HETATM    6  C   UNK     0      -6.442  -6.553   7.234  0.00  0.00     0.298 C 
ENDROOT
BRANCH   2   7
HETATM    7  C   UNK     0      -6.146  -4.772  10.449  0.00  0.00     0.205 C 
BRANCH   7   8
HETATM    8  O   UNK     0      -4.915  -5.426  10.715  0.00  0.00    -0.356 OA
BRANCH   8   9
HETATM    9  C   UNK     0      -3.820  -4.516  10.664  0.00  0.00     0.291 C 
HETATM   10  O   UNK     0      -3.330  -4.328   9.333  0.00  0.00    -0.351 OA
HETATM   11  C   UNK     0      -2.771  -5.505   8.742  0.00  0.00     0.152 C 
HETATM   12  C   UNK     0      -1.595  -6.035   9.574  0.00  0.00     0.178 C 
HETATM   13  C   UNK     0      -2.344  -5.133   7.324  0.00  0.00     0.042 C 
HETATM   14  C   UNK     0      -2.034  -6.254  11.023  0.00  0.00     0.183 C 
HETATM   15  C   UNK     0      -2.704  -5.000  11.588  0.00  0.00     0.204 C 
BRANCH  12  16
HETATM   16  O   UNK     0      -1.145  -7.284   9.054  0.00  0.00    -0.390 OA
HETATM   17  H   UNK     0      -1.403  -7.328   8.118  0.00  0.00     0.210 HD
ENDBRANCH  12  16
BRANCH  14  18
HETATM   18  O   UNK     0      -0.896  -6.594  11.812  0.00  0.00    -0.390 OA
HETATM   19  H   UNK     0      -0.336  -5.802  11.881  0.00  0.00     0.210 HD
ENDBRANCH  14  18
BRANCH  15  20
HETATM   20  O   UNK     0      -1.746  -3.946  11.702  0.00  0.00    -0.388 OA
HETATM   21  H   UNK     0      -0.860  -4.342  11.768  0.00  0.00     0.210 HD
ENDBRANCH  15  20
ENDBRANCH   8   9
ENDBRANCH   7   8
ENDBRANCH   2   7
BRANCH   6  22
HETATM   22  O   UNK     0      -6.186  -7.929   6.955  0.00  0.00    -0.311 OA
BRANCH  22  23
HETATM   23  C   UNK     0      -4.870  -8.138   6.606  0.00  0.00     0.157 A 
HETATM   24  C   UNK     0      -3.998  -8.799   7.389  0.00  0.00     0.124 A 
HETATM   25  O   UNK     0      -2.661  -8.999   7.083  0.00  0.00    -0.306 OA
HETATM   26  C   UNK     0      -2.182  -8.513   5.893  0.00  0.00     0.096 A 
HETATM   27  C   UNK     0      -2.979  -7.818   4.987  0.00  0.00     0.084 A 
HETATM   28  C   UNK     0      -0.835  -8.738   5.609  0.00  0.00     0.075 A 
HETATM   29  C   UNK     0      -4.396  -7.591   5.312  0.00  0.00     0.223 A 
HETATM   30  C   UNK     0      -2.436  -7.343   3.789  0.00  0.00     0.085 A 
HETATM   31  O   UNK     0      -5.142  -6.983   4.557  0.00  0.00    -0.284 OA
HETATM   32  C   UNK     0      -1.088  -7.571   3.507  0.00  0.00     0.074 A 
HETATM   33  C   UNK     0      -0.290  -8.267   4.415  0.00  0.00     0.071 A 
BRANCH  24  34
HETATM   34  C   UNK     0      -4.380  -9.370   8.692  0.00  0.00     0.004 A 
HETATM   35  C   UNK     0      -4.371  -8.570   9.835  0.00  0.00     0.053 A 
HETATM   36  C   UNK     0      -4.734  -9.109  11.069  0.00  0.00     0.099 A 
HETATM   37  C   UNK     0      -5.105 -10.450  11.161  0.00  0.00     0.098 A 
HETATM   38  C   UNK     0      -5.114 -11.251  10.019  0.00  0.00     0.040 A 
HETATM   39  C   UNK     0      -4.752 -10.711   8.786  0.00  0.00     0.017 A 
BRANCH  36  40
HETATM   40  O   UNK     0      -4.719  -8.317  12.178  0.00  0.00    -0.358 OA
HETATM   41  H   UNK     0      -4.101  -8.682  12.831  0.00  0.00     0.217 HD
ENDBRANCH  36  40
BRANCH  37  42
HETATM   42  O   UNK     0      -5.462 -10.989  12.360  0.00  0.00    -0.358 OA
HETATM   43  H   UNK     0      -5.292 -11.944  12.354  0.00  0.00     0.217 HD
ENDBRANCH  37  42
ENDBRANCH  24  34
BRANCH  30  44
HETATM   44  O   UNK     0      -3.171  -6.659   2.870  0.00  0.00    -0.360 OA
HETATM   45  H   UNK     0      -2.934  -5.716   2.902  0.00  0.00     0.217 HD
ENDBRANCH  30  44
BRANCH  33  46
HETATM   46  O   UNK     0       1.024  -8.486   4.135  0.00  0.00    -0.361 OA
HETATM   47  H   UNK     0       1.175  -9.443   4.056  0.00  0.00     0.217 HD
ENDBRANCH  33  46
ENDBRANCH  22  23
ENDBRANCH   6  22
BRANCH   3  48
HETATM   48  O   UNK     0      -8.117  -3.159   8.942  0.00  0.00    -0.390 OA
HETATM   49  H   UNK     0      -8.889  -2.853   8.437  0.00  0.00     0.210 HD
ENDBRANCH   3  48
BRANCH   5  50
HETATM   50  O   UNK     0      -7.965  -6.379   5.392  0.00  0.00    -0.388 OA
HETATM   51  H   UNK     0      -8.052  -5.489   5.010  0.00  0.00     0.210 HD
ENDBRANCH   5  50
BRANCH   4  52
HETATM   52  O   UNK     0      -9.700  -4.679   7.062  0.00  0.00    -0.390 OA
HETATM   53  H   UNK     0      -9.910  -4.838   6.126  0.00  0.00     0.210 HD
ENDBRANCH   4  52
TORSDOF 16
ENDMDL
MODEL 5
REMARK VINA RESULT:      -5.1      1.695      2.358
REMARK  16 active torsions:
REMARK  status: ('A' for Active; 'I' for Inactive)
REMARK    1  A    between atoms: O_2  and  C_22 
REMARK    2  A    between atoms: O_2  and  C_26 
REMARK    3  A    between atoms: O_4  and  C_18 
REMARK    4  A    between atoms: O_5  and  C_19 
REMARK    5  A    between atoms: O_6  and  C_25 
REMARK    6  A    between atoms: O_6  and  C_29 
REMARK    7  A    between atoms: O_7  and  C_20 
REMARK    8  A    between atoms: O_8  and  C_21 
REMARK    9  A    between atoms: O_9  and  C_23 
REMARK   10  A    between atoms: O_10  and  C_24 
REMARK   11  A    between atoms: O_13  and  C_35 
REMARK   12  A    between atoms: O_14  and  C_40 
REMARK   13  A    between atoms: O_15  and  C_41 
REMARK   14  A    between atoms: O_16  and  C_43 
REMARK   15  A    between atoms: C_17  and  C_26 
REMARK   16  A    between atoms: C_30  and  C_33 
ROOT
HETATM    1  O   UNK     0      -4.606  -5.254   8.578  0.00  0.00    -0.348 OA
HETATM    2  C   UNK     0      -5.975  -5.422   8.953  0.00  0.00     0.180 C 
HETATM    3  C   UNK     0      -6.535  -4.100   9.484  0.00  0.00     0.180 C 
HETATM    4  C   UNK     0      -5.688  -3.578  10.644  0.00  0.00     0.183 C 
HETATM    5  C   UNK     0      -4.201  -3.577  10.288  0.00  0.00     0.205 C 
HETATM    6  C   UNK     0      -3.774  -4.915   9.685  0.00  0.00     0.298 C 
ENDROOT
BRANCH   2   7
HETATM    7  C   UNK     0      -6.733  -5.903   7.720  0.00  0.00     0.205 C 
BRANCH   7   8
HETATM    8  O   UNK     0      -7.540  -4.842   7.230  0.00  0.00    -0.356 OA
BRANCH   8   9
HETATM    9  C   UNK     0      -8.790  -5.320   6.745  0.00  0.00     0.291 C 
HETATM   10  O   UNK     0      -8.766  -5.582   5.338  0.00  0.00    -0.351 OA
HETATM   11  C   UNK     0      -8.554  -4.421   4.529  0.00  0.00     0.152 C 
HETATM   12  C   UNK     0      -9.654  -3.376   4.765  0.00  0.00     0.178 C 
HETATM   13  C   UNK     0      -8.514  -4.889   3.077  0.00  0.00     0.042 C 
HETATM   14  C   UNK     0      -9.755  -3.046   6.255  0.00  0.00     0.183 C 
HETATM   15  C   UNK     0      -9.893  -4.321   7.089  0.00  0.00     0.204 C 
BRANCH  12  16
HETATM   16  O   UNK     0      -9.350  -2.172   4.064  0.00  0.00    -0.390 OA
HETATM   17  H   UNK     0     -10.187  -1.710   3.887  0.00  0.00     0.210 HD
ENDBRANCH  12  16
BRANCH  14  18
HETATM   18  O   UNK     0     -10.880  -2.198   6.473  0.00  0.00    -0.390 OA
HETATM   19  H   UNK     0     -10.950  -1.597   5.711  0.00  0.00     0.210 HD
ENDBRANCH  14  18
BRANCH  15  20
HETATM   20  O   UNK     0     -11.148  -4.948   6.817  0.00  0.00    -0.388 OA
HETATM   21  H   UNK     0     -11.507  -4.571   5.995  0.00  0.00     0.210 HD
ENDBRANCH  15  20
ENDBRANCH   8   9
ENDBRANCH   7   8
ENDBRANCH   2   7
BRANCH   6  22
HETATM   22  O   UNK     0      -2.421  -4.789   9.249  0.00  0.00    -0.311 OA
BRANCH  22  23
HETATM   23  C   UNK     0      -2.085  -5.771   8.344  0.00  0.00     0.157 A 
HETATM   24  C   UNK     0      -1.902  -7.058   8.691  0.00  0.00     0.124 A 
HETATM   25  O   UNK     0      -1.532  -8.065   7.812  0.00  0.00    -0.306 OA
HETATM   26  C   UNK     0      -1.357  -7.747   6.490  0.00  0.00     0.096 A 
HETATM   27  C   UNK     0      -1.524  -6.455   5.996  0.00  0.00     0.084 A 
HETATM   28  C   UNK     0      -0.995  -8.783   5.628  0.00  0.00     0.075 A 
HETATM   29  C   UNK     0      -1.903  -5.380   6.925  0.00  0.00     0.223 A 
HETATM   30  C   UNK     0      -1.331  -6.189   4.637  0.00  0.00     0.085 A 
HETATM   31  O   UNK     0      -2.058  -4.226   6.550  0.00  0.00    -0.284 OA
HETATM   32  C   UNK     0      -0.969  -7.228   3.777  0.00  0.00     0.074 A 
HETATM   33  C   UNK     0      -0.802  -8.522   4.272  0.00  0.00     0.071 A 
BRANCH  24  34
HETATM   34  C   UNK     0      -2.055  -7.534  10.077  0.00  0.00     0.004 A 
HETATM   35  C   UNK     0      -1.081  -7.234  11.030  0.00  0.00     0.053 A 
HETATM   36  C   UNK     0      -1.227  -7.683  12.342  0.00  0.00     0.099 A 
HETATM   37  C   UNK     0      -2.346  -8.434  12.702  0.00  0.00     0.098 A 
HETATM   38  C   UNK     0      -3.319  -8.735  11.750  0.00  0.00     0.040 A 
HETATM   39  C   UNK     0      -3.174  -8.285  10.438  0.00  0.00     0.017 A 
BRANCH  36  40
HETATM   40  O   UNK     0      -0.268  -7.385  13.264  0.00  0.00    -0.358 OA
HETATM   41  H   UNK     0       0.608  -7.598  12.904  0.00  0.00     0.217 HD
ENDBRANCH  36  40
BRANCH  37  42
HETATM   42  O   UNK     0      -2.499  -8.877  13.981  0.00  0.00    -0.358 OA
HETATM   43  H   UNK     0      -3.439  -9.039  14.161  0.00  0.00     0.217 HD
ENDBRANCH  37  42
ENDBRANCH  24  34
BRANCH  30  44
HETATM   44  O   UNK     0      -1.480  -4.946   4.103  0.00  0.00    -0.360 OA
HETATM   45  H   UNK     0      -2.396  -4.832   3.797  0.00  0.00     0.217 HD
ENDBRANCH  30  44
BRANCH  33  46
HETATM   46  O   UNK     0      -0.449  -9.531   3.429  0.00  0.00    -0.361 OA
HETATM   47  H   UNK     0      -0.008 -10.230   3.942  0.00  0.00     0.217 HD
ENDBRANCH  33  46
ENDBRANCH  22  23
ENDBRANCH   6  22
BRANCH   3  48
HETATM   48  O   UNK     0      -7.873  -4.302   9.931  0.00  0.00    -0.390 OA
HETATM   49  H   UNK     0      -8.088  -3.599  10.566  0.00  0.00     0.210 HD
ENDBRANCH   3  48
BRANCH   5  50
HETATM   50  O   UNK     0      -3.431  -3.351  11.468  0.00  0.00    -0.388 OA
HETATM   51  H   UNK     0      -3.625  -2.454  11.787  0.00  0.00     0.210 HD
ENDBRANCH   5  50
BRANCH   4  52
HETATM   52  O   UNK     0      -6.109  -2.244  10.933  0.00  0.00    -0.390 OA
HETATM   53  H   UNK     0      -6.969  -2.300  11.383  0.00  0.00     0.210 HD
ENDBRANCH   4  52
TORSDOF 16
ENDMDL
MODEL 6
REMARK VINA RESULT:      -5.1      9.654     14.004
REMARK  16 active torsions:
REMARK  status: ('A' for Active; 'I' for Inactive)
REMARK    1  A    between atoms: O_2  and  C_22 
REMARK    2  A    between atoms: O_2  and  C_26 
REMARK    3  A    between atoms: O_4  and  C_18 
REMARK    4  A    between atoms: O_5  and  C_19 
REMARK    5  A    between atoms: O_6  and  C_25 
REMARK    6  A    between atoms: O_6  and  C_29 
REMARK    7  A    between atoms: O_7  and  C_20 
REMARK    8  A    between atoms: O_8  and  C_21 
REMARK    9  A    between atoms: O_9  and  C_23 
REMARK   10  A    between atoms: O_10  and  C_24 
REMARK   11  A    between atoms: O_13  and  C_35 
REMARK   12  A    between atoms: O_14  and  C_40 
REMARK   13  A    between atoms: O_15  and  C_41 
REMARK   14  A    between atoms: O_16  and  C_43 
REMARK   15  A    between atoms: C_17  and  C_26 
REMARK   16  A    between atoms: C_30  and  C_33 
ROOT
HETATM    1  O   UNK     0       3.125   4.254   7.765  0.00  0.00    -0.348 OA
HETATM    2  C   UNK     0       3.975   3.133   8.016  0.00  0.00     0.180 C 
HETATM    3  C   UNK     0       4.799   2.812   6.767  0.00  0.00     0.180 C 
HETATM    4  C   UNK     0       3.888   2.575   5.562  0.00  0.00     0.183 C 
HETATM    5  C   UNK     0       2.862   3.699   5.414  0.00  0.00     0.205 C 
HETATM    6  C   UNK     0       2.165   3.993   6.743  0.00  0.00     0.298 C 
ENDROOT
BRANCH   2   7
HETATM    7  C   UNK     0       4.864   3.488   9.204  0.00  0.00     0.205 C 
BRANCH   7   8
HETATM    8  O   UNK     0       4.478   2.703  10.322  0.00  0.00    -0.356 OA
BRANCH   8   9
HETATM    9  C   UNK     0       4.011   3.517  11.393  0.00  0.00     0.291 C 
HETATM   10  O   UNK     0       4.214   2.906  12.671  0.00  0.00    -0.351 OA
HETATM   11  C   UNK     0       3.474   1.697  12.867  0.00  0.00     0.152 C 
HETATM   12  C   UNK     0       1.965   1.946  12.732  0.00  0.00     0.178 C 
HETATM   13  C   UNK     0       3.843   1.167  14.251  0.00  0.00     0.042 C 
HETATM   14  C   UNK     0       1.661   2.612  11.389  0.00  0.00     0.183 C 
HETATM   15  C   UNK     0       2.534   3.850  11.182  0.00  0.00     0.204 C 
BRANCH  12  16
HETATM   16  O   UNK     0       1.254   0.711  12.785  0.00  0.00    -0.390 OA
HETATM   17  H   UNK     0       0.791   0.596  11.938  0.00  0.00     0.210 HD
ENDBRANCH  12  16
BRANCH  14  18
HETATM   18  O   UNK     0       0.283   2.977  11.348  0.00  0.00    -0.390 OA
HETATM   19  H   UNK     0       0.032   3.289  12.234  0.00  0.00     0.210 HD
ENDBRANCH  14  18
BRANCH  15  20
HETATM   20  O   UNK     0       2.178   4.861  12.126  0.00  0.00    -0.388 OA
HETATM   21  H   UNK     0       2.538   4.611  12.995  0.00  0.00     0.210 HD
ENDBRANCH  15  20
ENDBRANCH   8   9
ENDBRANCH   7   8
ENDBRANCH   2   7
BRANCH   6  22
HETATM   22  O   UNK     0       1.334   5.139   6.560  0.00  0.00    -0.311 OA
BRANCH  22  23
HETATM   23  C   UNK     0       0.300   5.166   7.469  0.00  0.00     0.157 A 
HETATM   24  C   UNK     0      -0.879   4.554   7.259  0.00  0.00     0.124 A 
HETATM   25  O   UNK     0      -1.951   4.589   8.138  0.00  0.00    -0.306 OA
HETATM   26  C   UNK     0      -1.808   5.274   9.317  0.00  0.00     0.096 A 
HETATM   27  C   UNK     0      -0.637   5.944   9.663  0.00  0.00     0.084 A 
HETATM   28  C   UNK     0      -2.900   5.283  10.185  0.00  0.00     0.075 A 
HETATM   29  C   UNK     0       0.499   5.922   8.729  0.00  0.00     0.223 A 
HETATM   30  C   UNK     0      -0.548   6.628  10.879  0.00  0.00     0.085 A 
HETATM   31  O   UNK     0       1.550   6.498   8.977  0.00  0.00    -0.284 OA
HETATM   32  C   UNK     0      -1.642   6.635  11.746  0.00  0.00     0.074 A 
HETATM   33  C   UNK     0      -2.815   5.963  11.400  0.00  0.00     0.071 A 
BRANCH  24  34
HETATM   34  C   UNK     0      -1.167   3.787   6.034  0.00  0.00     0.004 A 
HETATM   35  C   UNK     0      -1.244   2.395   6.085  0.00  0.00     0.053 A 
HETATM   36  C   UNK     0      -1.517   1.668   4.926  0.00  0.00     0.099 A 
HETATM   37  C   UNK     0      -1.712   2.333   3.716  0.00  0.00     0.098 A 
HETATM   38  C   UNK     0      -1.635   3.725   3.665  0.00  0.00     0.040 A 
HETATM   39  C   UNK     0      -1.362   4.451   4.824  0.00  0.00     0.017 A 
BRANCH  36  40
HETATM   40  O   UNK     0      -1.588   0.308   4.988  0.00  0.00    -0.358 OA
HETATM   41  H   UNK     0      -1.213  -0.075   4.179  0.00  0.00     0.217 HD
ENDBRANCH  36  40
BRANCH  37  42
HETATM   42  O   UNK     0      -1.981   1.634   2.578  0.00  0.00    -0.358 OA
HETATM   43  H   UNK     0      -1.579   2.082   1.816  0.00  0.00     0.217 HD
ENDBRANCH  37  42
ENDBRANCH  24  34
BRANCH  30  44
HETATM   44  O   UNK     0       0.571   7.299  11.265  0.00  0.00    -0.360 OA
HETATM   45  H   UNK     0       0.538   7.465  12.223  0.00  0.00     0.217 HD
ENDBRANCH  30  44
BRANCH  33  46
HETATM   46  O   UNK     0      -3.880   5.973  12.248  0.00  0.00    -0.361 OA
HETATM   47  H   UNK     0      -3.564   5.803  13.153  0.00  0.00     0.217 HD
ENDBRANCH  33  46
ENDBRANCH  22  23
ENDBRANCH   6  22
BRANCH   3  48
HETATM   48  O   UNK     0       5.579   1.643   7.004  0.00  0.00    -0.390 OA
HETATM   49  H   UNK     0       5.736   1.207   6.150  0.00  0.00     0.210 HD
ENDBRANCH   3  48
BRANCH   5  50
HETATM   50  O   UNK     0       1.869   3.313   4.464  0.00  0.00    -0.388 OA
HETATM   51  H   UNK     0       2.177   2.506   4.018  0.00  0.00     0.210 HD
ENDBRANCH   5  50
BRANCH   4  52
HETATM   52  O   UNK     0       4.708   2.523   4.392  0.00  0.00    -0.390 OA
HETATM   53  H   UNK     0       5.119   1.643   4.364  0.00  0.00     0.210 HD
ENDBRANCH   4  52
TORSDOF 16
ENDMDL
MODEL 7
REMARK VINA RESULT:      -5.1      2.298      5.895
REMARK  16 active torsions:
REMARK  status: ('A' for Active; 'I' for Inactive)
REMARK    1  A    between atoms: O_2  and  C_22 
REMARK    2  A    between atoms: O_2  and  C_26 
REMARK    3  A    between atoms: O_4  and  C_18 
REMARK    4  A    between atoms: O_5  and  C_19 
REMARK    5  A    between atoms: O_6  and  C_25 
REMARK    6  A    between atoms: O_6  and  C_29 
REMARK    7  A    between atoms: O_7  and  C_20 
REMARK    8  A    between atoms: O_8  and  C_21 
REMARK    9  A    between atoms: O_9  and  C_23 
REMARK   10  A    between atoms: O_10  and  C_24 
REMARK   11  A    between atoms: O_13  and  C_35 
REMARK   12  A    between atoms: O_14  and  C_40 
REMARK   13  A    between atoms: O_15  and  C_41 
REMARK   14  A    between atoms: O_16  and  C_43 
REMARK   15  A    between atoms: C_17  and  C_26 
REMARK   16  A    between atoms: C_30  and  C_33 
ROOT
HETATM    1  O   UNK     0      -4.912  -5.536   9.154  0.00  0.00    -0.348 OA
HETATM    2  C   UNK     0      -5.051  -5.825  10.547  0.00  0.00     0.180 C 
HETATM    3  C   UNK     0      -4.056  -4.988  11.355  0.00  0.00     0.180 C 
HETATM    4  C   UNK     0      -2.627  -5.223  10.866  0.00  0.00     0.183 C 
HETATM    5  C   UNK     0      -2.532  -5.089   9.346  0.00  0.00     0.205 C 
HETATM    6  C   UNK     0      -3.628  -5.894   8.648  0.00  0.00     0.298 C 
ENDROOT
BRANCH   2   7
HETATM    7  C   UNK     0      -6.494  -5.520  10.937  0.00  0.00     0.205 C 
BRANCH   7   8
HETATM    8  O   UNK     0      -6.571  -4.187  11.420  0.00  0.00    -0.356 OA
BRANCH   8   9
HETATM    9  C   UNK     0      -6.878  -3.271  10.375  0.00  0.00     0.291 C 
HETATM   10  O   UNK     0      -7.221  -1.973  10.870  0.00  0.00    -0.351 OA
HETATM   11  C   UNK     0      -8.417  -1.943  11.657  0.00  0.00     0.152 C 
HETATM   12  C   UNK     0      -9.622  -2.440  10.846  0.00  0.00     0.178 C 
HETATM   13  C   UNK     0      -8.602  -0.504  12.133  0.00  0.00     0.042 C 
HETATM   14  C   UNK     0      -9.332  -3.825  10.268  0.00  0.00     0.183 C 
HETATM   15  C   UNK     0      -8.003  -3.834   9.509  0.00  0.00     0.204 C 
BRANCH  12  16
HETATM   16  O   UNK     0     -10.772  -2.542  11.684  0.00  0.00    -0.390 OA
HETATM   17  H   UNK     0     -11.500  -2.065  11.250  0.00  0.00     0.210 HD
ENDBRANCH  12  16
BRANCH  14  18
HETATM   18  O   UNK     0     -10.393  -4.201   9.393  0.00  0.00    -0.390 OA
HETATM   19  H   UNK     0     -10.796  -3.385   9.048  0.00  0.00     0.210 HD
ENDBRANCH  14  18
BRANCH  15  20
HETATM   20  O   UNK     0      -8.104  -3.017   8.341  0.00  0.00    -0.388 OA
HETATM   21  H   UNK     0      -7.500  -2.261   8.443  0.00  0.00     0.210 HD
ENDBRANCH  15  20
ENDBRANCH   8   9
ENDBRANCH   7   8
ENDBRANCH   2   7
BRANCH   6  22
HETATM   22  O   UNK     0      -3.564  -5.605   7.252  0.00  0.00    -0.311 OA
BRANCH  22  23
HETATM   23  C   UNK     0      -3.398  -6.751   6.504  0.00  0.00     0.157 A 
HETATM   24  C   UNK     0      -4.409  -7.585   6.204  0.00  0.00     0.124 A 
HETATM   25  O   UNK     0      -4.271  -8.761   5.483  0.00  0.00    -0.306 OA
HETATM   26  C   UNK     0      -3.026  -9.101   5.019  0.00  0.00     0.096 A 
HETATM   27  C   UNK     0      -1.895  -8.322   5.251  0.00  0.00     0.084 A 
HETATM   28  C   UNK     0      -2.921 -10.285   4.288  0.00  0.00     0.075 A 
HETATM   29  C   UNK     0      -2.033  -7.080   6.027  0.00  0.00     0.223 A 
HETATM   30  C   UNK     0      -0.650  -8.720   4.755  0.00  0.00     0.085 A 
HETATM   31  O   UNK     0      -1.074  -6.359   6.268  0.00  0.00    -0.284 OA
HETATM   32  C   UNK     0      -0.548  -9.904   4.024  0.00  0.00     0.074 A 
HETATM   33  C   UNK     0      -1.680 -10.685   3.791  0.00  0.00     0.071 A 
BRANCH  24  34
HETATM   34  C   UNK     0      -5.795  -7.340   6.642  0.00  0.00     0.004 A 
HETATM   35  C   UNK     0      -6.512  -6.264   6.119  0.00  0.00     0.053 A 
HETATM   36  C   UNK     0      -7.824  -6.032   6.531  0.00  0.00     0.099 A 
HETATM   37  C   UNK     0      -8.419  -6.876   7.468  0.00  0.00     0.098 A 
HETATM   38  C   UNK     0      -7.702  -7.952   7.992  0.00  0.00     0.040 A 
HETATM   39  C   UNK     0      -6.391  -8.184   7.579  0.00  0.00     0.017 A 
BRANCH  36  40
HETATM   40  O   UNK     0      -8.514  -4.977   6.014  0.00  0.00    -0.358 OA
HETATM   41  H   UNK     0      -8.063  -4.651   5.218  0.00  0.00     0.217 HD
ENDBRANCH  36  40
BRANCH  37  42
HETATM   42  O   UNK     0      -9.700  -6.661   7.879  0.00  0.00    -0.358 OA
HETATM   43  H   UNK     0     -10.260  -7.405   7.609  0.00  0.00     0.217 HD
ENDBRANCH  37  42
ENDBRANCH  24  34
BRANCH  30  44
HETATM   44  O   UNK     0       0.485  -7.996   4.954  0.00  0.00    -0.360 OA
HETATM   45  H   UNK     0       0.358  -7.092   4.618  0.00  0.00     0.217 HD
ENDBRANCH  30  44
BRANCH  33  46
HETATM   46  O   UNK     0      -1.575 -11.839   3.077  0.00  0.00    -0.361 OA
HETATM   47  H   UNK     0      -2.467 -12.187   2.906  0.00  0.00     0.217 HD
ENDBRANCH  33  46
ENDBRANCH  22  23
ENDBRANCH   6  22
BRANCH   3  48
HETATM   48  O   UNK     0      -4.148  -5.347  12.731  0.00  0.00    -0.390 OA
HETATM   49  H   UNK     0      -4.270  -4.532  13.247  0.00  0.00     0.210 HD
ENDBRANCH   3  48
BRANCH   5  50
HETATM   50  O   UNK     0      -1.266  -5.578   8.905  0.00  0.00    -0.388 OA
HETATM   51  H   UNK     0      -0.791  -5.925   9.679  0.00  0.00     0.210 HD
ENDBRANCH   5  50
BRANCH   4  52
HETATM   52  O   UNK     0      -1.784  -4.248  11.483  0.00  0.00    -0.390 OA
HETATM   53  H   UNK     0      -2.211  -3.382  11.372  0.00  0.00     0.210 HD
ENDBRANCH   4  52
TORSDOF 16
ENDMDL
MODEL 8
REMARK VINA RESULT:      -5.0      1.981      7.196
REMARK  16 active torsions:
REMARK  status: ('A' for Active; 'I' for Inactive)
REMARK    1  A    between atoms: O_2  and  C_22 
REMARK    2  A    between atoms: O_2  and  C_26 
REMARK    3  A    between atoms: O_4  and  C_18 
REMARK    4  A    between atoms: O_5  and  C_19 
REMARK    5  A    between atoms: O_6  and  C_25 
REMARK    6  A    between atoms: O_6  and  C_29 
REMARK    7  A    between atoms: O_7  and  C_20 
REMARK    8  A    between atoms: O_8  and  C_21 
REMARK    9  A    between atoms: O_9  and  C_23 
REMARK   10  A    between atoms: O_10  and  C_24 
REMARK   11  A    between atoms: O_13  and  C_35 
REMARK   12  A    between atoms: O_14  and  C_40 
REMARK   13  A    between atoms: O_15  and  C_41 
REMARK   14  A    between atoms: O_16  and  C_43 
REMARK   15  A    between atoms: C_17  and  C_26 
REMARK   16  A    between atoms: C_30  and  C_33 
ROOT
HETATM    1  O   UNK     0      -6.739  -6.210   8.912  0.00  0.00    -0.348 OA
HETATM    2  C   UNK     0      -7.543  -5.160   8.371  0.00  0.00     0.180 C 
HETATM    3  C   UNK     0      -8.049  -5.553   6.980  0.00  0.00     0.180 C 
HETATM    4  C   UNK     0      -6.881  -5.906   6.059  0.00  0.00     0.183 C 
HETATM    5  C   UNK     0      -5.928  -6.897   6.727  0.00  0.00     0.205 C 
HETATM    6  C   UNK     0      -5.562  -6.448   8.142  0.00  0.00     0.298 C 
ENDROOT
BRANCH   2   7
HETATM    7  C   UNK     0      -8.694  -4.917   9.343  0.00  0.00     0.205 C 
BRANCH   7   8
HETATM    8  O   UNK     0      -8.174  -4.387  10.552  0.00  0.00    -0.356 OA
BRANCH   8   9
HETATM    9  C   UNK     0      -7.801  -3.021  10.404  0.00  0.00     0.291 C 
HETATM   10  O   UNK     0      -6.435  -2.868  10.006  0.00  0.00    -0.351 OA
HETATM   11  C   UNK     0      -5.487  -3.336  10.971  0.00  0.00     0.152 C 
HETATM   12  C   UNK     0      -5.645  -2.590  12.304  0.00  0.00     0.178 C 
HETATM   13  C   UNK     0      -4.099  -3.137  10.367  0.00  0.00     0.042 C 
HETATM   14  C   UNK     0      -7.089  -2.694  12.797  0.00  0.00     0.183 C 
HETATM   15  C   UNK     0      -8.072  -2.267  11.705  0.00  0.00     0.204 C 
BRANCH  12  16
HETATM   16  O   UNK     0      -4.796  -3.165  13.295  0.00  0.00    -0.390 OA
HETATM   17  H   UNK     0      -4.346  -3.929  12.896  0.00  0.00     0.210 HD
ENDBRANCH  12  16
BRANCH  14  18
HETATM   18  O   UNK     0      -7.253  -1.869  13.948  0.00  0.00    -0.390 OA
HETATM   19  H   UNK     0      -7.796  -2.358  14.589  0.00  0.00     0.210 HD
ENDBRANCH  14  18
BRANCH  15  20
HETATM   20  O   UNK     0      -7.927  -0.872  11.438  0.00  0.00    -0.388 OA
HETATM   21  H   UNK     0      -8.728  -0.562  10.981  0.00  0.00     0.210 HD
ENDBRANCH  15  20
ENDBRANCH   8   9
ENDBRANCH   7   8
ENDBRANCH   2   7
BRANCH   6  22
HETATM   22  O   UNK     0      -4.793  -7.486   8.748  0.00  0.00    -0.311 OA
BRANCH  22  23
HETATM   23  C   UNK     0      -3.956  -6.994   9.725  0.00  0.00     0.157 A 
HETATM   24  C   UNK     0      -2.721  -6.526   9.467  0.00  0.00     0.124 A 
HETATM   25  O   UNK     0      -1.843  -6.054  10.430  0.00  0.00    -0.306 OA
HETATM   26  C   UNK     0      -2.253  -6.037  11.738  0.00  0.00     0.096 A 
HETATM   27  C   UNK     0      -3.509  -6.484  12.141  0.00  0.00     0.084 A 
HETATM   28  C   UNK     0      -1.350  -5.547  12.683  0.00  0.00     0.075 A 
HETATM   29  C   UNK     0      -4.441  -6.999  11.126  0.00  0.00     0.223 A 
HETATM   30  C   UNK     0      -3.874  -6.445  13.490  0.00  0.00     0.085 A 
HETATM   31  O   UNK     0      -5.555  -7.410  11.421  0.00  0.00    -0.284 OA
HETATM   32  C   UNK     0      -2.969  -5.954  14.433  0.00  0.00     0.074 A 
HETATM   33  C   UNK     0      -1.710  -5.506  14.030  0.00  0.00     0.071 A 
BRANCH  24  34
HETATM   34  C   UNK     0      -2.156  -6.490   8.107  0.00  0.00     0.004 A 
HETATM   35  C   UNK     0      -2.006  -5.271   7.445  0.00  0.00     0.053 A 
HETATM   36  C   UNK     0      -1.470  -5.235   6.159  0.00  0.00     0.099 A 
HETATM   37  C   UNK     0      -1.083  -6.420   5.532  0.00  0.00     0.098 A 
HETATM   38  C   UNK     0      -1.232  -7.639   6.193  0.00  0.00     0.040 A 
HETATM   39  C   UNK     0      -1.768  -7.674   7.480  0.00  0.00     0.017 A 
BRANCH  36  40
HETATM   40  O   UNK     0      -1.331  -4.038   5.522  0.00  0.00    -0.358 OA
HETATM   41  H   UNK     0      -1.294  -4.181   4.563  0.00  0.00     0.217 HD
ENDBRANCH  36  40
BRANCH  37  42
HETATM   42  O   UNK     0      -0.557  -6.398   4.276  0.00  0.00    -0.358 OA
HETATM   43  H   UNK     0      -0.100  -7.235   4.098  0.00  0.00     0.217 HD
ENDBRANCH  37  42
ENDBRANCH  24  34
BRANCH  30  44
HETATM   44  O   UNK     0      -5.087  -6.869  13.936  0.00  0.00    -0.360 OA
HETATM   45  H   UNK     0      -5.063  -6.965  14.904  0.00  0.00     0.217 HD
ENDBRANCH  30  44
BRANCH  33  46
HETATM   46  O   UNK     0      -0.831  -5.028  14.953  0.00  0.00    -0.361 OA
HETATM   47  H   UNK     0      -0.463  -4.187  14.632  0.00  0.00     0.217 HD
ENDBRANCH  33  46
ENDBRANCH  22  23
ENDBRANCH   6  22
BRANCH   3  48
HETATM   48  O   UNK     0      -8.779  -4.465   6.420  0.00  0.00    -0.390 OA
HETATM   49  H   UNK     0      -9.320  -4.071   7.125  0.00  0.00     0.210 HD
ENDBRANCH   3  48
BRANCH   5  50
HETATM   50  O   UNK     0      -4.727  -6.989   5.962  0.00  0.00    -0.388 OA
HETATM   51  H   UNK     0      -4.150  -7.647   6.385  0.00  0.00     0.210 HD
ENDBRANCH   5  50
BRANCH   4  52
HETATM   52  O   UNK     0      -7.418  -6.490   4.870  0.00  0.00    -0.390 OA
HETATM   53  H   UNK     0      -6.935  -6.112   4.116  0.00  0.00     0.210 HD
ENDBRANCH   4  52
TORSDOF 16
ENDMDL
MODEL 9
REMARK VINA RESULT:      -5.0      3.015      7.226
REMARK  16 active torsions:
REMARK  status: ('A' for Active; 'I' for Inactive)
REMARK    1  A    between atoms: O_2  and  C_22 
REMARK    2  A    between atoms: O_2  and  C_26 
REMARK    3  A    between atoms: O_4  and  C_18 
REMARK    4  A    between atoms: O_5  and  C_19 
REMARK    5  A    between atoms: O_6  and  C_25 
REMARK    6  A    between atoms: O_6  and  C_29 
REMARK    7  A    between atoms: O_7  and  C_20 
REMARK    8  A    between atoms: O_8  and  C_21 
REMARK    9  A    between atoms: O_9  and  C_23 
REMARK   10  A    between atoms: O_10  and  C_24 
REMARK   11  A    between atoms: O_13  and  C_35 
REMARK   12  A    between atoms: O_14  and  C_40 
REMARK   13  A    between atoms: O_15  and  C_41 
REMARK   14  A    between atoms: O_16  and  C_43 
REMARK   15  A    between atoms: C_17  and  C_26 
REMARK   16  A    between atoms: C_30  and  C_33 
ROOT
HETATM    1  O   UNK     0      -1.387  -7.550   7.591  0.00  0.00    -0.348 OA
HETATM    2  C   UNK     0      -1.846  -8.244   6.430  0.00  0.00     0.180 C 
HETATM    3  C   UNK     0      -1.387  -7.510   5.168  0.00  0.00     0.180 C 
HETATM    4  C   UNK     0      -1.859  -6.056   5.184  0.00  0.00     0.183 C 
HETATM    5  C   UNK     0      -1.518  -5.378   6.511  0.00  0.00     0.205 C 
HETATM    6  C   UNK     0      -1.941  -6.241   7.700  0.00  0.00     0.298 C 
ENDROOT
BRANCH   2   7
HETATM    7  C   UNK     0      -1.289  -9.663   6.493  0.00  0.00     0.205 C 
BRANCH   7   8
HETATM    8  O   UNK     0      -0.265  -9.715   7.474  0.00  0.00    -0.356 OA
BRANCH   8   9
HETATM    9  C   UNK     0       0.763 -10.628   7.107  0.00  0.00     0.291 C 
HETATM   10  O   UNK     0       1.868 -10.601   8.016  0.00  0.00    -0.351 OA
HETATM   11  C   UNK     0       2.571  -9.355   8.048  0.00  0.00     0.152 C 
HETATM   12  C   UNK     0       3.130  -9.001   6.663  0.00  0.00     0.178 C 
HETATM   13  C   UNK     0       3.676  -9.492   9.092  0.00  0.00     0.042 C 
HETATM   14  C   UNK     0       2.009  -9.020   5.623  0.00  0.00     0.183 C 
HETATM   15  C   UNK     0       1.229 -10.335   5.682  0.00  0.00     0.204 C 
BRANCH  12  16
HETATM   16  O   UNK     0       3.698  -7.694   6.678  0.00  0.00    -0.390 OA
HETATM   17  H   UNK     0       3.002  -7.068   6.941  0.00  0.00     0.210 HD
ENDBRANCH  12  16
BRANCH  14  18
HETATM   18  O   UNK     0       2.570  -8.846   4.324  0.00  0.00    -0.390 OA
HETATM   19  H   UNK     0       3.536  -8.936   4.403  0.00  0.00     0.210 HD
ENDBRANCH  14  18
BRANCH  15  20
HETATM   20  O   UNK     0       2.066 -11.416   5.266  0.00  0.00    -0.388 OA
HETATM   21  H   UNK     0       2.861 -11.421   5.826  0.00  0.00     0.210 HD
ENDBRANCH  15  20
ENDBRANCH   8   9
ENDBRANCH   7   8
ENDBRANCH   2   7
BRANCH   6  22
HETATM   22  O   UNK     0      -1.464  -5.614   8.890  0.00  0.00    -0.311 OA
BRANCH  22  23
HETATM   23  C   UNK     0      -2.427  -5.597   9.875  0.00  0.00     0.157 A 
HETATM   24  C   UNK     0      -2.529  -6.549  10.820  0.00  0.00     0.124 A 
HETATM   25  O   UNK     0      -3.505  -6.579  11.805  0.00  0.00    -0.306 OA
HETATM   26  C   UNK     0      -4.426  -5.564  11.844  0.00  0.00     0.096 A 
HETATM   27  C   UNK     0      -4.429  -4.512  10.931  0.00  0.00     0.084 A 
HETATM   28  C   UNK     0      -5.389  -5.617  12.852  0.00  0.00     0.075 A 
HETATM   29  C   UNK     0      -3.404  -4.482   9.876  0.00  0.00     0.223 A 
HETATM   30  C   UNK     0      -5.394  -3.505  11.018  0.00  0.00     0.085 A 
HETATM   31  O   UNK     0      -3.361  -3.586   9.043  0.00  0.00    -0.284 OA
HETATM   32  C   UNK     0      -6.356  -3.560  12.028  0.00  0.00     0.074 A 
HETATM   33  C   UNK     0      -6.354  -4.613  12.943  0.00  0.00     0.071 A 
BRANCH  24  34
HETATM   34  C   UNK     0      -1.606  -7.696  10.892  0.00  0.00     0.004 A 
HETATM   35  C   UNK     0      -0.284  -7.504  11.295  0.00  0.00     0.053 A 
HETATM   36  C   UNK     0       0.589  -8.589  11.364  0.00  0.00     0.099 A 
HETATM   37  C   UNK     0       0.142  -9.867  11.030  0.00  0.00     0.098 A 
HETATM   38  C   UNK     0      -1.180 -10.059  10.626  0.00  0.00     0.040 A 
HETATM   39  C   UNK     0      -2.053  -8.974  10.557  0.00  0.00     0.017 A 
BRANCH  36  40
HETATM   40  O   UNK     0       1.878  -8.388  11.758  0.00  0.00    -0.358 OA
HETATM   41  H   UNK     0       1.954  -7.528  12.201  0.00  0.00     0.217 HD
ENDBRANCH  36  40
BRANCH  37  42
HETATM   42  O   UNK     0       0.985 -10.934  11.094  0.00  0.00    -0.358 OA
HETATM   43  H   UNK     0       0.987 -11.296  11.994  0.00  0.00     0.217 HD
ENDBRANCH  37  42
ENDBRANCH  24  34
BRANCH  30  44
HETATM   44  O   UNK     0      -5.442  -2.456  10.151  0.00  0.00    -0.360 OA
HETATM   45  H   UNK     0      -6.300  -2.004  10.235  0.00  0.00     0.217 HD
ENDBRANCH  30  44
BRANCH  33  46
HETATM   46  O   UNK     0      -7.294  -4.663  13.925  0.00  0.00    -0.361 OA
HETATM   47  H   UNK     0      -7.225  -3.860  14.470  0.00  0.00     0.217 HD
ENDBRANCH  33  46
ENDBRANCH  22  23
ENDBRANCH   6  22
BRANCH   3  48
HETATM   48  O   UNK     0      -1.922  -8.166   4.021  0.00  0.00    -0.390 OA
HETATM   49  H   UNK     0      -2.697  -7.662   3.720  0.00  0.00     0.210 HD
ENDBRANCH   3  48
BRANCH   5  50
HETATM   50  O   UNK     0      -2.205  -4.130   6.596  0.00  0.00    -0.388 OA
HETATM   51  H   UNK     0      -1.540  -3.423   6.642  0.00  0.00     0.210 HD
ENDBRANCH   5  50
BRANCH   4  52
HETATM   52  O   UNK     0      -1.203  -5.368   4.117  0.00  0.00    -0.390 OA
HETATM   53  H   UNK     0      -0.686  -4.645   4.511  0.00  0.00     0.210 HD
ENDBRANCH   4  52
TORSDOF 16
ENDMDL
MODEL 10
REMARK VINA RESULT:      -5.0      4.560      8.071
REMARK  16 active torsions:
REMARK  status: ('A' for Active; 'I' for Inactive)
REMARK    1  A    between atoms: O_2  and  C_22 
REMARK    2  A    between atoms: O_2  and  C_26 
REMARK    3  A    between atoms: O_4  and  C_18 
REMARK    4  A    between atoms: O_5  and  C_19 
REMARK    5  A    between atoms: O_6  and  C_25 
REMARK    6  A    between atoms: O_6  and  C_29 
REMARK    7  A    between atoms: O_7  and  C_20 
REMARK    8  A    between atoms: O_8  and  C_21 
REMARK    9  A    between atoms: O_9  and  C_23 
REMARK   10  A    between atoms: O_10  and  C_24 
REMARK   11  A    between atoms: O_13  and  C_35 
REMARK   12  A    between atoms: O_14  and  C_40 
REMARK   13  A    between atoms: O_15  and  C_41 
REMARK   14  A    between atoms: O_16  and  C_43 
REMARK   15  A    between atoms: C_17  and  C_26 
REMARK   16  A    between atoms: C_30  and  C_33 
ROOT
HETATM    1  O   UNK     0       0.334  -6.990  12.409  0.00  0.00    -0.348 OA
HETATM    2  C   UNK     0       0.589  -7.911  11.347  0.00  0.00     0.180 C 
HETATM    3  C   UNK     0       0.963  -9.280  11.922  0.00  0.00     0.180 C 
HETATM    4  C   UNK     0       2.155  -9.162  12.872  0.00  0.00     0.183 C 
HETATM    5  C   UNK     0       1.942  -8.045  13.893  0.00  0.00     0.205 C 
HETATM    6  C   UNK     0       1.485  -6.752  13.215  0.00  0.00     0.298 C 
ENDROOT
BRANCH   2   7
HETATM    7  C   UNK     0      -0.670  -7.983  10.488  0.00  0.00     0.205 C 
BRANCH   7   8
HETATM    8  O   UNK     0      -0.782  -6.788   9.731  0.00  0.00    -0.356 OA
BRANCH   8   9
HETATM    9  C   UNK     0      -2.124  -6.315   9.700  0.00  0.00     0.291 C 
HETATM   10  O   UNK     0      -3.033  -7.286   9.174  0.00  0.00    -0.351 OA
HETATM   11  C   UNK     0      -2.802  -7.624   7.803  0.00  0.00     0.152 C 
HETATM   12  C   UNK     0      -2.912  -6.385   6.903  0.00  0.00     0.178 C 
HETATM   13  C   UNK     0      -3.825  -8.694   7.428  0.00  0.00     0.042 C 
HETATM   14  C   UNK     0      -1.975  -5.286   7.406  0.00  0.00     0.183 C 
HETATM   15  C   UNK     0      -2.196  -5.017   8.896  0.00  0.00     0.204 C 
BRANCH  12  16
HETATM   16  O   UNK     0      -2.537  -6.710   5.567  0.00  0.00    -0.390 OA
HETATM   17  H   UNK     0      -1.856  -6.076   5.285  0.00  0.00     0.210 HD
ENDBRANCH  12  16
BRANCH  14  18
HETATM   18  O   UNK     0      -2.205  -4.094   6.658  0.00  0.00    -0.390 OA
HETATM   19  H   UNK     0      -1.959  -3.339   7.221  0.00  0.00     0.210 HD
ENDBRANCH  14  18
BRANCH  15  20
HETATM   20  O   UNK     0      -3.490  -4.449   9.102  0.00  0.00    -0.388 OA
HETATM   21  H   UNK     0      -4.084  -5.148   9.426  0.00  0.00     0.210 HD
ENDBRANCH  15  20
ENDBRANCH   8   9
ENDBRANCH   7   8
ENDBRANCH   2   7
BRANCH   6  22
HETATM   22  O   UNK     0       1.171  -5.807  14.237  0.00  0.00    -0.311 OA
BRANCH  22  23
HETATM   23  C   UNK     0       1.506  -4.525  13.863  0.00  0.00     0.157 A 
HETATM   24  C   UNK     0       0.599  -3.543  13.709  0.00  0.00     0.124 A 
HETATM   25  O   UNK     0       0.899  -2.252  13.302  0.00  0.00    -0.306 OA
HETATM   26  C   UNK     0       2.209  -1.932  13.054  0.00  0.00     0.096 A 
HETATM   27  C   UNK     0       3.248  -2.851  13.183  0.00  0.00     0.084 A 
HETATM   28  C   UNK     0       2.480  -0.622  12.656  0.00  0.00     0.075 A 
HETATM   29  C   UNK     0       2.935  -4.226  13.602  0.00  0.00     0.223 A 
HETATM   30  C   UNK     0       4.566  -2.468  12.916  0.00  0.00     0.085 A 
HETATM   31  O   UNK     0       3.805  -5.077  13.726  0.00  0.00    -0.284 OA
HETATM   32  C   UNK     0       4.834  -1.158  12.518  0.00  0.00     0.074 A 
HETATM   33  C   UNK     0       3.794  -0.237  12.388  0.00  0.00     0.071 A 
BRANCH  24  34
HETATM   34  C   UNK     0      -0.841  -3.752  13.940  0.00  0.00     0.004 A 
HETATM   35  C   UNK     0      -1.680  -4.072  12.872  0.00  0.00     0.053 A 
HETATM   36  C   UNK     0      -3.043  -4.271  13.090  0.00  0.00     0.099 A 
HETATM   37  C   UNK     0      -3.568  -4.150  14.377  0.00  0.00     0.098 A 
HETATM   38  C   UNK     0      -2.730  -3.830  15.445  0.00  0.00     0.040 A 
HETATM   39  C   UNK     0      -1.367  -3.632  15.226  0.00  0.00     0.017 A 
BRANCH  36  40
HETATM   40  O   UNK     0      -3.853  -4.581  12.039  0.00  0.00    -0.358 OA
HETATM   41  H   UNK     0      -4.652  -5.028  12.363  0.00  0.00     0.217 HD
ENDBRANCH  36  40
BRANCH  37  42
HETATM   42  O   UNK     0      -4.898  -4.343  14.603  0.00  0.00    -0.358 OA
HETATM   43  H   UNK     0      -5.061  -5.275  14.818  0.00  0.00     0.217 HD
ENDBRANCH  37  42
ENDBRANCH  24  34
BRANCH  30  44
HETATM   44  O   UNK     0       5.616  -3.326  13.026  0.00  0.00    -0.360 OA
HETATM   45  H   UNK     0       5.305  -4.178  13.378  0.00  0.00     0.217 HD
ENDBRANCH  30  44
BRANCH  33  46
HETATM   46  O   UNK     0       4.060   1.040  12.000  0.00  0.00    -0.361 OA
HETATM   47  H   UNK     0       4.395   1.540  12.764  0.00  0.00     0.217 HD
ENDBRANCH  33  46
ENDBRANCH  22  23
ENDBRANCH   6  22
BRANCH   3  48
HETATM   48  O   UNK     0       1.296 -10.164  10.856  0.00  0.00    -0.390 OA
HETATM   49  H   UNK     0       1.229 -11.075  11.188  0.00  0.00     0.210 HD
ENDBRANCH   3  48
BRANCH   5  50
HETATM   50  O   UNK     0       3.168  -7.784  14.574  0.00  0.00    -0.388 OA
HETATM   51  H   UNK     0       3.803  -8.477  14.327  0.00  0.00     0.210 HD
ENDBRANCH   5  50
BRANCH   4  52
HETATM   52  O   UNK     0       2.300 -10.409  13.555  0.00  0.00    -0.390 OA
HETATM   53  H   UNK     0       2.032 -10.267  14.479  0.00  0.00     0.210 HD
ENDBRANCH   4  52
TORSDOF 16
ENDMDL
