MODEL 1
REMARK VINA RESULT:      -7.0      0.000      0.000
REMARK  5 active torsions:
REMARK  status: ('A' for Active; 'I' for Inactive)
REMARK    1  A    between atoms: C_3  and  O_1 
REMARK    2  A    between atoms: C_4  and  O_14 
REMARK    3  A    between atoms: C_7  and  C_8 
REMARK    4  A    between atoms: C_9  and  C_10 
REMARK    5  A    between atoms: C_10  and  O_12 
ROOT
ATOM      1  C   LIG     1      -6.915  51.643  23.924  0.00  0.00     0.162 A 
ATOM      2  C   LIG     1      -7.449  50.357  23.837  0.00  0.00     0.158 A 
ATOM      3  C   LIG     1      -8.799  50.182  23.531  0.00  0.00     0.050 A 
ATOM      4  C   LIG     1      -9.614  51.292  23.313  0.00  0.00     0.012 A 
ATOM      5  C   LIG     1      -9.080  52.577  23.400  0.00  0.00    -0.021 A 
ATOM      6  C   LIG     1      -7.731  52.753  23.706  0.00  0.00     0.057 A 
ENDROOT
BRANCH   5   7
ATOM      7  C   LIG     1      -9.931  53.734  23.172  0.00  0.00     0.015 C 
ATOM      8  C   LIG     1     -10.362  54.589  24.126  0.00  0.00     0.092 C 
BRANCH   8   9
ATOM      9  C   LIG     1     -11.217  55.736  23.762  0.00  0.00     0.330 C 
ATOM     10  O   LIG     1     -12.418  55.708  23.550  0.00  0.00    -0.246 OA
BRANCH   9  11
ATOM     11  O   LIG     1     -10.447  56.848  23.699  0.00  0.00    -0.478 OA
ATOM     12  H   LIG     1     -10.969  57.665  23.846  0.00  0.00     0.295 HD
ENDBRANCH   9  11
ENDBRANCH   8   9
ENDBRANCH   5   7
BRANCH   1  13
ATOM     13  O   LIG     1      -5.599  51.826  24.224  0.00  0.00    -0.491 OA
ATOM     14  C   LIG     1      -5.189  53.152  24.554  0.00  0.00     0.277 C 
ENDBRANCH   1  13
BRANCH   2  15
ATOM     15  O   LIG     1      -6.663  49.265  24.049  0.00  0.00    -0.503 OA
ATOM     16  H   LIG     1      -7.169  48.603  24.552  0.00  0.00     0.292 HD
ENDBRANCH   2  15
TORSDOF 5
ENDMDL
MODEL 2
REMARK VINA RESULT:      -5.8     12.660     14.519
REMARK  5 active torsions:
REMARK  status: ('A' for Active; 'I' for Inactive)
REMARK    1  A    between atoms: C_3  and  O_1 
REMARK    2  A    between atoms: C_4  and  O_14 
REMARK    3  A    between atoms: C_7  and  C_8 
REMARK    4  A    between atoms: C_9  and  C_10 
REMARK    5  A    between atoms: C_10  and  O_12 
ROOT
ATOM      1  C   LIG     1     -13.527  46.619  33.118  0.00  0.00     0.162 A 
ATOM      2  C   LIG     1     -14.193  47.492  33.979  0.00  0.00     0.158 A 
ATOM      3  C   LIG     1     -13.681  47.743  35.251  0.00  0.00     0.050 A 
ATOM      4  C   LIG     1     -12.502  47.120  35.664  0.00  0.00     0.012 A 
ATOM      5  C   LIG     1     -11.837  46.247  34.804  0.00  0.00    -0.021 A 
ATOM      6  C   LIG     1     -12.349  45.996  33.531  0.00  0.00     0.057 A 
ENDROOT
BRANCH   5   7
ATOM      7  C   LIG     1     -10.609  45.599  35.234  0.00  0.00     0.015 C 
ATOM      8  C   LIG     1     -10.526  44.606  36.148  0.00  0.00     0.092 C 
BRANCH   8   9
ATOM      9  C   LIG     1      -9.215  44.022  36.492  0.00  0.00     0.330 C 
ATOM     10  O   LIG     1      -8.295  44.590  37.058  0.00  0.00    -0.246 OA
BRANCH   9  11
ATOM     11  O   LIG     1      -9.189  42.735  36.074  0.00  0.00    -0.478 OA
ATOM     12  H   LIG     1      -8.900  42.658  35.140  0.00  0.00     0.295 HD
ENDBRANCH   9  11
ENDBRANCH   8   9
ENDBRANCH   5   7
BRANCH   1  13
ATOM     13  O   LIG     1     -14.018  46.366  31.873  0.00  0.00    -0.491 OA
ATOM     14  C   LIG     1     -13.990  45.011  31.429  0.00  0.00     0.277 C 
ENDBRANCH   1  13
BRANCH   2  15
ATOM     15  O   LIG     1     -15.345  48.106  33.587  0.00  0.00    -0.503 OA
ATOM     16  H   LIG     1     -16.103  47.606  33.935  0.00  0.00     0.292 HD
ENDBRANCH   2  15
TORSDOF 5
ENDMDL
MODEL 3
REMARK VINA RESULT:      -5.6     19.819     21.557
REMARK  5 active torsions:
REMARK  status: ('A' for Active; 'I' for Inactive)
REMARK    1  A    between atoms: C_3  and  O_1 
REMARK    2  A    between atoms: C_4  and  O_14 
REMARK    3  A    between atoms: C_7  and  C_8 
REMARK    4  A    between atoms: C_9  and  C_10 
REMARK    5  A    between atoms: C_10  and  O_12 
ROOT
ATOM      1  C   LIG     1       0.247  72.154  24.061  0.00  0.00     0.162 A 
ATOM      2  C   LIG     1       0.939  73.364  24.126  0.00  0.00     0.158 A 
ATOM      3  C   LIG     1       0.250  74.569  23.998  0.00  0.00     0.050 A 
ATOM      4  C   LIG     1      -1.132  74.566  23.804  0.00  0.00     0.012 A 
ATOM      5  C   LIG     1      -1.823  73.357  23.738  0.00  0.00    -0.021 A 
ATOM      6  C   LIG     1      -1.135  72.151  23.867  0.00  0.00     0.057 A 
ENDROOT
BRANCH   5   7
ATOM      7  C   LIG     1      -3.264  73.354  23.537  0.00  0.00     0.015 C 
ATOM      8  C   LIG     1      -4.183  73.734  24.453  0.00  0.00     0.092 C 
BRANCH   8   9
ATOM      9  C   LIG     1      -5.620  73.693  24.120  0.00  0.00     0.330 C 
ATOM     10  O   LIG     1      -6.237  74.519  23.467  0.00  0.00    -0.246 OA
BRANCH   9  11
ATOM     11  O   LIG     1      -6.160  72.575  24.661  0.00  0.00    -0.478 OA
ATOM     12  H   LIG     1      -5.677  71.766  24.389  0.00  0.00     0.295 HD
ENDBRANCH   9  11
ENDBRANCH   8   9
ENDBRANCH   5   7
BRANCH   1  13
ATOM     13  O   LIG     1       0.909  70.970  24.184  0.00  0.00    -0.491 OA
ATOM     14  C   LIG     1       0.724  70.014  23.142  0.00  0.00     0.277 C 
ENDBRANCH   1  13
BRANCH   2  15
ATOM     15  O   LIG     1       2.288  73.380  24.314  0.00  0.00    -0.503 OA
ATOM     16  H   LIG     1       2.595  74.303  24.326  0.00  0.00     0.292 HD
ENDBRANCH   2  15
TORSDOF 5
ENDMDL
MODEL 4
REMARK VINA RESULT:      -5.5     18.229     20.094
REMARK  5 active torsions:
REMARK  status: ('A' for Active; 'I' for Inactive)
REMARK    1  A    between atoms: C_3  and  O_1 
REMARK    2  A    between atoms: C_4  and  O_14 
REMARK    3  A    between atoms: C_7  and  C_8 
REMARK    4  A    between atoms: C_9  and  C_10 
REMARK    5  A    between atoms: C_10  and  O_12 
ROOT
ATOM      1  C   LIG     1     -10.179  37.286   8.494  0.00  0.00     0.162 A 
ATOM      2  C   LIG     1     -10.250  36.384   9.556  0.00  0.00     0.158 A 
ATOM      3  C   LIG     1     -10.377  36.854  10.863  0.00  0.00     0.050 A 
ATOM      4  C   LIG     1     -10.432  38.227  11.108  0.00  0.00     0.012 A 
ATOM      5  C   LIG     1     -10.361  39.128  10.047  0.00  0.00    -0.021 A 
ATOM      6  C   LIG     1     -10.235  38.658   8.740  0.00  0.00     0.057 A 
ENDROOT
BRANCH   5   7
ATOM      7  C   LIG     1     -10.420  40.558  10.303  0.00  0.00     0.015 C 
ATOM      8  C   LIG     1      -9.423  41.438  10.058  0.00  0.00     0.092 C 
BRANCH   8   9
ATOM      9  C   LIG     1      -9.612  42.872  10.353  0.00  0.00     0.330 C 
ATOM     10  O   LIG     1     -10.651  43.504  10.247  0.00  0.00    -0.246 OA
BRANCH   9  11
ATOM     11  O   LIG     1      -8.432  43.389  10.770  0.00  0.00    -0.478 OA
ATOM     12  H   LIG     1      -8.533  43.921  11.587  0.00  0.00     0.295 HD
ENDBRANCH   9  11
ENDBRANCH   8   9
ENDBRANCH   5   7
BRANCH   1  13
ATOM     13  O   LIG     1     -10.054  36.838   7.213  0.00  0.00    -0.491 OA
ATOM     14  C   LIG     1     -11.253  36.723   6.448  0.00  0.00     0.277 C 
ENDBRANCH   1  13
BRANCH   2  15
ATOM     15  O   LIG     1     -10.196  35.042   9.330  0.00  0.00    -0.503 OA
ATOM     16  H   LIG     1     -10.598  34.850   8.465  0.00  0.00     0.292 HD
ENDBRANCH   2  15
TORSDOF 5
ENDMDL
MODEL 5
REMARK VINA RESULT:      -5.5     12.254     13.222
REMARK  5 active torsions:
REMARK  status: ('A' for Active; 'I' for Inactive)
REMARK    1  A    between atoms: C_3  and  O_1 
REMARK    2  A    between atoms: C_4  and  O_14 
REMARK    3  A    between atoms: C_7  and  C_8 
REMARK    4  A    between atoms: C_9  and  C_10 
REMARK    5  A    between atoms: C_10  and  O_12 
ROOT
ATOM      1  C   LIG     1     -13.738  48.114  34.247  0.00  0.00     0.162 A 
ATOM      2  C   LIG     1     -12.557  47.775  34.908  0.00  0.00     0.158 A 
ATOM      3  C   LIG     1     -11.781  46.711  34.447  0.00  0.00     0.050 A 
ATOM      4  C   LIG     1     -12.186  45.986  33.326  0.00  0.00     0.012 A 
ATOM      5  C   LIG     1     -13.367  46.325  32.667  0.00  0.00    -0.021 A 
ATOM      6  C   LIG     1     -14.143  47.388  33.126  0.00  0.00     0.057 A 
ENDROOT
BRANCH   5   7
ATOM      7  C   LIG     1     -13.788  45.569  31.498  0.00  0.00     0.015 C 
ATOM      8  C   LIG     1     -14.776  44.647  31.477  0.00  0.00     0.092 C 
BRANCH   8   9
ATOM      9  C   LIG     1     -15.116  43.954  30.218  0.00  0.00     0.330 C 
ATOM     10  O   LIG     1     -14.729  42.849  29.872  0.00  0.00    -0.246 OA
BRANCH   9  11
ATOM     11  O   LIG     1     -15.940  44.747  29.494  0.00  0.00    -0.478 OA
ATOM     12  H   LIG     1     -16.190  45.559  29.984  0.00  0.00     0.295 HD
ENDBRANCH   9  11
ENDBRANCH   8   9
ENDBRANCH   5   7
BRANCH   1  13
ATOM     13  O   LIG     1     -14.505  49.150  34.688  0.00  0.00    -0.491 OA
ATOM     14  C   LIG     1     -15.888  48.882  34.912  0.00  0.00     0.277 C 
ENDBRANCH   1  13
BRANCH   2  15
ATOM     15  O   LIG     1     -12.152  48.475  36.004  0.00  0.00    -0.503 OA
ATOM     16  H   LIG     1     -12.828  49.139  36.223  0.00  0.00     0.292 HD
ENDBRANCH   2  15
TORSDOF 5
ENDMDL
MODEL 6
REMARK VINA RESULT:      -5.5     12.533     14.369
REMARK  5 active torsions:
REMARK  status: ('A' for Active; 'I' for Inactive)
REMARK    1  A    between atoms: C_3  and  O_1 
REMARK    2  A    between atoms: C_4  and  O_14 
REMARK    3  A    between atoms: C_7  and  C_8 
REMARK    4  A    between atoms: C_9  and  C_10 
REMARK    5  A    between atoms: C_10  and  O_12 
ROOT
ATOM      1  C   LIG     1     -18.015  42.555  30.158  0.00  0.00     0.162 A 
ATOM      2  C   LIG     1     -17.091  42.924  31.136  0.00  0.00     0.158 A 
ATOM      3  C   LIG     1     -15.966  43.672  30.787  0.00  0.00     0.050 A 
ATOM      4  C   LIG     1     -15.765  44.050  29.459  0.00  0.00     0.012 A 
ATOM      5  C   LIG     1     -16.689  43.681  28.482  0.00  0.00    -0.021 A 
ATOM      6  C   LIG     1     -17.814  42.934  28.831  0.00  0.00     0.057 A 
ENDROOT
BRANCH   5   7
ATOM      7  C   LIG     1     -16.480  44.076  27.098  0.00  0.00     0.015 C 
ATOM      8  C   LIG     1     -16.261  43.230  26.067  0.00  0.00     0.092 C 
BRANCH   8   9
ATOM      9  C   LIG     1     -16.073  43.758  24.701  0.00  0.00     0.330 C 
ATOM     10  O   LIG     1     -15.317  44.657  24.370  0.00  0.00    -0.246 OA
BRANCH   9  11
ATOM     11  O   LIG     1     -16.884  43.079  23.857  0.00  0.00    -0.478 OA
ATOM     12  H   LIG     1     -16.571  43.127  22.929  0.00  0.00     0.295 HD
ENDBRANCH   9  11
ENDBRANCH   8   9
ENDBRANCH   5   7
BRANCH   1  13
ATOM     13  O   LIG     1     -19.116  41.824  30.488  0.00  0.00    -0.491 OA
ATOM     14  C   LIG     1     -19.419  40.702  29.662  0.00  0.00     0.277 C 
ENDBRANCH   1  13
BRANCH   2  15
ATOM     15  O   LIG     1     -17.275  42.560  32.436  0.00  0.00    -0.503 OA
ATOM     16  H   LIG     1     -16.634  43.035  32.992  0.00  0.00     0.292 HD
ENDBRANCH   2  15
TORSDOF 5
ENDMDL
MODEL 7
REMARK VINA RESULT:      -5.4     19.436     20.661
REMARK  5 active torsions:
REMARK  status: ('A' for Active; 'I' for Inactive)
REMARK    1  A    between atoms: C_3  and  O_1 
REMARK    2  A    between atoms: C_4  and  O_14 
REMARK    3  A    between atoms: C_7  and  C_8 
REMARK    4  A    between atoms: C_9  and  C_10 
REMARK    5  A    between atoms: C_10  and  O_12 
ROOT
ATOM      1  C   LIG     1      -9.213  59.797   5.690  0.00  0.00     0.162 A 
ATOM      2  C   LIG     1      -8.056  60.389   6.197  0.00  0.00     0.158 A 
ATOM      3  C   LIG     1      -6.829  59.738   6.073  0.00  0.00     0.050 A 
ATOM      4  C   LIG     1      -6.758  58.495   5.443  0.00  0.00     0.012 A 
ATOM      5  C   LIG     1      -7.915  57.904   4.938  0.00  0.00    -0.021 A 
ATOM      6  C   LIG     1      -9.143  58.554   5.061  0.00  0.00     0.057 A 
ENDROOT
BRANCH   5   7
ATOM      7  C   LIG     1      -7.841  56.609   4.280  0.00  0.00     0.015 C 
ATOM      8  C   LIG     1      -7.978  56.396   2.952  0.00  0.00     0.092 C 
BRANCH   8   9
ATOM      9  C   LIG     1      -7.872  55.029   2.406  0.00  0.00     0.330 C 
ATOM     10  O   LIG     1      -8.798  54.309   2.070  0.00  0.00    -0.246 OA
BRANCH   9  11
ATOM     11  O   LIG     1      -6.563  54.691   2.332  0.00  0.00    -0.478 OA
ATOM     12  H   LIG     1      -6.129  54.711   3.211  0.00  0.00     0.295 HD
ENDBRANCH   9  11
ENDBRANCH   8   9
ENDBRANCH   5   7
BRANCH   1  13
ATOM     13  O   LIG     1     -10.418  60.422   5.806  0.00  0.00    -0.491 OA
ATOM     14  C   LIG     1     -10.867  61.176   4.681  0.00  0.00     0.277 C 
ENDBRANCH   1  13
BRANCH   2  15
ATOM     15  O   LIG     1      -8.112  61.602   6.814  0.00  0.00    -0.503 OA
ATOM     16  H   LIG     1      -7.264  62.061   6.689  0.00  0.00     0.292 HD
ENDBRANCH   2  15
TORSDOF 5
ENDMDL
MODEL 8
REMARK VINA RESULT:      -5.3      9.522     11.559
REMARK  5 active torsions:
REMARK  status: ('A' for Active; 'I' for Inactive)
REMARK    1  A    between atoms: C_3  and  O_1 
REMARK    2  A    between atoms: C_4  and  O_14 
REMARK    3  A    between atoms: C_7  and  C_8 
REMARK    4  A    between atoms: C_9  and  C_10 
REMARK    5  A    between atoms: C_10  and  O_12 
ROOT
ATOM      1  C   LIG     1     -15.737  45.838  19.395  0.00  0.00     0.162 A 
ATOM      2  C   LIG     1     -14.692  46.755  19.510  0.00  0.00     0.158 A 
ATOM      3  C   LIG     1     -14.109  46.994  20.754  0.00  0.00     0.050 A 
ATOM      4  C   LIG     1     -14.571  46.318  21.884  0.00  0.00     0.012 A 
ATOM      5  C   LIG     1     -15.616  45.402  21.768  0.00  0.00    -0.021 A 
ATOM      6  C   LIG     1     -16.200  45.162  20.525  0.00  0.00     0.057 A 
ENDROOT
BRANCH   5   7
ATOM      7  C   LIG     1     -16.097  44.697  22.945  0.00  0.00     0.015 C 
ATOM      8  C   LIG     1     -15.413  44.546  24.101  0.00  0.00     0.092 C 
BRANCH   8   9
ATOM      9  C   LIG     1     -16.019  43.813  25.231  0.00  0.00     0.330 C 
ATOM     10  O   LIG     1     -15.938  42.615  25.444  0.00  0.00    -0.246 OA
BRANCH   9  11
ATOM     11  O   LIG     1     -16.690  44.694  26.009  0.00  0.00    -0.478 OA
ATOM     12  H   LIG     1     -16.620  45.611  25.670  0.00  0.00     0.295 HD
ENDBRANCH   9  11
ENDBRANCH   8   9
ENDBRANCH   5   7
BRANCH   1  13
ATOM     13  O   LIG     1     -16.315  45.596  18.185  0.00  0.00    -0.491 OA
ATOM     14  C   LIG     1     -16.079  44.318  17.599  0.00  0.00     0.277 C 
ENDBRANCH   1  13
BRANCH   2  15
ATOM     15  O   LIG     1     -14.232  47.422  18.415  0.00  0.00    -0.503 OA
ATOM     16  H   LIG     1     -13.781  48.234  18.705  0.00  0.00     0.292 HD
ENDBRANCH   2  15
TORSDOF 5
ENDMDL
MODEL 9
REMARK VINA RESULT:      -5.3     13.009     14.680
REMARK  5 active torsions:
REMARK  status: ('A' for Active; 'I' for Inactive)
REMARK    1  A    between atoms: C_3  and  O_1 
REMARK    2  A    between atoms: C_4  and  O_14 
REMARK    3  A    between atoms: C_7  and  C_8 
REMARK    4  A    between atoms: C_9  and  C_10 
REMARK    5  A    between atoms: C_10  and  O_12 
ROOT
ATOM      1  C   LIG     1     -13.062  48.011  35.024  0.00  0.00     0.162 A 
ATOM      2  C   LIG     1     -13.474  47.684  33.731  0.00  0.00     0.158 A 
ATOM      3  C   LIG     1     -12.841  46.653  33.039  0.00  0.00     0.050 A 
ATOM      4  C   LIG     1     -11.797  45.947  33.637  0.00  0.00     0.012 A 
ATOM      5  C   LIG     1     -11.386  46.274  34.929  0.00  0.00    -0.021 A 
ATOM      6  C   LIG     1     -12.018  47.306  35.623  0.00  0.00     0.057 A 
ENDROOT
BRANCH   5   7
ATOM      7  C   LIG     1     -10.298  45.538  35.553  0.00  0.00     0.015 C 
ATOM      8  C   LIG     1     -10.426  44.371  36.223  0.00  0.00     0.092 C 
BRANCH   8   9
ATOM      9  C   LIG     1      -9.238  43.716  36.805  0.00  0.00     0.330 C 
ATOM     10  O   LIG     1      -8.314  44.269  37.379  0.00  0.00    -0.246 OA
BRANCH   9  11
ATOM     11  O   LIG     1      -9.334  42.382  36.601  0.00  0.00    -0.478 OA
ATOM     12  H   LIG     1      -8.456  41.944  36.619  0.00  0.00     0.295 HD
ENDBRANCH   9  11
ENDBRANCH   8   9
ENDBRANCH   5   7
BRANCH   1  13
ATOM     13  O   LIG     1     -13.672  49.018  35.711  0.00  0.00    -0.491 OA
ATOM     14  C   LIG     1     -12.895  49.688  36.702  0.00  0.00     0.277 C 
ENDBRANCH   1  13
BRANCH   2  15
ATOM     15  O   LIG     1     -14.491  48.366  33.136  0.00  0.00    -0.503 OA
ATOM     16  H   LIG     1     -15.336  47.949  33.377  0.00  0.00     0.292 HD
ENDBRANCH   2  15
TORSDOF 5
ENDMDL
