MODEL 1
REMARK VINA RESULT:      -7.9      0.000      0.000
REMARK  Name = 9823887
REMARK                            x       y       z     vdW  Elec       q    Type
REMARK                         _______ _______ _______ _____ _____    ______ ____
ROOT
ATOM      1  O   LIG    1        6.309  43.582  20.824  0.00  0.00    -0.341 OA
ATOM      2  C   LIG    1        5.386  43.671  19.741  0.00  0.00    +0.282 C 
ATOM      3  C   LIG    1        5.750  44.837  18.821  0.00  0.00    +0.201 C 
ATOM      4  C   LIG    1        7.202  44.745  18.355  0.00  0.00    +0.179 C 
ATOM      5  C   LIG    1        8.146  44.491  19.529  0.00  0.00    +0.177 C 
ATOM     22  C   LIG    1        7.644  43.326  20.387  0.00  0.00    +0.178 C 
ENDROOT
BRANCH   5   6
ATOM      6  O   LIG    1        9.446  44.185  19.032  0.00  0.00    -0.386 OA
ATOM      7  H   LIG    1        9.694  44.877  18.395  0.00  0.00    +0.210 HD
ENDBRANCH   5   6
BRANCH   4   8
ATOM      8  O   LIG    1        7.583  45.978  17.741  0.00  0.00    -0.386 OA
ATOM      9  H   LIG    1        7.751  45.796  16.801  0.00  0.00    +0.210 HD
ENDBRANCH   4   8
BRANCH   3  10
ATOM     10  O   LIG    1        4.884  44.798  17.687  0.00  0.00    -0.384 OA
ATOM     11  H   LIG    1        4.003  45.094  17.970  0.00  0.00    +0.210 HD
ENDBRANCH   3  10
BRANCH   2  12
ATOM     12  O   LIG    1        4.072  43.901  20.245  0.00  0.00    -0.345 OA
BRANCH  12  13
ATOM     13  C   LIG    1        3.237  42.770  20.048  0.00  0.00    +0.190 C 
BRANCH  13  14
ATOM     14  C   LIG    1        3.147  42.009  21.331  0.00  0.00    +0.001 C 
ATOM     15  C   LIG    1        2.833  42.577  22.505  0.00  0.00    +0.006 C 
BRANCH  15  16
ATOM     16  C   LIG    1        2.719  41.865  23.790  0.00  0.00    -0.025 A 
ATOM     17  C   LIG    1        1.970  40.700  23.857  0.00  0.00    +0.008 A 
ATOM     18  C   LIG    1        1.863  40.027  25.073  0.00  0.00    +0.001 A 
ATOM     19  C   LIG    1        2.503  40.526  26.207  0.00  0.00    +0.000 A 
ATOM     20  C   LIG    1        3.253  41.699  26.125  0.00  0.00    +0.001 A 
ATOM     21  C   LIG    1        3.361  42.373  24.908  0.00  0.00    +0.008 A 
ENDBRANCH  15  16
ENDBRANCH  13  14
ENDBRANCH  12  13
ENDBRANCH   2  12
BRANCH  22  23
ATOM     23  C   LIG    1        8.506  43.128  21.630  0.00  0.00    +0.197 C 
BRANCH  23  24
ATOM     24  O   LIG    1        9.416  44.209  21.725  0.00  0.00    -0.346 OA
BRANCH  24  25
ATOM     25  C   LIG    1        8.857  45.308  22.436  0.00  0.00    +0.281 C 
ATOM     26  C   LIG    1        8.634  44.921  23.906  0.00  0.00    +0.201 C 
ATOM     27  C   LIG    1        9.948  44.864  24.692  0.00  0.00    +0.178 C 
ATOM     28  C   LIG    1       10.765  46.133  24.447  0.00  0.00    +0.171 C 
ATOM     29  C   LIG    1       10.931  46.385  22.954  0.00  0.00    +0.197 C 
ATOM     36  O   LIG    1        9.660  46.488  22.317  0.00  0.00    -0.346 OA
BRANCH  28  30
ATOM     30  O   LIG    1       12.035  46.019  25.075  0.00  0.00    -0.387 OA
ATOM     31  H   LIG    1       12.713  46.081  24.380  0.00  0.00    +0.210 HD
ENDBRANCH  28  30
BRANCH  27  32
ATOM     32  O   LIG    1       10.705  43.728  24.275  0.00  0.00    -0.386 OA
ATOM     33  H   LIG    1       11.002  43.894  23.363  0.00  0.00    +0.210 HD
ENDBRANCH  27  32
BRANCH  26  34
ATOM     34  O   LIG    1        7.776  45.896  24.493  0.00  0.00    -0.384 OA
ATOM     35  H   LIG    1        7.324  45.492  25.253  0.00  0.00    +0.210 HD
ENDBRANCH  26  34
ENDBRANCH  24  25
ENDBRANCH  23  24
ENDBRANCH  22  23
TORSDOF 13
ENDMDL
MODEL 2
REMARK VINA RESULT:      -7.9     28.664     31.132
REMARK  Name = 9823887
REMARK                            x       y       z     vdW  Elec       q    Type
REMARK                         _______ _______ _______ _____ _____    ______ ____
ROOT
ATOM      1  O   LIG    1       17.721  67.655   9.681  0.00  0.00    -0.341 OA
ATOM      2  C   LIG    1       18.393  67.292  10.885  0.00  0.00    +0.282 C 
ATOM      3  C   LIG    1       18.135  68.333  11.976  0.00  0.00    +0.201 C 
ATOM      4  C   LIG    1       16.639  68.566  12.180  0.00  0.00    +0.179 C 
ATOM      5  C   LIG    1       15.927  68.794  10.848  0.00  0.00    +0.177 C 
ATOM     22  C   LIG    1       16.302  67.706   9.838  0.00  0.00    +0.178 C 
ENDROOT
BRANCH   5   6
ATOM      6  O   LIG    1       14.517  68.777  11.057  0.00  0.00    -0.386 OA
ATOM      7  H   LIG    1       14.200  67.873  10.888  0.00  0.00    +0.210 HD
ENDBRANCH   5   6
BRANCH   4   8
ATOM      8  O   LIG    1       16.445  69.728  12.989  0.00  0.00    -0.386 OA
ATOM      9  H   LIG    1       17.072  69.675  13.730  0.00  0.00    +0.210 HD
ENDBRANCH   4   8
BRANCH   3  10
ATOM     10  O   LIG    1       18.712  67.857  13.192  0.00  0.00    -0.384 OA
ATOM     11  H   LIG    1       17.997  67.498  13.744  0.00  0.00    +0.210 HD
ENDBRANCH   3  10
BRANCH   2  12
ATOM     12  O   LIG    1       19.799  67.235  10.654  0.00  0.00    -0.345 OA
BRANCH  12  13
ATOM     13  C   LIG    1       20.331  68.521  10.378  0.00  0.00    +0.190 C 
BRANCH  13  14
ATOM     14  C   LIG    1       21.579  68.708  11.178  0.00  0.00    +0.001 C 
ATOM     15  C   LIG    1       22.698  67.996  10.975  0.00  0.00    +0.006 C 
BRANCH  15  16
ATOM     16  C   LIG    1       23.955  68.155  11.728  0.00  0.00    -0.025 A 
ATOM     17  C   LIG    1       24.721  69.294  11.537  0.00  0.00    +0.008 A 
ATOM     18  C   LIG    1       25.910  69.443  12.250  0.00  0.00    +0.001 A 
ATOM     19  C   LIG    1       26.318  68.454  13.143  0.00  0.00    +0.000 A 
ATOM     20  C   LIG    1       25.537  67.313  13.325  0.00  0.00    +0.001 A 
ATOM     21  C   LIG    1       24.347  67.163  12.612  0.00  0.00    +0.008 A 
ENDBRANCH  15  16
ENDBRANCH  13  14
ENDBRANCH  12  13
ENDBRANCH   2  12
BRANCH  22  23
ATOM     23  C   LIG    1       15.695  67.975   8.465  0.00  0.00    +0.197 C 
BRANCH  23  24
ATOM     24  O   LIG    1       15.191  69.299   8.447  0.00  0.00    -0.346 OA
BRANCH  24  25
ATOM     25  C   LIG    1       14.718  69.666   7.155  0.00  0.00    +0.281 C 
ATOM     26  C   LIG    1       13.442  68.878   6.822  0.00  0.00    +0.201 C 
ATOM     27  C   LIG    1       12.226  69.393   7.599  0.00  0.00    +0.178 C 
ATOM     28  C   LIG    1       12.129  70.915   7.475  0.00  0.00    +0.171 C 
ATOM     29  C   LIG    1       13.449  71.570   7.858  0.00  0.00    +0.197 C 
ATOM     36  O   LIG    1       14.510  71.078   7.042  0.00  0.00    -0.346 OA
BRANCH  28  30
ATOM     30  O   LIG    1       11.078  71.399   8.299  0.00  0.00    -0.387 OA
ATOM     31  H   LIG    1       10.254  70.974   8.005  0.00  0.00    +0.210 HD
ENDBRANCH  28  30
BRANCH  27  32
ATOM     32  O   LIG    1       12.354  69.039   8.975  0.00  0.00    -0.386 OA
ATOM     33  H   LIG    1       12.788  68.170   9.015  0.00  0.00    +0.210 HD
ENDBRANCH  27  32
BRANCH  26  34
ATOM     34  O   LIG    1       13.198  69.006   5.423  0.00  0.00    -0.384 OA
ATOM     35  H   LIG    1       13.277  68.128   5.015  0.00  0.00    +0.210 HD
ENDBRANCH  26  34
ENDBRANCH  24  25
ENDBRANCH  23  24
ENDBRANCH  22  23
TORSDOF 13
ENDMDL
MODEL 3
REMARK VINA RESULT:      -7.8      2.364      3.235
REMARK  Name = 9823887
REMARK                            x       y       z     vdW  Elec       q    Type
REMARK                         _______ _______ _______ _____ _____    ______ ____
ROOT
ATOM      1  O   LIG    1        6.942  44.293  21.311  0.00  0.00    -0.341 OA
ATOM      2  C   LIG    1        6.060  44.401  20.196  0.00  0.00    +0.282 C 
ATOM      3  C   LIG    1        6.077  45.824  19.636  0.00  0.00    +0.201 C 
ATOM      4  C   LIG    1        7.500  46.278  19.313  0.00  0.00    +0.179 C 
ATOM      5  C   LIG    1        8.449  45.998  20.477  0.00  0.00    +0.177 C 
ATOM     22  C   LIG    1        8.302  44.554  20.962  0.00  0.00    +0.178 C 
ENDROOT
BRANCH   5   6
ATOM      6  O   LIG    1        9.792  46.219  20.054  0.00  0.00    -0.386 OA
ATOM      7  H   LIG    1       10.301  45.411  20.239  0.00  0.00    +0.210 HD
ENDBRANCH   5   6
BRANCH   4   8
ATOM      8  O   LIG    1        7.505  47.686  19.067  0.00  0.00    -0.386 OA
ATOM      9  H   LIG    1        6.613  48.019  19.262  0.00  0.00    +0.210 HD
ENDBRANCH   4   8
BRANCH   3  10
ATOM     10  O   LIG    1        5.289  45.846  18.446  0.00  0.00    -0.384 OA
ATOM     11  H   LIG    1        4.481  46.354  18.629  0.00  0.00    +0.210 HD
ENDBRANCH   3  10
BRANCH   2  12
ATOM     12  O   LIG    1        4.727  44.104  20.605  0.00  0.00    -0.345 OA
BRANCH  12  13
ATOM     13  C   LIG    1        4.326  44.920  21.694  0.00  0.00    +0.190 C 
BRANCH  13  14
ATOM     14  C   LIG    1        3.790  44.045  22.781  0.00  0.00    +0.001 C 
ATOM     15  C   LIG    1        3.468  42.755  22.597  0.00  0.00    +0.006 C 
BRANCH  15  16
ATOM     16  C   LIG    1        2.951  41.852  23.640  0.00  0.00    -0.025 A 
ATOM     17  C   LIG    1        3.330  42.050  24.958  0.00  0.00    +0.008 A 
ATOM     18  C   LIG    1        2.840  41.195  25.945  0.00  0.00    +0.001 A 
ATOM     19  C   LIG    1        1.980  40.152  25.601  0.00  0.00    +0.000 A 
ATOM     20  C   LIG    1        1.608  39.965  24.270  0.00  0.00    +0.001 A 
ATOM     21  C   LIG    1        2.098  40.821  23.283  0.00  0.00    +0.008 A 
ENDBRANCH  15  16
ENDBRANCH  13  14
ENDBRANCH  12  13
ENDBRANCH   2  12
BRANCH  22  23
ATOM     23  C   LIG    1        9.155  44.283  22.198  0.00  0.00    +0.197 C 
BRANCH  23  24
ATOM     24  O   LIG    1       10.520  44.319  21.821  0.00  0.00    -0.346 OA
BRANCH  24  25
ATOM     25  C   LIG    1       11.199  43.121  22.180  0.00  0.00    +0.281 C 
ATOM     26  C   LIG    1       11.346  42.214  20.949  0.00  0.00    +0.201 C 
ATOM     27  C   LIG    1       12.414  42.727  19.979  0.00  0.00    +0.178 C 
ATOM     28  C   LIG    1       13.704  43.048  20.736  0.00  0.00    +0.171 C 
ATOM     29  C   LIG    1       13.420  43.972  21.913  0.00  0.00    +0.197 C 
ATOM     36  O   LIG    1       12.465  43.385  22.794  0.00  0.00    -0.346 OA
BRANCH  28  30
ATOM     30  O   LIG    1       14.646  43.642  19.855  0.00  0.00    -0.387 OA
ATOM     31  H   LIG    1       14.508  43.256  18.973  0.00  0.00    +0.210 HD
ENDBRANCH  28  30
BRANCH  27  32
ATOM     32  O   LIG    1       11.943  43.908  19.331  0.00  0.00    -0.386 OA
ATOM     33  H   LIG    1       12.544  44.634  19.571  0.00  0.00    +0.210 HD
ENDBRANCH  27  32
BRANCH  26  34
ATOM     34  O   LIG    1       11.707  40.911  21.403  0.00  0.00    -0.384 OA
ATOM     35  H   LIG    1       12.576  40.965  21.833  0.00  0.00    +0.210 HD
ENDBRANCH  26  34
ENDBRANCH  24  25
ENDBRANCH  23  24
ENDBRANCH  22  23
TORSDOF 13
ENDMDL
MODEL 4
REMARK VINA RESULT:      -7.8      3.517      8.129
REMARK  Name = 9823887
REMARK                            x       y       z     vdW  Elec       q    Type
REMARK                         _______ _______ _______ _____ _____    ______ ____
ROOT
ATOM      1  O   LIG    1        7.987  43.766  19.818  0.00  0.00    -0.341 OA
ATOM      2  C   LIG    1        8.773  44.682  20.578  0.00  0.00    +0.282 C 
ATOM      3  C   LIG    1        8.799  46.053  19.901  0.00  0.00    +0.201 C 
ATOM      4  C   LIG    1        7.386  46.568  19.631  0.00  0.00    +0.179 C 
ATOM      5  C   LIG    1        6.526  45.499  18.959  0.00  0.00    +0.177 C 
ATOM     22  C   LIG    1        6.621  44.170  19.714  0.00  0.00    +0.178 C 
ENDROOT
BRANCH   5   6
ATOM      6  O   LIG    1        5.168  45.931  18.934  0.00  0.00    -0.386 OA
ATOM      7  H   LIG    1        4.603  45.152  19.078  0.00  0.00    +0.210 HD
ENDBRANCH   5   6
BRANCH   4   8
ATOM      8  O   LIG    1        7.449  47.697  18.759  0.00  0.00    -0.386 OA
ATOM      9  H   LIG    1        7.234  48.485  19.286  0.00  0.00    +0.210 HD
ENDBRANCH   4   8
BRANCH   3  10
ATOM     10  O   LIG    1        9.479  46.964  20.765  0.00  0.00    -0.384 OA
ATOM     11  H   LIG    1        8.872  47.695  20.970  0.00  0.00    +0.210 HD
ENDBRANCH   3  10
BRANCH   2  12
ATOM     12  O   LIG    1       10.115  44.208  20.666  0.00  0.00    -0.345 OA
BRANCH  12  13
ATOM     13  C   LIG    1       10.444  43.379  19.562  0.00  0.00    +0.190 C 
BRANCH  13  14
ATOM     14  C   LIG    1       11.784  42.762  19.806  0.00  0.00    +0.001 C 
ATOM     15  C   LIG    1       12.230  42.428  21.027  0.00  0.00    +0.006 C 
BRANCH  15  16
ATOM     16  C   LIG    1       13.534  41.805  21.313  0.00  0.00    -0.025 A 
ATOM     17  C   LIG    1       13.614  40.807  22.271  0.00  0.00    +0.008 A 
ATOM     18  C   LIG    1       14.849  40.218  22.541  0.00  0.00    +0.001 A 
ATOM     19  C   LIG    1       15.988  40.635  21.852  0.00  0.00    +0.000 A 
ATOM     20  C   LIG    1       15.892  41.641  20.892  0.00  0.00    +0.001 A 
ATOM     21  C   LIG    1       14.657  42.231  20.621  0.00  0.00    +0.008 A 
ENDBRANCH  15  16
ENDBRANCH  13  14
ENDBRANCH  12  13
ENDBRANCH   2  12
BRANCH  22  23
ATOM     23  C   LIG    1        5.865  43.057  18.996  0.00  0.00    +0.197 C 
BRANCH  23  24
ATOM     24  O   LIG    1        4.610  42.884  19.630  0.00  0.00    -0.346 OA
BRANCH  24  25
ATOM     25  C   LIG    1        4.684  43.144  21.027  0.00  0.00    +0.281 C 
ATOM     26  C   LIG    1        3.385  43.814  21.503  0.00  0.00    +0.201 C 
ATOM     27  C   LIG    1        2.219  42.822  21.578  0.00  0.00    +0.178 C 
ATOM     28  C   LIG    1        2.645  41.565  22.338  0.00  0.00    +0.171 C 
ATOM     29  C   LIG    1        3.928  40.991  21.749  0.00  0.00    +0.197 C 
ATOM     36  O   LIG    1        4.973  41.960  21.779  0.00  0.00    -0.346 OA
BRANCH  28  30
ATOM     30  O   LIG    1        1.604  40.599  22.294  0.00  0.00    -0.387 OA
ATOM     31  H   LIG    1        0.759  41.076  22.356  0.00  0.00    +0.210 HD
ENDBRANCH  28  30
BRANCH  27  32
ATOM     32  O   LIG    1        1.814  42.461  20.259  0.00  0.00    -0.386 OA
ATOM     33  H   LIG    1        2.603  42.493  19.691  0.00  0.00    +0.210 HD
ENDBRANCH  27  32
BRANCH  26  34
ATOM     34  O   LIG    1        3.622  44.363  22.797  0.00  0.00    -0.384 OA
ATOM     35  H   LIG    1        2.777  44.683  23.155  0.00  0.00    +0.210 HD
ENDBRANCH  26  34
ENDBRANCH  24  25
ENDBRANCH  23  24
ENDBRANCH  22  23
TORSDOF 13
ENDMDL
MODEL 5
REMARK VINA RESULT:      -7.7      1.180      1.954
REMARK  Name = 9823887
REMARK                            x       y       z     vdW  Elec       q    Type
REMARK                         _______ _______ _______ _____ _____    ______ ____
ROOT
ATOM      1  O   LIG    1        7.181  43.604  20.522  0.00  0.00    -0.341 OA
ATOM      2  C   LIG    1        6.148  43.843  19.569  0.00  0.00    +0.282 C 
ATOM      3  C   LIG    1        6.050  45.334  19.247  0.00  0.00    +0.201 C 
ATOM      4  C   LIG    1        7.401  45.899  18.809  0.00  0.00    +0.179 C 
ATOM      5  C   LIG    1        8.512  45.487  19.774  0.00  0.00    +0.177 C 
ATOM     22  C   LIG    1        8.471  43.979  20.038  0.00  0.00    +0.178 C 
ENDROOT
BRANCH   5   6
ATOM      6  O   LIG    1        9.776  45.833  19.214  0.00  0.00    -0.386 OA
ATOM      7  H   LIG    1       10.224  45.010  18.953  0.00  0.00    +0.210 HD
ENDBRANCH   5   6
BRANCH   4   8
ATOM      8  O   LIG    1        7.337  47.326  18.793  0.00  0.00    -0.386 OA
ATOM      9  H   LIG    1        6.526  47.576  18.318  0.00  0.00    +0.210 HD
ENDBRANCH   4   8
BRANCH   3  10
ATOM     10  O   LIG    1        5.102  45.503  18.193  0.00  0.00    -0.384 OA
ATOM     11  H   LIG    1        5.511  46.052  17.504  0.00  0.00    +0.210 HD
ENDBRANCH   3  10
BRANCH   2  12
ATOM     12  O   LIG    1        4.893  43.424  20.102  0.00  0.00    -0.345 OA
BRANCH  12  13
ATOM     13  C   LIG    1        4.445  44.303  21.121  0.00  0.00    +0.190 C 
BRANCH  13  14
ATOM     14  C   LIG    1        4.137  43.504  22.346  0.00  0.00    +0.001 C 
ATOM     15  C   LIG    1        3.126  42.625  22.417  0.00  0.00    +0.006 C 
BRANCH  15  16
ATOM     16  C   LIG    1        2.794  41.806  23.596  0.00  0.00    -0.025 A 
ATOM     17  C   LIG    1        1.968  40.703  23.446  0.00  0.00    +0.008 A 
ATOM     18  C   LIG    1        1.654  39.928  24.562  0.00  0.00    +0.001 A 
ATOM     19  C   LIG    1        2.168  40.266  25.814  0.00  0.00    +0.000 A 
ATOM     20  C   LIG    1        2.998  41.379  25.950  0.00  0.00    +0.001 A 
ATOM     21  C   LIG    1        3.312  42.154  24.833  0.00  0.00    +0.008 A 
ENDBRANCH  15  16
ENDBRANCH  13  14
ENDBRANCH  12  13
ENDBRANCH   2  12
BRANCH  22  23
ATOM     23  C   LIG    1        9.497  43.561  21.087  0.00  0.00    +0.197 C 
BRANCH  23  24
ATOM     24  O   LIG    1        9.573  44.576  22.072  0.00  0.00    -0.346 OA
BRANCH  24  25
ATOM     25  C   LIG    1       10.772  44.484  22.833  0.00  0.00    +0.281 C 
ATOM     26  C   LIG    1       10.851  45.653  23.827  0.00  0.00    +0.201 C 
ATOM     27  C   LIG    1        9.890  45.474  25.006  0.00  0.00    +0.178 C 
ATOM     28  C   LIG    1       10.043  44.073  25.602  0.00  0.00    +0.171 C 
ATOM     29  C   LIG    1        9.919  43.012  24.516  0.00  0.00    +0.197 C 
ATOM     36  O   LIG    1       10.892  43.220  23.496  0.00  0.00    -0.346 OA
BRANCH  28  30
ATOM     30  O   LIG    1        9.063  43.868  26.610  0.00  0.00    -0.387 OA
ATOM     31  H   LIG    1        8.423  44.598  26.551  0.00  0.00    +0.210 HD
ENDBRANCH  28  30
BRANCH  27  32
ATOM     32  O   LIG    1        8.547  45.651  24.559  0.00  0.00    -0.386 OA
ATOM     33  H   LIG    1        8.341  46.600  24.621  0.00  0.00    +0.210 HD
ENDBRANCH  27  32
BRANCH  26  34
ATOM     34  O   LIG    1       12.189  45.727  24.315  0.00  0.00    -0.384 OA
ATOM     35  H   LIG    1       12.750  45.158  23.762  0.00  0.00    +0.210 HD
ENDBRANCH  26  34
ENDBRANCH  24  25
ENDBRANCH  23  24
ENDBRANCH  22  23
TORSDOF 13
ENDMDL
MODEL 6
REMARK VINA RESULT:      -7.6      2.072      3.034
REMARK  Name = 9823887
REMARK                            x       y       z     vdW  Elec       q    Type
REMARK                         _______ _______ _______ _____ _____    ______ ____
ROOT
ATOM      1  O   LIG    1        6.806  44.611  21.431  0.00  0.00    -0.341 OA
ATOM      2  C   LIG    1        5.943  44.628  20.297  0.00  0.00    +0.282 C 
ATOM      3  C   LIG    1        5.954  46.006  19.635  0.00  0.00    +0.201 C 
ATOM      4  C   LIG    1        7.377  46.453  19.303  0.00  0.00    +0.179 C 
ATOM      5  C   LIG    1        8.309  46.270  20.500  0.00  0.00    +0.177 C 
ATOM     22  C   LIG    1        8.169  44.863  21.087  0.00  0.00    +0.178 C 
ENDROOT
BRANCH   5   6
ATOM      6  O   LIG    1        9.657  46.476  20.085  0.00  0.00    -0.386 OA
ATOM      7  H   LIG    1        9.715  47.361  19.685  0.00  0.00    +0.210 HD
ENDBRANCH   5   6
BRANCH   4   8
ATOM      8  O   LIG    1        7.372  47.839  18.955  0.00  0.00    -0.386 OA
ATOM      9  H   LIG    1        6.553  48.225  19.310  0.00  0.00    +0.210 HD
ENDBRANCH   4   8
BRANCH   3  10
ATOM     10  O   LIG    1        5.187  45.932  18.434  0.00  0.00    -0.384 OA
ATOM     11  H   LIG    1        4.686  46.760  18.344  0.00  0.00    +0.210 HD
ENDBRANCH   3  10
BRANCH   2  12
ATOM     12  O   LIG    1        4.605  44.345  20.704  0.00  0.00    -0.345 OA
BRANCH  12  13
ATOM     13  C   LIG    1        4.230  43.021  20.362  0.00  0.00    +0.190 C 
BRANCH  13  14
ATOM     14  C   LIG    1        4.003  42.245  21.620  0.00  0.00    +0.001 C 
ATOM     15  C   LIG    1        2.846  42.263  22.299  0.00  0.00    +0.006 C 
BRANCH  15  16
ATOM     16  C   LIG    1        2.572  41.505  23.532  0.00  0.00    -0.025 A 
ATOM     17  C   LIG    1        3.097  41.951  24.734  0.00  0.00    +0.008 A 
ATOM     18  C   LIG    1        2.838  41.233  25.901  0.00  0.00    +0.001 A 
ATOM     19  C   LIG    1        2.058  40.078  25.851  0.00  0.00    +0.000 A 
ATOM     20  C   LIG    1        1.536  39.641  24.634  0.00  0.00    +0.001 A 
ATOM     21  C   LIG    1        1.795  40.359  23.467  0.00  0.00    +0.008 A 
ENDBRANCH  15  16
ENDBRANCH  13  14
ENDBRANCH  12  13
ENDBRANCH   2  12
BRANCH  22  23
ATOM     23  C   LIG    1        9.003  44.693  22.353  0.00  0.00    +0.197 C 
BRANCH  23  24
ATOM     24  O   LIG    1        8.978  43.329  22.730  0.00  0.00    -0.346 OA
BRANCH  24  25
ATOM     25  C   LIG    1        9.365  43.149  24.088  0.00  0.00    +0.281 C 
ATOM     26  C   LIG    1        8.293  43.736  25.020  0.00  0.00    +0.201 C 
ATOM     27  C   LIG    1        7.041  42.855  25.084  0.00  0.00    +0.178 C 
ATOM     28  C   LIG    1        7.433  41.400  25.343  0.00  0.00    +0.171 C 
ATOM     29  C   LIG    1        8.480  40.939  24.337  0.00  0.00    +0.197 C 
ATOM     36  O   LIG    1        9.633  41.775  24.393  0.00  0.00    -0.346 OA
BRANCH  28  30
ATOM     30  O   LIG    1        6.282  40.570  25.275  0.00  0.00    -0.387 OA
ATOM     31  H   LIG    1        6.314  39.959  26.031  0.00  0.00    +0.210 HD
ENDBRANCH  28  30
BRANCH  27  32
ATOM     32  O   LIG    1        6.333  42.940  23.848  0.00  0.00    -0.386 OA
ATOM     33  H   LIG    1        5.660  42.238  23.847  0.00  0.00    +0.210 HD
ENDBRANCH  27  32
BRANCH  26  34
ATOM     34  O   LIG    1        8.858  43.850  26.324  0.00  0.00    -0.384 OA
ATOM     35  H   LIG    1        8.222  43.495  26.967  0.00  0.00    +0.210 HD
ENDBRANCH  26  34
ENDBRANCH  24  25
ENDBRANCH  23  24
ENDBRANCH  22  23
TORSDOF 13
ENDMDL
MODEL 7
REMARK VINA RESULT:      -7.4      1.585      5.149
REMARK  Name = 9823887
REMARK                            x       y       z     vdW  Elec       q    Type
REMARK                         _______ _______ _______ _____ _____    ______ ____
ROOT
ATOM      1  O   LIG    1        8.388  45.355  22.697  0.00  0.00    -0.341 OA
ATOM      2  C   LIG    1        8.789  44.918  23.993  0.00  0.00    +0.282 C 
ATOM      3  C   LIG    1        9.378  43.508  23.925  0.00  0.00    +0.201 C 
ATOM      4  C   LIG    1       10.506  43.425  22.897  0.00  0.00    +0.179 C 
ATOM      5  C   LIG    1       10.089  44.050  21.566  0.00  0.00    +0.177 C 
ATOM     22  C   LIG    1        9.483  45.439  21.783  0.00  0.00    +0.178 C 
ENDROOT
BRANCH   5   6
ATOM      6  O   LIG    1       11.230  44.160  20.719  0.00  0.00    -0.386 OA
ATOM      7  H   LIG    1       11.846  43.444  20.951  0.00  0.00    +0.210 HD
ENDBRANCH   5   6
BRANCH   4   8
ATOM      8  O   LIG    1       10.832  42.055  22.659  0.00  0.00    -0.386 OA
ATOM      9  H   LIG    1       10.154  41.693  22.064  0.00  0.00    +0.210 HD
ENDBRANCH   4   8
BRANCH   3  10
ATOM     10  O   LIG    1        9.886  43.173  25.215  0.00  0.00    -0.384 OA
ATOM     11  H   LIG    1        9.952  43.991  25.735  0.00  0.00    +0.210 HD
ENDBRANCH   3  10
BRANCH   2  12
ATOM     12  O   LIG    1        7.658  44.881  24.861  0.00  0.00    -0.345 OA
BRANCH  12  13
ATOM     13  C   LIG    1        6.448  45.052  24.140  0.00  0.00    +0.190 C 
BRANCH  13  14
ATOM     14  C   LIG    1        5.634  43.804  24.263  0.00  0.00    +0.001 C 
ATOM     15  C   LIG    1        4.428  43.765  24.850  0.00  0.00    +0.006 C 
BRANCH  15  16
ATOM     16  C   LIG    1        3.585  42.564  24.981  0.00  0.00    -0.025 A 
ATOM     17  C   LIG    1        3.447  41.963  26.222  0.00  0.00    +0.008 A 
ATOM     18  C   LIG    1        2.649  40.826  26.345  0.00  0.00    +0.001 A 
ATOM     19  C   LIG    1        2.000  40.304  25.227  0.00  0.00    +0.000 A 
ATOM     20  C   LIG    1        2.148  40.919  23.984  0.00  0.00    +0.001 A 
ATOM     21  C   LIG    1        2.947  42.057  23.860  0.00  0.00    +0.008 A 
ENDBRANCH  15  16
ENDBRANCH  13  14
ENDBRANCH  12  13
ENDBRANCH   2  12
BRANCH  22  23
ATOM     23  C   LIG    1        8.953  46.034  20.482  0.00  0.00    +0.197 C 
BRANCH  23  24
ATOM     24  O   LIG    1        7.585  46.353  20.657  0.00  0.00    -0.346 OA
BRANCH  24  25
ATOM     25  C   LIG    1        6.858  46.247  19.438  0.00  0.00    +0.281 C 
ATOM     26  C   LIG    1        7.003  44.829  18.864  0.00  0.00    +0.201 C 
ATOM     27  C   LIG    1        6.174  43.804  19.643  0.00  0.00    +0.178 C 
ATOM     28  C   LIG    1        4.743  44.313  19.825  0.00  0.00    +0.171 C 
ATOM     29  C   LIG    1        4.743  45.714  20.423  0.00  0.00    +0.197 C 
ATOM     36  O   LIG    1        5.483  46.612  19.599  0.00  0.00    -0.346 OA
BRANCH  28  30
ATOM     30  O   LIG    1        4.014  43.419  20.656  0.00  0.00    -0.387 OA
ATOM     31  H   LIG    1        3.412  43.952  21.203  0.00  0.00    +0.210 HD
ENDBRANCH  28  30
BRANCH  27  32
ATOM     32  O   LIG    1        6.763  43.588  20.925  0.00  0.00    -0.386 OA
ATOM     33  H   LIG    1        6.131  43.072  21.454  0.00  0.00    +0.210 HD
ENDBRANCH  27  32
BRANCH  26  34
ATOM     34  O   LIG    1        6.567  44.856  17.507  0.00  0.00    -0.384 OA
ATOM     35  H   LIG    1        5.765  44.313  17.431  0.00  0.00    +0.210 HD
ENDBRANCH  26  34
ENDBRANCH  24  25
ENDBRANCH  23  24
ENDBRANCH  22  23
TORSDOF 13
ENDMDL
MODEL 8
REMARK VINA RESULT:      -7.3      1.563      2.157
REMARK  Name = 9823887
REMARK                            x       y       z     vdW  Elec       q    Type
REMARK                         _______ _______ _______ _____ _____    ______ ____
ROOT
ATOM      1  O   LIG    1        6.270  44.700  21.564  0.00  0.00    -0.341 OA
ATOM      2  C   LIG    1        5.646  44.478  20.302  0.00  0.00    +0.282 C 
ATOM      3  C   LIG    1        5.749  45.728  19.426  0.00  0.00    +0.201 C 
ATOM      4  C   LIG    1        7.197  46.198  19.296  0.00  0.00    +0.179 C 
ATOM      5  C   LIG    1        7.881  46.270  20.661  0.00  0.00    +0.177 C 
ATOM     22  C   LIG    1        7.667  44.973  21.445  0.00  0.00    +0.178 C 
ENDROOT
BRANCH   5   6
ATOM      6  O   LIG    1        9.278  46.485  20.479  0.00  0.00    -0.386 OA
ATOM      7  H   LIG    1        9.390  47.294  19.950  0.00  0.00    +0.210 HD
ENDBRANCH   5   6
BRANCH   4   8
ATOM      8  O   LIG    1        7.223  47.505  18.720  0.00  0.00    -0.386 OA
ATOM      9  H   LIG    1        6.430  47.594  18.165  0.00  0.00    +0.210 HD
ENDBRANCH   4   8
BRANCH   3  10
ATOM     10  O   LIG    1        5.235  45.411  18.133  0.00  0.00    -0.384 OA
ATOM     11  H   LIG    1        4.740  46.182  17.809  0.00  0.00    +0.210 HD
ENDBRANCH   3  10
BRANCH   2  12
ATOM     12  O   LIG    1        4.263  44.187  20.492  0.00  0.00    -0.345 OA
BRANCH  12  13
ATOM     13  C   LIG    1        3.975  42.829  20.199  0.00  0.00    +0.190 C 
BRANCH  13  14
ATOM     14  C   LIG    1        3.813  42.083  21.484  0.00  0.00    +0.001 C 
ATOM     15  C   LIG    1        2.902  42.407  22.415  0.00  0.00    +0.006 C 
BRANCH  15  16
ATOM     16  C   LIG    1        2.696  41.693  23.687  0.00  0.00    -0.025 A 
ATOM     17  C   LIG    1        3.283  42.183  24.843  0.00  0.00    +0.008 A 
ATOM     18  C   LIG    1        3.087  41.506  26.047  0.00  0.00    +0.001 A 
ATOM     19  C   LIG    1        2.310  40.349  26.080  0.00  0.00    +0.000 A 
ATOM     20  C   LIG    1        1.727  39.867  24.908  0.00  0.00    +0.001 A 
ATOM     21  C   LIG    1        1.922  40.544  23.704  0.00  0.00    +0.008 A 
ENDBRANCH  15  16
ENDBRANCH  13  14
ENDBRANCH  12  13
ENDBRANCH   2  12
BRANCH  22  23
ATOM     23  C   LIG    1        8.241  45.064  22.856  0.00  0.00    +0.197 C 
BRANCH  23  24
ATOM     24  O   LIG    1        9.654  45.069  22.769  0.00  0.00    -0.346 OA
BRANCH  24  25
ATOM     25  C   LIG    1       10.263  44.934  24.048  0.00  0.00    +0.281 C 
ATOM     26  C   LIG    1       10.402  43.447  24.407  0.00  0.00    +0.201 C 
ATOM     27  C   LIG    1       11.523  42.765  23.615  0.00  0.00    +0.178 C 
ATOM     28  C   LIG    1       12.803  43.598  23.691  0.00  0.00    +0.171 C 
ATOM     29  C   LIG    1       12.530  45.041  23.287  0.00  0.00    +0.197 C 
ATOM     36  O   LIG    1       11.522  45.613  24.118  0.00  0.00    -0.346 OA
BRANCH  28  30
ATOM     30  O   LIG    1       13.799  43.029  22.853  0.00  0.00    -0.387 OA
ATOM     31  H   LIG    1       14.634  43.019  23.353  0.00  0.00    +0.210 HD
ENDBRANCH  28  30
BRANCH  27  32
ATOM     32  O   LIG    1       11.129  42.630  22.250  0.00  0.00    -0.386 OA
ATOM     33  H   LIG    1       11.918  42.374  21.742  0.00  0.00    +0.210 HD
ENDBRANCH  27  32
BRANCH  26  34
ATOM     34  O   LIG    1       10.685  43.354  25.801  0.00  0.00    -0.384 OA
ATOM     35  H   LIG    1       11.422  42.732  25.925  0.00  0.00    +0.210 HD
ENDBRANCH  26  34
ENDBRANCH  24  25
ENDBRANCH  23  24
ENDBRANCH  22  23
TORSDOF 13
ENDMDL
MODEL 9
REMARK VINA RESULT:      -7.1      2.241      3.860
REMARK  Name = 9823887
REMARK                            x       y       z     vdW  Elec       q    Type
REMARK                         _______ _______ _______ _____ _____    ______ ____
ROOT
ATOM      1  O   LIG    1       10.163  43.448  20.683  0.00  0.00    -0.341 OA
ATOM      2  C   LIG    1        9.126  43.853  19.792  0.00  0.00    +0.282 C 
ATOM      3  C   LIG    1        9.613  44.979  18.879  0.00  0.00    +0.201 C 
ATOM      4  C   LIG    1       10.900  44.589  18.153  0.00  0.00    +0.179 C 
ATOM      5  C   LIG    1       11.930  44.011  19.121  0.00  0.00    +0.177 C 
ATOM     22  C   LIG    1       11.301  42.924  19.998  0.00  0.00    +0.178 C 
ENDROOT
BRANCH   5   6
ATOM      6  O   LIG    1       13.012  43.452  18.382  0.00  0.00    -0.386 OA
ATOM      7  H   LIG    1       13.448  44.175  17.896  0.00  0.00    +0.210 HD
ENDBRANCH   5   6
BRANCH   4   8
ATOM      8  O   LIG    1       11.470  45.748  17.541  0.00  0.00    -0.386 OA
ATOM      9  H   LIG    1       12.425  45.733  17.724  0.00  0.00    +0.210 HD
ENDBRANCH   4   8
BRANCH   3  10
ATOM     10  O   LIG    1        8.591  45.252  17.921  0.00  0.00    -0.384 OA
ATOM     11  H   LIG    1        8.976  45.156  17.034  0.00  0.00    +0.210 HD
ENDBRANCH   3  10
BRANCH   2  12
ATOM     12  O   LIG    1        8.012  44.340  20.538  0.00  0.00    -0.345 OA
BRANCH  12  13
ATOM     13  C   LIG    1        7.988  43.794  21.847  0.00  0.00    +0.190 C 
BRANCH  13  14
ATOM     14  C   LIG    1        6.612  43.281  22.129  0.00  0.00    +0.001 C 
ATOM     15  C   LIG    1        5.565  43.495  21.317  0.00  0.00    +0.006 C 
BRANCH  15  16
ATOM     16  C   LIG    1        4.197  42.998  21.546  0.00  0.00    -0.025 A 
ATOM     17  C   LIG    1        3.356  42.800  20.463  0.00  0.00    +0.008 A 
ATOM     18  C   LIG    1        2.062  42.329  20.680  0.00  0.00    +0.001 A 
ATOM     19  C   LIG    1        1.624  42.064  21.978  0.00  0.00    +0.000 A 
ATOM     20  C   LIG    1        2.482  42.268  23.058  0.00  0.00    +0.001 A 
ATOM     21  C   LIG    1        3.777  42.739  22.841  0.00  0.00    +0.008 A 
ENDBRANCH  15  16
ENDBRANCH  13  14
ENDBRANCH  12  13
ENDBRANCH   2  12
BRANCH  22  23
ATOM     23  C   LIG    1       12.279  42.413  21.052  0.00  0.00    +0.197 C 
BRANCH  23  24
ATOM     24  O   LIG    1       11.715  42.631  22.332  0.00  0.00    -0.346 OA
BRANCH  24  25
ATOM     25  C   LIG    1       12.701  43.018  23.284  0.00  0.00    +0.281 C 
ATOM     26  C   LIG    1       13.210  44.432  22.965  0.00  0.00    +0.201 C 
ATOM     27  C   LIG    1       12.187  45.511  23.335  0.00  0.00    +0.178 C 
ATOM     28  C   LIG    1       11.676  45.285  24.759  0.00  0.00    +0.171 C 
ATOM     29  C   LIG    1       11.180  43.856  24.932  0.00  0.00    +0.197 C 
ATOM     36  O   LIG    1       12.215  42.924  24.628  0.00  0.00    -0.346 OA
BRANCH  28  30
ATOM     30  O   LIG    1       10.638  46.210  25.051  0.00  0.00    -0.387 OA
ATOM     31  H   LIG    1       11.030  47.100  25.060  0.00  0.00    +0.210 HD
ENDBRANCH  28  30
BRANCH  27  32
ATOM     32  O   LIG    1       11.088  45.458  22.426  0.00  0.00    -0.386 OA
ATOM     33  H   LIG    1       10.680  46.341  22.409  0.00  0.00    +0.210 HD
ENDBRANCH  27  32
BRANCH  26  34
ATOM     34  O   LIG    1       14.410  44.645  23.704  0.00  0.00    -0.384 OA
ATOM     35  H   LIG    1       14.739  43.785  24.013  0.00  0.00    +0.210 HD
ENDBRANCH  26  34
ENDBRANCH  24  25
ENDBRANCH  23  24
ENDBRANCH  22  23
TORSDOF 13
ENDMDL
