REMARK VINA RESULT:      -7.2      1.997      6.954
REMARK  8 active torsions:
REMARK  status: ('A' for Active; 'I' for Inactive)
REMARK    1  A    between atoms: C_2  and  O_3 
REMARK    2  A    between atoms: C_15  and  O_16 
REMARK    3  A    between atoms: C_28  and  C_29 
REMARK    4  A    between atoms: C_33  and  C_34 
REMARK    5  A    between atoms: O_3  and  C_4 
REMARK    6  A    between atoms: C_4  and  C_6 
REMARK    7  A    between atoms: O_16  and  C_17 
REMARK    8  A    between atoms: C_17  and  C_19 
ROOT
ATOM      1  O   LIG     1     180.404 176.631 170.193  0.00  0.00    -0.315 OA
ATOM      2  C   LIG     1     179.223 175.909 170.615  0.00  0.00     0.332 C 
ATOM      3  C   LIG     1     178.663 176.393 171.984  0.00  0.00     0.244 C 
ATOM      4  C   LIG     1     179.772 176.537 173.077  0.00  0.00     0.112 C 
ATOM      5  C   LIG     1     181.027 177.277 172.512  0.00  0.00     0.188 C 
ATOM      6  O   LIG     1     180.710 178.666 172.370  0.00  0.00    -0.220 OA
ATOM      7  C   LIG     1     181.504 176.750 171.123  0.00  0.00     0.182 C 
ENDROOT
BRANCH   2   8
ATOM      8  O   LIG     1     179.345 174.477 170.607  0.00  0.00    -0.418 OA
BRANCH   8   9
ATOM      9  C   LIG     1     178.643 173.597 169.830  0.00  0.00     0.343 C 
ATOM     10  O   LIG     1     179.237 173.002 168.898  0.00  0.00    -0.245 OA
BRANCH   9  11
ATOM     11  C   LIG     1     177.254 173.388 170.058  0.00  0.00     0.082 A 
ATOM     12  C   LIG     1     176.334 173.404 168.980  0.00  0.00     0.052 A 
ATOM     13  C   LIG     1     174.979 173.069 169.170  0.00  0.00     0.238 A 
ATOM     14  C   LIG     1     174.513 172.749 170.460  0.00  0.00     0.273 A 
ATOM     15  O   LIG     1     174.116 173.040 168.120  0.00  0.00    -0.283 OA
ATOM     16  O   LIG     1     173.211 172.403 170.624  0.00  0.00    -0.280 OA
ATOM     17  C   LIG     1     175.398 172.791 171.557  0.00  0.00     0.238 A 
ATOM     18  C   LIG     1     176.758 173.096 171.352  0.00  0.00     0.052 A 
ATOM     19  O   LIG     1     174.938 172.524 172.807  0.00  0.00    -0.283 OA
ENDBRANCH   9  11
ENDBRANCH   8   9
ENDBRANCH   2   8
BRANCH   3  20
ATOM     20  O   LIG     1     177.984 177.645 171.753  0.00  0.00    -0.442 OA
BRANCH  20  21
ATOM     21  C   LIG     1     176.637 177.884 171.783  0.00  0.00     0.341 C 
ATOM     22  O   LIG     1     176.240 178.513 172.790  0.00  0.00    -0.245 OA
BRANCH  21  23
ATOM     23  C   LIG     1     175.736 177.552 170.731  0.00  0.00     0.082 A 
ATOM     24  C   LIG     1     174.576 176.779 170.988  0.00  0.00     0.052 A 
ATOM     25  C   LIG     1     173.694 176.412 169.951  0.00  0.00     0.238 A 
ATOM     26  O   LIG     1     172.609 175.644 170.230  0.00  0.00    -0.283 OA
ATOM     27  C   LIG     1     173.948 176.835 168.629  0.00  0.00     0.273 A 
ATOM     28  O   LIG     1     173.117 176.506 167.604  0.00  0.00    -0.280 OA
ATOM     29  C   LIG     1     175.088 177.615 168.356  0.00  0.00     0.238 A 
ATOM     30  O   LIG     1     175.344 178.007 167.082  0.00  0.00    -0.283 OA
ATOM     31  C   LIG     1     175.961 177.982 169.401  0.00  0.00     0.052 A 
ENDBRANCH  21  23
ENDBRANCH  20  21
ENDBRANCH   3  20
BRANCH   7  32
ATOM     32  C   LIG     1     182.411 175.488 171.136  0.00  0.00     0.214 C 
ATOM     33  O   LIG     1     182.612 174.984 169.819  0.00  0.00    -0.218 OA
ENDBRANCH   7  32
BRANCH   4  34
ATOM     34  C   LIG     1     180.104 175.195 173.800  0.00  0.00     0.189 C 
ATOM     35  O   LIG     1     180.641 175.435 175.097  0.00  0.00    -0.220 OA
ENDBRANCH   4  34
TORSDOF 8
