REMARK  10 active torsions:
REMARK  status: ('A' for Active; 'I' for Inactive)
REMARK    1  A    between atoms: C_2  and  N_7 
REMARK    2  A    between atoms: C_3  and  C_11 
REMARK       I    between atoms: N_7  and  C_8 
REMARK    3  A    between atoms: C_11  and  O_12 
REMARK    4  A    between atoms: O_12  and  C_14 
REMARK    5  A    between atoms: C_17  and  O_38 
REMARK    6  A    between atoms: C_23  and  O_30 
REMARK    7  A    between atoms: C_24  and  O_31 
REMARK    8  A    between atoms: C_25  and  O_34 
REMARK    9  A    between atoms: C_29  and  O_32 
REMARK   10  A    between atoms: N_36  and  C_41 
ROOT
HETATM    1  C   UNL     1       0.268  -3.472  -0.398  1.00  0.00     0.102 C 
HETATM    2  C   UNL     1       0.296  -4.691  -1.503  1.00  0.00     0.037 C 
HETATM    3  C   UNL     1       1.321  -4.640  -2.669  1.00  0.00     0.030 C 
HETATM    4  C   UNL     1       1.308  -3.196  -3.304  1.00  0.00     0.132 C 
HETATM    5  C   UNL     1       1.569  -2.102  -2.275  1.00  0.00     0.036 C 
HETATM    6  C   UNL     1       0.499  -2.102  -1.170  1.00  0.00     0.043 C 
HETATM    7  C   UNL     1       0.713  -6.138  -0.936  1.00  0.00     0.018 C 
HETATM    8  C   UNL     1       1.081  -5.671  -3.831  1.00  0.00     0.040 C 
HETATM    9  C   UNL     1       2.231  -6.435  -1.379  1.00  0.00     0.058 C 
HETATM   10  C   UNL     1       2.593  -7.269  -2.706  1.00  0.00     0.100 C 
HETATM   11  C   UNL     1       2.349  -6.469  -4.067  1.00  0.00     0.120 C 
HETATM   12  C   UNL     1       1.889  -7.216  -5.345  1.00  0.00     0.165 C 
HETATM   13  C   UNL     1       0.713  -7.971  -4.753  1.00  0.00     0.047 C 
HETATM   14  C   UNL     1      -0.003  -6.800  -3.964  1.00  0.00     0.018 C 
HETATM   15  C   UNL     1       1.933  -8.658  -2.590  1.00  0.00     0.074 C 
HETATM   16  C   UNL     1       1.227  -9.133  -3.857  1.00  0.00     0.130 C 
HETATM   17  N   UNL     1       2.844  -4.223  -0.250  1.00  0.00     0.097 N 
HETATM   18  C   UNL     1       2.705  -5.009  -1.618  1.00  0.00     0.242 C 
HETATM   19  C   UNL     1       1.575  -3.793   0.503  1.00  0.00     0.311 C 
ENDROOT
BRANCH   1  20
HETATM   20  O   UNL     1      -0.943  -3.489   0.408  1.00  0.00    -0.304 OA
BRANCH  20  21
HETATM   21  C   UNL     1      -1.650  -2.455   0.967  1.00  0.00     0.296 C 
HETATM   22  O   UNL     1      -2.803  -2.616   1.332  1.00  0.00    -0.259 OA
BRANCH  21  23
HETATM   23  C   UNL     1      -1.090  -1.077   1.074  1.00  0.00     0.066 C 
HETATM   24  C   UNL     1      -1.741   0.012   0.443  1.00  0.00     0.051 C 
HETATM   25  C   UNL     1      -1.065   1.238   0.369  1.00  0.00     0.030 C 
HETATM   26  C   UNL     1       0.176   1.413   0.988  1.00  0.00     0.002 C 
HETATM   27  C   UNL     1       0.735   0.380   1.734  1.00  0.00     0.001 C 
HETATM   28  C   UNL     1       0.094  -0.861   1.795  1.00  0.00     0.020 C 
BRANCH  24  29
HETATM   29  N   UNL     1      -3.071  -0.142  -0.030  1.00  0.00    -0.327 N 
HETATM   30  C   UNL     1      -3.884   0.830  -0.586  1.00  0.00     0.218 C 
HETATM   31  O   UNL     1      -3.544   1.946  -0.967  1.00  0.00    -0.274 OA
HETATM   32  C   UNL     1      -5.333   0.418  -0.639  1.00  0.00     0.117 C 
HETATM   33  H   UNL     1      -3.516  -1.026   0.218  1.00  0.00     0.169 HD
ENDBRANCH  24  29
ENDBRANCH  21  23
ENDBRANCH  20  21
ENDBRANCH   1  20
BRANCH  17  34
HETATM   34  C   UNL     1       3.711  -4.877   0.755  1.00  0.00     0.268 C 
HETATM   35  C   UNL     1       5.175  -4.974   0.377  1.00  0.00     0.037 C 
ENDBRANCH  17  34
BRANCH   4  36
HETATM   36  O   UNL     1      -0.016  -3.043  -3.869  1.00  0.00    -0.390 OA
HETATM   37  C   UNL     1      -0.258  -1.806  -4.524  1.00  0.00     0.202 C 
ENDBRANCH   4  36
BRANCH  11  38
HETATM   38  O   UNL     1       3.429  -5.596  -4.383  1.00  0.00    -0.384 OA
HETATM   39  H   UNL     1       4.215  -6.180  -4.359  1.00  0.00     0.210 HD
ENDBRANCH  11  38
BRANCH  10  40
HETATM   40  O   UNL     1       4.032  -7.488  -2.669  1.00  0.00    -0.386 OA
HETATM   41  H   UNL     1       4.272  -7.834  -1.792  1.00  0.00     0.210 HD
ENDBRANCH  10  40
BRANCH  12  42
HETATM   42  O   UNL     1       2.864  -7.931  -6.077  1.00  0.00    -0.387 OA
HETATM   43  C   UNL     1       2.323  -8.491  -7.279  1.00  0.00     0.202 C 
ENDBRANCH  12  42
BRANCH  16  44
HETATM   44  O   UNL     1       1.929 -10.144  -4.600  1.00  0.00    -0.390 OA
HETATM   45  C   UNL     1       3.354 -10.190  -4.530  1.00  0.00     0.202 C 
ENDBRANCH  16  44
TORSDOF 10
