REMARK  11 active torsions:
REMARK  status: ('A' for Active; 'I' for Inactive)
REMARK    1  A    between atoms: C_7  and  C_14 
REMARK    2  A    between atoms: C_8  and  C_10 
REMARK    3  A    between atoms: C_10  and  C_11 
REMARK    4  A    between atoms: C_11  and  C_12 
REMARK    5  A    between atoms: C_14  and  C_15 
REMARK    6  A    between atoms: C_19  and  O_23 
REMARK    7  A    between atoms: O_23  and  C_25 
REMARK    8  A    between atoms: C_25  and  C_26 
REMARK    9  A    between atoms: C_26  and  N_27 
REMARK   10  A    between atoms: N_27  and  C_28 
REMARK   11  A    between atoms: N_27  and  C_29 
ROOT
HETATM    1  C   UNL     1       1.055  -3.642   0.121  1.00  0.00     0.018 C 
HETATM    2  C   UNL     1      -0.294  -3.507  -0.163  1.00  0.00     0.036 C 
HETATM    3  C   UNL     1      -1.210  -4.555   0.059  1.00  0.00     0.042 C 
HETATM    4  C   UNL     1      -0.758  -5.866   0.304  1.00  0.00     0.101 C 
HETATM    5  C   UNL     1       0.640  -6.029   0.426  1.00  0.00     0.042 C 
HETATM    6  C   UNL     1       1.526  -4.935   0.376  1.00  0.00     0.036 C 
HETATM    7  I   UNL     1      -3.192  -3.766   0.238  1.00  0.00    -0.042 I 
HETATM    8  I   UNL     1       1.520  -7.930   0.714  1.00  0.00    -0.042 I 
ENDROOT
BRANCH   1   9
HETATM    9  C   UNL     1       2.008  -2.483   0.171  1.00  0.00     0.195 C 
HETATM   10  O   UNL     1       3.202  -2.778   0.206  1.00  0.00    -0.287 OA
BRANCH   9  11
HETATM   11  C   UNL     1       1.587  -1.069   0.126  1.00  0.00     0.058 C 
HETATM   12  C   UNL     1       0.348  -0.367   0.394  1.00  0.00     0.014 C 
HETATM   13  C   UNL     1      -0.913  -0.640   0.969  1.00  0.00     0.015 C 
HETATM   14  C   UNL     1       0.526   0.922  -0.095  1.00  0.00     0.087 C 
HETATM   15  C   UNL     1      -1.953   0.299   0.864  1.00  0.00     0.001 C 
HETATM   16  C   UNL     1      -1.739   1.538   0.268  1.00  0.00     0.003 C 
HETATM   17  C   UNL     1      -0.472   1.892  -0.194  1.00  0.00     0.038 C 
HETATM   18  O   UNL     1       1.817   1.118  -0.433  1.00  0.00    -0.313 OA
HETATM   19  C   UNL     1       2.482  -0.044  -0.189  1.00  0.00     0.069 C 
BRANCH  19  20
HETATM   20  C   UNL     1       3.971   0.027  -0.311  1.00  0.00     0.066 C 
BRANCH  20  21
HETATM   21  C   UNL     1       4.499   1.460  -0.153  1.00  0.00     0.006 C 
BRANCH  21  22
HETATM   22  C   UNL     1       6.023   1.512  -0.090  1.00  0.00    -0.004 C 
HETATM   23  C   UNL     1       6.515   2.950  -0.001  1.00  0.00     0.005 C 
ENDBRANCH  21  22
ENDBRANCH  20  21
ENDBRANCH  19  20
ENDBRANCH   9  11
ENDBRANCH   1   9
BRANCH   4  24
HETATM   24  O   UNL     1      -1.491  -7.025   0.439  1.00  0.00    -0.347 OA
BRANCH  24  25
HETATM   25  C   UNL     1      -2.846  -7.000   0.008  1.00  0.00     0.206 C 
BRANCH  25  26
HETATM   26  C   UNL     1      -3.470  -8.381  -0.227  1.00  0.00     0.299 C 
BRANCH  26  27
HETATM   27  N   UNL     1      -4.946  -8.274  -0.376  1.00  0.00     0.089 N 
BRANCH  27  28
HETATM   28  C   UNL     1      -5.366  -7.752  -1.693  1.00  0.00     0.268 C 
HETATM   29  C   UNL     1      -5.422  -6.229  -1.761  1.00  0.00     0.037 C 
ENDBRANCH  27  28
BRANCH  27  30
HETATM   30  C   UNL     1      -5.592  -9.565  -0.082  1.00  0.00     0.268 C 
HETATM   31  C   UNL     1      -7.071  -9.394   0.266  1.00  0.00     0.037 C 
ENDBRANCH  27  30
ENDBRANCH  26  27
ENDBRANCH  25  26
ENDBRANCH  24  25
ENDBRANCH   4  24
TORSDOF 11
