REMARK  11 active torsions:
REMARK  status: ('A' for Active; 'I' for Inactive)
REMARK    1  A    between atoms: O_2  and  C_16 
REMARK    2  A    between atoms: O_2  and  C_18 
REMARK    3  A    between atoms: O_3  and  C_12 
REMARK    4  A    between atoms: O_4  and  C_13 
REMARK    5  A    between atoms: O_5  and  C_14 
REMARK    6  A    between atoms: O_6  and  C_17 
REMARK    7  A    between atoms: O_8  and  C_23 
REMARK    8  A    between atoms: O_10  and  C_30 
REMARK    9  A    between atoms: O_11  and  C_32 
REMARK   10  A    between atoms: C_15  and  C_17 
REMARK   11  A    between atoms: C_25  and  C_27 
ROOT
HETATM    1  O   UNL     1      -3.633   0.054  -0.564  1.00  0.00    -0.348 OA
HETATM    2  C   UNL     1      -5.475  -1.754   0.696  1.00  0.00     0.183 C 
HETATM    3  C   UNL     1      -5.564  -1.393  -0.787  1.00  0.00     0.180 C 
HETATM    4  C   UNL     1      -4.715  -0.684   1.481  1.00  0.00     0.205 C 
HETATM    5  C   UNL     1      -4.188  -1.012  -1.337  1.00  0.00     0.179 C 
HETATM    6  C   UNL     1      -3.400  -0.318   0.792  1.00  0.00     0.298 C 
ENDROOT
BRANCH   5   7
HETATM    7  C   UNL     1      -4.271  -0.536  -2.784  1.00  0.00     0.198 C 
BRANCH   7   8
HETATM    8  O   UNL     1      -2.969  -0.191  -3.220  1.00  0.00    -0.398 OA
HETATM    9  H   UNL     1      -2.629   0.496  -2.621  1.00  0.00     0.209 HD
ENDBRANCH   7   8
ENDBRANCH   5   7
BRANCH   6  10
HETATM   10  O   UNL     1      -2.824   0.778   1.501  1.00  0.00    -0.318 OA
BRANCH  10  11
HETATM   11  C   UNL     1      -1.637   1.255   1.027  1.00  0.00     0.077 A 
HETATM   12  C   UNL     1      -0.525   0.414   0.962  1.00  0.00     0.075 A 
HETATM   13  C   UNL     1       0.687   0.904   0.477  1.00  0.00     0.095 A 
HETATM   14  O   UNL     1       1.745   0.031   0.437  1.00  0.00    -0.309 OA
HETATM   15  C   UNL     1       0.786   2.231   0.060  1.00  0.00     0.081 A 
HETATM   16  C   UNL     1       2.961   0.489  -0.046  1.00  0.00     0.090 A 
HETATM   17  C   UNL     1       3.183   1.743  -0.470  1.00  0.00     0.094 A 
HETATM   18  C   UNL     1       2.077   2.722  -0.445  1.00  0.00     0.190 A 
HETATM   19  O   UNL     1       2.235   3.874  -0.824  1.00  0.00    -0.287 OA
HETATM   20  C   UNL     1      -0.325   3.075   0.124  1.00  0.00     0.085 A 
HETATM   21  C   UNL     1      -1.537   2.582   0.609  1.00  0.00     0.074 A 
BRANCH  16  22
HETATM   22  C   UNL     1       4.031  -0.530  -0.040  1.00  0.00     0.001 A 
HETATM   23  C   UNL     1       5.362  -0.147   0.140  1.00  0.00     0.053 A 
HETATM   24  C   UNL     1       6.372  -1.109   0.147  1.00  0.00     0.099 A 
HETATM   25  C   UNL     1       6.054  -2.456  -0.027  1.00  0.00     0.098 A 
HETATM   26  C   UNL     1       4.725  -2.841  -0.206  1.00  0.00     0.040 A 
HETATM   27  C   UNL     1       3.715  -1.879  -0.213  1.00  0.00     0.017 A 
BRANCH  24  28
HETATM   28  O   UNL     1       7.667  -0.722   0.321  1.00  0.00    -0.358 OA
HETATM   29  H   UNL     1       8.229  -1.515   0.298  1.00  0.00     0.217 HD
ENDBRANCH  24  28
BRANCH  25  30
HETATM   30  O   UNL     1       7.031  -3.405  -0.021  1.00  0.00    -0.358 OA
HETATM   31  H   UNL     1       6.625  -4.279  -0.154  1.00  0.00     0.217 HD
ENDBRANCH  25  30
ENDBRANCH  16  22
BRANCH  20  32
HETATM   32  O   UNL     1      -0.279   4.378  -0.271  1.00  0.00    -0.360 OA
HETATM   33  H   UNL     1       0.607   4.606  -0.590  1.00  0.00     0.217 HD
ENDBRANCH  20  32
ENDBRANCH  10  11
ENDBRANCH   6  10
BRANCH   3  34
HETATM   34  O   UNL     1      -6.069  -2.511  -1.514  1.00  0.00    -0.390 OA
HETATM   35  H   UNL     1      -5.441  -3.246  -1.409  1.00  0.00     0.210 HD
ENDBRANCH   3  34
BRANCH   4  36
HETATM   36  O   UNL     1      -4.415  -1.178   2.786  1.00  0.00    -0.388 OA
HETATM   37  H   UNL     1      -3.859  -1.970   2.688  1.00  0.00     0.210 HD
ENDBRANCH   4  36
BRANCH   2  38
HETATM   38  O   UNL     1      -6.805  -1.863   1.206  1.00  0.00    -0.390 OA
HETATM   39  H   UNL     1      -7.264  -2.539   0.678  1.00  0.00     0.210 HD
ENDBRANCH   2  38
TORSDOF 11
