REMARK  Name = PCA
REMARK  2 active torsions:
REMARK  status: ('A' for Active; 'I' for Inactive)
REMARK    1  A    between atoms: CA_2  and  C_7
REMARK    2  A    between atoms: C_7  and  OXT_9
REMARK                            x       y       z     vdW  Elec       q    Type
REMARK                         _______ _______ _______ _____ _____    ______ ____
ROOT
ATOM      1  N   GLN A   1      38.821  57.719  67.990  0.00  0.00    +0.000 N 
ATOM      2  CA  GLN A   1      38.455  58.883  67.183  0.00  0.00    +0.000 C 
ATOM      3  CB  GLN A   1      37.375  59.639  67.947  0.00  0.00    +0.000 C 
ATOM      4  CG  GLN A   1      37.746  59.312  69.375  0.00  0.00    +0.000 C 
ATOM      5  CD  GLN A   1      38.398  57.930  69.250  0.00  0.00    +0.000 C 
ATOM      6  OE1 GLN A   1      38.575  57.133  70.197  0.00  0.00    +0.000 OA
ATOM     10  H   GLN A   1      39.309  56.868  67.709  0.00  0.00    +0.000 HD
ENDROOT
BRANCH   2   7
ATOM      7  C   GLN A   1      39.640  59.813  66.967  0.00  0.00    +0.000 C 
ATOM      8  O   GLN A   1      40.560  59.863  67.790  0.00  0.00    +0.000 OA
BRANCH   7   9
ATOM      9  OXT GLN A   1      39.626  60.540  65.853  0.00  0.00    +0.000 OA
ATOM     11  HXT GLN A   1      40.365  61.120  65.718  0.00  0.00    +0.000 HD
ENDBRANCH   7   9
ENDBRANCH   2   7
TORSDOF 2
