REMARK VINA RESULT:      -9.2      7.425     12.702
REMARK  13 active torsions:
REMARK  status: ('A' for Active; 'I' for Inactive)
REMARK    1  A    between atoms: C_4  and  O_5 
REMARK    2  A    between atoms: C_17  and  O_18 
REMARK    3  A    between atoms: C_30  and  O_31 
REMARK    4  A    between atoms: C_43  and  C_44 
REMARK    5  A    between atoms: O_5  and  C_6 
REMARK    6  A    between atoms: C_6  and  C_8 
REMARK    7  A    between atoms: O_18  and  C_19 
REMARK    8  A    between atoms: C_19  and  C_21 
REMARK    9  A    between atoms: O_31  and  C_32 
REMARK   10  A    between atoms: C_32  and  C_34 
REMARK   11  A    between atoms: C_44  and  O_45 
REMARK   12  A    between atoms: O_45  and  C_46 
REMARK   13  A    between atoms: C_46  and  C_48 
ROOT
ATOM      1  O   LIG     1     179.844 183.015 168.895  0.00  0.00    -0.320 OA
ATOM      2  C   LIG     1     181.054 183.761 169.134  0.00  0.00     0.313 C 
ATOM      3  O   LIG     1     180.851 185.048 168.565  0.00  0.00    -0.186 OA
ATOM      4  C   LIG     1     181.364 183.866 170.655  0.00  0.00     0.271 C 
ATOM      5  C   LIG     1     181.409 182.433 171.267  0.00  0.00     0.256 C 
ATOM      6  C   LIG     1     180.124 181.627 170.914  0.00  0.00     0.243 C 
ATOM      7  C   LIG     1     179.872 181.651 169.372  0.00  0.00     0.205 C 
ENDROOT
BRANCH   7   8
ATOM      8  C   LIG     1     178.529 180.979 168.984  0.00  0.00     0.242 C 
BRANCH   8   9
ATOM      9  O   LIG     1     178.703 179.609 168.580  0.00  0.00    -0.443 OA
BRANCH   9  10
ATOM     10  C   LIG     1     177.812 178.584 168.791  0.00  0.00     0.341 C 
ATOM     11  O   LIG     1     176.590 178.858 168.889  0.00  0.00    -0.245 OA
BRANCH  10  12
ATOM     12  C   LIG     1     178.258 177.233 168.880  0.00  0.00     0.082 A 
ATOM     13  C   LIG     1     177.399 176.219 169.370  0.00  0.00     0.052 A 
ATOM     14  C   LIG     1     177.836 174.887 169.490  0.00  0.00     0.238 A 
ATOM     15  O   LIG     1     176.975 173.965 169.994  0.00  0.00    -0.283 OA
ATOM     16  C   LIG     1     179.144 174.532 169.097  0.00  0.00     0.273 A 
ATOM     17  O   LIG     1     179.551 173.239 169.205  0.00  0.00    -0.280 OA
ATOM     18  C   LIG     1     180.013 175.524 168.599  0.00  0.00     0.238 A 
ATOM     19  O   LIG     1     181.274 175.191 168.222  0.00  0.00    -0.283 OA
ATOM     20  C   LIG     1     179.571 176.859 168.498  0.00  0.00     0.052 A 
ENDBRANCH  10  12
ENDBRANCH   9  10
ENDBRANCH   8   9
ENDBRANCH   7   8
BRANCH   6  21
ATOM     21  O   LIG     1     180.288 180.266 171.356  0.00  0.00    -0.443 OA
BRANCH  21  22
ATOM     22  C   LIG     1     179.432 179.457 172.052  0.00  0.00     0.341 C 
ATOM     23  O   LIG     1     178.474 180.063 172.583  0.00  0.00    -0.245 OA
BRANCH  22  24
ATOM     24  C   LIG     1     179.577 178.060 172.266  0.00  0.00     0.082 A 
ATOM     25  C   LIG     1     178.507 177.278 172.754  0.00  0.00     0.052 A 
ATOM     26  C   LIG     1     178.631 175.885 172.922  0.00  0.00     0.238 A 
ATOM     27  C   LIG     1     179.837 175.250 172.578  0.00  0.00     0.273 A 
ATOM     28  O   LIG     1     177.594 175.150 173.406  0.00  0.00    -0.283 OA
ATOM     29  C   LIG     1     180.924 176.011 172.102  0.00  0.00     0.238 A 
ATOM     30  O   LIG     1     179.948 173.906 172.703  0.00  0.00    -0.280 OA
ATOM     31  O   LIG     1     182.096 175.402 171.794  0.00  0.00    -0.283 OA
ATOM     32  C   LIG     1     180.793 177.406 171.950  0.00  0.00     0.052 A 
ENDBRANCH  22  24
ENDBRANCH  21  22
ENDBRANCH   6  21
BRANCH   5  33
ATOM     33  O   LIG     1     181.517 182.469 172.701  0.00  0.00    -0.441 OA
BRANCH  33  34
ATOM     34  C   LIG     1     182.558 182.017 173.458  0.00  0.00     0.342 C 
ATOM     35  O   LIG     1     182.561 180.784 173.675  0.00  0.00    -0.245 OA
BRANCH  34  36
ATOM     36  C   LIG     1     183.649 182.829 173.872  0.00  0.00     0.082 A 
ATOM     37  C   LIG     1     183.359 184.011 174.675  0.00  0.00     0.052 A 
ATOM     38  C   LIG     1     184.442 184.771 175.164  0.00  0.00     0.238 A 
ATOM     39  O   LIG     1     184.183 185.861 175.929  0.00  0.00    -0.283 OA
ATOM     40  C   LIG     1     185.786 184.429 174.892  0.00  0.00     0.273 A 
ATOM     41  O   LIG     1     186.787 185.192 175.404  0.00  0.00    -0.280 OA
ATOM     42  C   LIG     1     186.042 183.267 174.058  0.00  0.00     0.238 A 
ATOM     43  C   LIG     1     184.986 182.405 173.501  0.00  0.00     0.052 A 
ATOM     44  O   LIG     1     187.405 183.046 173.835  0.00  0.00    -0.283 OA
ENDBRANCH  34  36
ENDBRANCH  33  34
ENDBRANCH   5  33
BRANCH   4  45
ATOM     45  O   LIG     1     182.622 184.521 170.906  0.00  0.00    -0.440 OA
BRANCH  45  46
ATOM     46  C   LIG     1     182.818 185.779 171.406  0.00  0.00     0.342 C 
ATOM     47  O   LIG     1     181.964 186.152 172.242  0.00  0.00    -0.245 OA
BRANCH  46  48
ATOM     48  C   LIG     1     183.834 186.670 170.955  0.00  0.00     0.082 A 
ATOM     49  C   LIG     1     183.541 187.726 170.062  0.00  0.00     0.052 A 
ATOM     50  C   LIG     1     184.537 188.630 169.638  0.00  0.00     0.238 A 
ATOM     51  O   LIG     1     184.217 189.635 168.785  0.00  0.00    -0.283 OA
ATOM     52  C   LIG     1     185.860 188.489 170.107  0.00  0.00     0.273 A 
ATOM     53  O   LIG     1     186.834 189.365 169.744  0.00  0.00    -0.280 OA
ATOM     54  C   LIG     1     186.179 187.429 170.979  0.00  0.00     0.238 A 
ATOM     55  O   LIG     1     187.449 187.250 171.427  0.00  0.00    -0.283 OA
ATOM     56  C   LIG     1     185.173 186.538 171.403  0.00  0.00     0.052 A 
ENDBRANCH  46  48
ENDBRANCH  45  46
ENDBRANCH   4  45
TORSDOF 13
