REMARK VINA RESULT:      -8.9      1.734      3.100
REMARK  13 active torsions:
REMARK  status: ('A' for Active; 'I' for Inactive)
REMARK    1  A    between atoms: C_4  and  O_5 
REMARK    2  A    between atoms: C_17  and  O_18 
REMARK    3  A    between atoms: C_30  and  O_31 
REMARK    4  A    between atoms: C_43  and  C_44 
REMARK    5  A    between atoms: O_5  and  C_6 
REMARK    6  A    between atoms: C_6  and  C_8 
REMARK    7  A    between atoms: O_18  and  C_19 
REMARK    8  A    between atoms: C_19  and  C_21 
REMARK    9  A    between atoms: O_31  and  C_32 
REMARK   10  A    between atoms: C_32  and  C_34 
REMARK   11  A    between atoms: C_44  and  O_45 
REMARK   12  A    between atoms: O_45  and  C_46 
REMARK   13  A    between atoms: C_46  and  C_48 
ROOT
ATOM      1  O   LIG     1     175.320 171.212 170.753  0.00  0.00    -0.320 OA
ATOM      2  C   LIG     1     175.304 171.017 172.181  0.00  0.00     0.313 C 
ATOM      3  O   LIG     1     175.020 169.640 172.393  0.00  0.00    -0.186 OA
ATOM      4  C   LIG     1     176.665 171.411 172.823  0.00  0.00     0.271 C 
ATOM      5  C   LIG     1     177.014 172.875 172.420  0.00  0.00     0.256 C 
ATOM      6  C   LIG     1     176.936 173.071 170.876  0.00  0.00     0.243 C 
ATOM      7  C   LIG     1     175.557 172.575 170.333  0.00  0.00     0.205 C 
ENDROOT
BRANCH   7   8
ATOM      8  C   LIG     1     175.482 172.621 168.785  0.00  0.00     0.242 C 
BRANCH   8   9
ATOM      9  O   LIG     1     174.265 173.227 168.316  0.00  0.00    -0.443 OA
BRANCH   9  10
ATOM     10  C   LIG     1     173.487 174.122 169.011  0.00  0.00     0.341 C 
ATOM     11  O   LIG     1     172.453 173.702 169.587  0.00  0.00    -0.245 OA
BRANCH  10  12
ATOM     12  C   LIG     1     173.851 175.498 169.096  0.00  0.00     0.082 A 
ATOM     13  C   LIG     1     173.899 176.305 167.933  0.00  0.00     0.052 A 
ATOM     14  C   LIG     1     174.285 177.657 167.999  0.00  0.00     0.238 A 
ATOM     15  O   LIG     1     174.339 178.373 166.845  0.00  0.00    -0.283 OA
ATOM     16  C   LIG     1     174.610 178.242 169.241  0.00  0.00     0.273 A 
ATOM     17  O   LIG     1     174.968 179.552 169.294  0.00  0.00    -0.280 OA
ATOM     18  C   LIG     1     174.560 177.458 170.412  0.00  0.00     0.238 A 
ATOM     19  O   LIG     1     174.875 178.013 171.610  0.00  0.00    -0.283 OA
ATOM     20  C   LIG     1     174.189 176.100 170.334  0.00  0.00     0.052 A 
ENDBRANCH  10  12
ENDBRANCH   9  10
ENDBRANCH   8   9
ENDBRANCH   7   8
BRANCH   6  21
ATOM     21  O   LIG     1     177.101 174.469 170.572  0.00  0.00    -0.443 OA
BRANCH  21  22
ATOM     22  C   LIG     1     177.988 175.090 169.736  0.00  0.00     0.341 C 
ATOM     23  O   LIG     1     178.733 174.305 169.108  0.00  0.00    -0.245 OA
BRANCH  22  24
ATOM     24  C   LIG     1     178.167 176.491 169.585  0.00  0.00     0.082 A 
ATOM     25  C   LIG     1     178.409 177.067 168.318  0.00  0.00     0.052 A 
ATOM     26  C   LIG     1     178.540 178.460 168.156  0.00  0.00     0.238 A 
ATOM     27  C   LIG     1     178.405 179.304 169.273  0.00  0.00     0.273 A 
ATOM     28  O   LIG     1     178.787 178.995 166.930  0.00  0.00    -0.283 OA
ATOM     29  C   LIG     1     178.177 178.751 170.549  0.00  0.00     0.238 A 
ATOM     30  O   LIG     1     178.492 180.646 169.115  0.00  0.00    -0.280 OA
ATOM     31  O   LIG     1     178.071 179.563 171.631  0.00  0.00    -0.283 OA
ATOM     32  C   LIG     1     178.061 177.355 170.702  0.00  0.00     0.052 A 
ENDBRANCH  22  24
ENDBRANCH  21  22
ENDBRANCH   6  21
BRANCH   5  33
ATOM     33  O   LIG     1     178.343 173.240 172.835  0.00  0.00    -0.441 OA
BRANCH  33  34
ATOM     34  C   LIG     1     178.752 174.453 173.307  0.00  0.00     0.342 C 
ATOM     35  O   LIG     1     178.085 174.902 174.267  0.00  0.00    -0.245 OA
BRANCH  34  36
ATOM     36  C   LIG     1     179.922 175.124 172.859  0.00  0.00     0.082 A 
ATOM     37  C   LIG     1     180.835 174.401 171.982  0.00  0.00     0.052 A 
ATOM     38  C   LIG     1     181.952 175.089 171.462  0.00  0.00     0.238 A 
ATOM     39  O   LIG     1     182.796 174.431 170.629  0.00  0.00    -0.283 OA
ATOM     40  C   LIG     1     182.214 176.443 171.773  0.00  0.00     0.273 A 
ATOM     41  O   LIG     1     183.297 177.055 171.230  0.00  0.00    -0.280 OA
ATOM     42  C   LIG     1     181.306 177.126 172.680  0.00  0.00     0.238 A 
ATOM     43  C   LIG     1     180.112 176.502 173.273  0.00  0.00     0.052 A 
ATOM     44  O   LIG     1     181.683 178.448 172.934  0.00  0.00    -0.283 OA
ENDBRANCH  34  36
ENDBRANCH  33  34
ENDBRANCH   5  33
BRANCH   4  45
ATOM     45  O   LIG     1     176.633 171.317 174.260  0.00  0.00    -0.440 OA
BRANCH  45  46
ATOM     46  C   LIG     1     177.165 170.327 175.039  0.00  0.00     0.342 C 
ATOM     47  O   LIG     1     178.009 169.601 174.465  0.00  0.00    -0.245 OA
BRANCH  46  48
ATOM     48  C   LIG     1     176.740 170.038 176.368  0.00  0.00     0.082 A 
ATOM     49  C   LIG     1     177.561 169.311 177.260  0.00  0.00     0.052 A 
ATOM     50  C   LIG     1     177.158 169.050 178.585  0.00  0.00     0.238 A 
ATOM     51  O   LIG     1     177.976 168.355 179.415  0.00  0.00    -0.283 OA
ATOM     52  C   LIG     1     175.909 169.518 179.045  0.00  0.00     0.273 A 
ATOM     53  O   LIG     1     175.508 169.312 180.328  0.00  0.00    -0.280 OA
ATOM     54  C   LIG     1     175.065 170.224 178.166  0.00  0.00     0.238 A 
ATOM     55  O   LIG     1     173.844 170.664 178.570  0.00  0.00    -0.283 OA
ATOM     56  C   LIG     1     175.483 170.487 176.846  0.00  0.00     0.052 A 
ENDBRANCH  46  48
ENDBRANCH  45  46
ENDBRANCH   4  45
TORSDOF 13
