REMARK VINA RESULT:      -6.5      1.599      6.806
REMARK  5 active torsions:
REMARK  status: ('A' for Active; 'I' for Inactive)
REMARK    1  A    between atoms: O_2  and  C_13 
REMARK    2  A    between atoms: O_4  and  C_16 
REMARK    3  A    between atoms: O_5  and  C_19 
REMARK    4  A    between atoms: O_6  and  C_21 
REMARK    5  A    between atoms: C_9  and  C_10 
ROOT
HETATM    1  O   UNK     0     184.477 183.300 172.477  0.00  0.00    -0.309 OA
HETATM    2  O   UNK     0     184.431 185.598 175.841  0.00  0.00    -0.287 OA
HETATM    3  C   UNK     0     185.546 184.998 173.847  0.00  0.00     0.081 A 
HETATM    4  C   UNK     0     185.499 184.184 172.717  0.00  0.00     0.095 A 
HETATM    5  C   UNK     0     183.451 183.210 173.406  0.00  0.00     0.090 A 
HETATM    6  C   UNK     0     184.455 184.912 174.830  0.00  0.00     0.190 A 
HETATM    7  C   UNK     0     183.380 183.944 174.528  0.00  0.00     0.094 A 
HETATM    8  C   UNK     0     186.613 185.880 174.038  0.00  0.00     0.085 A 
HETATM    9  C   UNK     0     186.520 184.247 171.769  0.00  0.00     0.075 A 
HETATM   10  C   UNK     0     187.586 185.126 171.956  0.00  0.00     0.071 A 
HETATM   11  C   UNK     0     187.633 185.940 173.088  0.00  0.00     0.074 A 
ENDROOT
BRANCH   5  12
HETATM   12  C   UNK     0     182.402 182.235 173.049  0.00  0.00     0.001 A 
HETATM   13  C   UNK     0     182.711 180.877 172.945  0.00  0.00     0.053 A 
HETATM   14  C   UNK     0     181.720 179.956 172.607  0.00  0.00     0.099 A 
HETATM   15  C   UNK     0     180.415 180.390 172.372  0.00  0.00     0.098 A 
HETATM   16  C   UNK     0     180.103 181.745 172.473  0.00  0.00     0.040 A 
HETATM   17  C   UNK     0     181.094 182.666 172.811  0.00  0.00     0.017 A 
BRANCH  14  18
HETATM   18  O   UNK     0     182.037 178.634 172.510  0.00  0.00    -0.358 OA
HETATM   19  H   UNK     0     182.572 178.506 171.707  0.00  0.00     0.217 HD
ENDBRANCH  14  18
BRANCH  15  20
HETATM   20  O   UNK     0     179.439 179.500 172.042  0.00  0.00    -0.358 OA
HETATM   21  H   UNK     0     178.577 179.860 172.313  0.00  0.00     0.217 HD
ENDBRANCH  15  20
ENDBRANCH   5  12
BRANCH   8  22
HETATM   22  O   UNK     0     186.704 186.696 175.125  0.00  0.00    -0.360 OA
HETATM   23  H   UNK     0     186.445 187.601 174.893  0.00  0.00     0.217 HD
ENDBRANCH   8  22
BRANCH  10  24
HETATM   24  O   UNK     0     188.585 185.191 171.032  0.00  0.00    -0.361 OA
HETATM   25  H   UNK     0     189.407 184.858 171.431  0.00  0.00     0.217 HD
ENDBRANCH  10  24
TORSDOF 5
