REMARK VINA RESULT:      -6.6      8.002     10.458
REMARK  5 active torsions:
REMARK  status: ('A' for Active; 'I' for Inactive)
REMARK    1  A    between atoms: O_2  and  C_13 
REMARK    2  A    between atoms: O_4  and  C_16 
REMARK    3  A    between atoms: O_5  and  C_19 
REMARK    4  A    between atoms: O_6  and  C_21 
REMARK    5  A    between atoms: C_9  and  C_10 
ROOT
HETATM    1  O   UNK     0     178.050 175.735 170.596  0.00  0.00    -0.309 OA
HETATM    2  O   UNK     0     175.802 172.993 168.589  0.00  0.00    -0.287 OA
HETATM    3  C   UNK     0     175.877 175.048 169.753  0.00  0.00     0.081 A 
HETATM    4  C   UNK     0     176.704 175.944 170.428  0.00  0.00     0.095 A 
HETATM    5  C   UNK     0     178.608 174.576 170.078  0.00  0.00     0.090 A 
HETATM    6  C   UNK     0     176.467 173.821 169.194  0.00  0.00     0.190 A 
HETATM    7  C   UNK     0     177.919 173.641 169.404  0.00  0.00     0.094 A 
HETATM    8  C   UNK     0     174.514 175.313 169.613  0.00  0.00     0.085 A 
HETATM    9  C   UNK     0     176.171 177.115 170.966  0.00  0.00     0.075 A 
HETATM   10  C   UNK     0     174.809 177.384 170.827  0.00  0.00     0.071 A 
HETATM   11  C   UNK     0     173.983 176.486 170.153  0.00  0.00     0.074 A 
ENDROOT
BRANCH   5  12
HETATM   12  C   UNK     0     180.060 174.454 170.309  0.00  0.00     0.001 A 
HETATM   13  C   UNK     0     180.776 175.519 170.862  0.00  0.00     0.053 A 
HETATM   14  C   UNK     0     182.148 175.403 171.080  0.00  0.00     0.099 A 
HETATM   15  C   UNK     0     182.811 174.221 170.747  0.00  0.00     0.098 A 
HETATM   16  C   UNK     0     182.100 173.156 170.195  0.00  0.00     0.040 A 
HETATM   17  C   UNK     0     180.727 173.272 169.976  0.00  0.00     0.017 A 
BRANCH  14  18
HETATM   18  O   UNK     0     182.833 176.451 171.620  0.00  0.00    -0.358 OA
HETATM   19  H   UNK     0     183.417 176.108 172.317  0.00  0.00     0.217 HD
ENDBRANCH  14  18
BRANCH  15  20
HETATM   20  O   UNK     0     184.151 174.096 170.957  0.00  0.00    -0.358 OA
HETATM   21  H   UNK     0     184.572 174.964 170.837  0.00  0.00     0.217 HD
ENDBRANCH  15  20
ENDBRANCH   5  12
BRANCH   8  22
HETATM   22  O   UNK     0     173.665 174.469 168.963  0.00  0.00    -0.360 OA
HETATM   23  H   UNK     0     173.105 173.996 169.597  0.00  0.00     0.217 HD
ENDBRANCH   8  22
BRANCH  10  24
HETATM   24  O   UNK     0     174.285 178.527 171.351  0.00  0.00    -0.361 OA
HETATM   25  H   UNK     0     174.163 178.408 172.309  0.00  0.00     0.217 HD
ENDBRANCH  10  24
TORSDOF 5
