REMARK  Name = 5320623
REMARK  11 active torsions:
REMARK  status: ('A' for Active; 'I' for Inactive)
REMARK    1  A    between atoms: O_2  and  C_16
REMARK    2  A    between atoms: O_2  and  C_18
REMARK    3  A    between atoms: O_3  and  C_12
REMARK    4  A    between atoms: O_4  and  C_13
REMARK    5  A    between atoms: O_5  and  C_14
REMARK    6  A    between atoms: O_6  and  C_17
REMARK    7  A    between atoms: O_8  and  C_20
REMARK    8  A    between atoms: O_9  and  C_23
REMARK    9  A    between atoms: O_11  and  C_32
REMARK   10  A    between atoms: C_15  and  C_17
REMARK   11  A    between atoms: C_25  and  C_27
REMARK                            x       y       z     vdW  Elec       q    Type
REMARK                         _______ _______ _______ _____ _____    ______ ____
ROOT
ATOM      7  O   UNL     1       2.056  -0.071   0.448  0.00  0.00    +0.000 OA
ATOM     10  O   UNL     1       2.548   3.737  -0.915  0.00  0.00    +0.000 OA
ATOM     18  C   UNL     1      -1.334   1.159   0.974  0.00  0.00    +0.000 A 
ATOM     19  C   UNL     1      -0.220   0.320   0.942  0.00  0.00    +0.000 A 
ATOM     20  C   UNL     1      -1.233   2.475   0.520  0.00  0.00    +0.000 A 
ATOM     21  C   UNL     1       0.996   0.800   0.455  0.00  0.00    +0.000 A 
ATOM     22  C   UNL     1       1.095   2.115   0.002  0.00  0.00    +0.000 A 
ATOM     23  C   UNL     1      -0.018   2.958   0.033  0.00  0.00    +0.000 A 
ATOM     24  C   UNL     1       2.389   2.595  -0.505  0.00  0.00    +0.000 A 
ATOM     25  C   UNL     1       3.275   0.376  -0.038  0.00  0.00    +0.000 A 
ATOM     26  C   UNL     1       3.497   1.619  -0.494  0.00  0.00    +0.000 A 
ENDROOT
BRANCH  25  27
ATOM     27  C   UNL     1       4.347  -0.639   0.006  0.00  0.00    +0.000 A 
ATOM     28  C   UNL     1       5.676  -0.249   0.185  0.00  0.00    +0.000 A 
ATOM     29  C   UNL     1       4.036  -1.994  -0.134  0.00  0.00    +0.000 A 
ATOM     30  C   UNL     1       6.688  -1.208   0.226  0.00  0.00    +0.000 A 
ATOM     31  C   UNL     1       5.048  -2.953  -0.093  0.00  0.00    +0.000 A 
ATOM     32  C   UNL     1       6.374  -2.560   0.086  0.00  0.00    +0.000 A 
BRANCH  32  11
ATOM     11  O   UNL     1       7.362  -3.496   0.126  0.00  0.00    +0.000 OA
ATOM     39  H   UNL     1       8.215  -3.048   0.256  0.00  0.00    +0.000 HD
ENDBRANCH  32  11
ENDBRANCH  25  27
BRANCH  20   8
ATOM      8  O   UNL     1      -2.328   3.289   0.556  0.00  0.00    +0.000 OA
ATOM     37  H   UNL     1      -2.074   4.160   0.204  0.00  0.00    +0.000 HD
ENDBRANCH  20   8
BRANCH  23   9
ATOM      9  O   UNL     1       0.040   4.248  -0.402  0.00  0.00    +0.000 OA
ATOM     38  H   UNL     1       0.931   4.465  -0.718  0.00  0.00    +0.000 HD
ENDBRANCH  23   9
BRANCH  18   2
ATOM      2  O   UNL     1      -2.519   0.679   1.452  0.00  0.00    +0.000 OA
BRANCH   2  16
ATOM      1  O   UNL     1      -3.305  -0.105  -0.601  0.00  0.00    +0.000 OA
ATOM     12  C   UNL     1      -5.134  -1.904   0.692  0.00  0.00    +0.000 C 
ATOM     13  C   UNL     1      -5.218  -1.581  -0.800  0.00  0.00    +0.000 C 
ATOM     14  C   UNL     1      -4.392  -0.806   1.455  0.00  0.00    +0.000 C 
ATOM     15  C   UNL     1      -3.843  -1.195  -1.351  0.00  0.00    +0.000 C 
ATOM     16  C   UNL     1      -3.077  -0.441   0.766  0.00  0.00    +0.000 C 
BRANCH  12   3
ATOM      3  O   UNL     1      -6.466  -2.017   1.195  0.00  0.00    +0.000 OA
ATOM     33  H   UNL     1      -6.913  -2.711   0.681  0.00  0.00    +0.000 HD
ENDBRANCH  12   3
BRANCH  13   4
ATOM      4  O   UNL     1      -5.704  -2.721  -1.503  0.00  0.00    +0.000 OA
ATOM     34  H   UNL     1      -5.068  -3.446  -1.376  0.00  0.00    +0.000 HD
ENDBRANCH  13   4
BRANCH  14   5
ATOM      5  O   UNL     1      -4.094  -1.265   2.773  0.00  0.00    +0.000 OA
ATOM     35  H   UNL     1      -3.529  -2.052   2.699  0.00  0.00    +0.000 HD
ENDBRANCH  14   5
BRANCH  15  17
ATOM     17  C   UNL     1      -3.921  -0.755  -2.809  0.00  0.00    +0.000 C 
BRANCH  17   6
ATOM      6  O   UNL     1      -2.621  -0.405  -3.246  0.00  0.00    +0.000 OA
ATOM     36  H   UNL     1      -2.294   0.300  -2.661  0.00  0.00    +0.000 HD
ENDBRANCH  17   6
ENDBRANCH  15  17
ENDBRANCH   2  16
ENDBRANCH  18   2
TORSDOF 11
