MODEL 1
REMARK VINA RESULT:      -8.7      0.000      0.000
REMARK  6 active torsions:
REMARK  status: ('A' for Active; 'I' for Inactive)
REMARK    1  A    between atoms: O_2  and  C_12 
REMARK    2  A    between atoms: O_3  and  C_14 
REMARK    3  A    between atoms: O_5  and  C_16 
REMARK    4  A    between atoms: O_6  and  C_20 
REMARK    5  A    between atoms: O_7  and  C_22 
REMARK    6  A    between atoms: C_10  and  C_11 
ROOT
HETATM    1  O   UNK     0      73.677  36.326  32.722  0.00  0.00    -0.306 OA
HETATM    2  O   UNK     0      74.948  35.212  29.014  0.00  0.00    -0.284 OA
HETATM    3  C   UNK     0      73.796  36.784  30.342  0.00  0.00     0.084 A 
HETATM    4  C   UNK     0      73.389  37.108  31.635  0.00  0.00     0.096 A 
HETATM    5  C   UNK     0      74.415  35.168  32.528  0.00  0.00     0.123 A 
HETATM    6  C   UNK     0      74.860  34.739  31.333  0.00  0.00     0.152 A 
HETATM    7  C   UNK     0      74.568  35.551  30.127  0.00  0.00     0.223 A 
HETATM    8  C   UNK     0      73.472  37.621  29.271  0.00  0.00     0.085 A 
HETATM    9  C   UNK     0      72.653  38.272  31.864  0.00  0.00     0.075 A 
HETATM   10  C   UNK     0      72.329  39.109  30.797  0.00  0.00     0.071 A 
HETATM   11  C   UNK     0      72.737  38.783  29.503  0.00  0.00     0.074 A 
ENDROOT
BRANCH   5  12
HETATM   12  C   UNK     0      74.653  34.422  33.776  0.00  0.00     0.004 A 
HETATM   13  C   UNK     0      73.647  33.619  34.313  0.00  0.00     0.053 A 
HETATM   14  C   UNK     0      73.873  32.912  35.494  0.00  0.00     0.099 A 
HETATM   15  C   UNK     0      75.107  33.008  36.138  0.00  0.00     0.098 A 
HETATM   16  C   UNK     0      76.114  33.810  35.601  0.00  0.00     0.040 A 
HETATM   17  C   UNK     0      75.888  34.517  34.420  0.00  0.00     0.017 A 
BRANCH  14  18
HETATM   18  O   UNK     0      72.882  32.134  36.010  0.00  0.00    -0.358 OA
HETATM   19  H   UNK     0      72.633  31.450  35.366  0.00  0.00     0.217 HD
ENDBRANCH  14  18
BRANCH  15  20
HETATM   20  O   UNK     0      75.341  32.321  37.291  0.00  0.00    -0.358 OA
HETATM   21  H   UNK     0      76.293  32.168  37.394  0.00  0.00     0.217 HD
ENDBRANCH  15  20
ENDBRANCH   5  12
BRANCH   6  22
HETATM   22  O   UNK     0      75.564  33.566  31.169  0.00  0.00    -0.355 OA
HETATM   23  H   UNK     0      76.102  33.391  31.959  0.00  0.00     0.218 HD
ENDBRANCH   6  22
BRANCH   8  24
HETATM   24  O   UNK     0      73.845  37.350  27.989  0.00  0.00    -0.360 OA
HETATM   25  H   UNK     0      74.776  37.083  27.954  0.00  0.00     0.217 HD
ENDBRANCH   8  24
BRANCH  10  26
HETATM   26  O   UNK     0      71.611  40.245  31.019  0.00  0.00    -0.361 OA
HETATM   27  H   UNK     0      72.182  40.897  31.460  0.00  0.00     0.217 HD
ENDBRANCH  10  26
TORSDOF 6
ENDMDL
MODEL 2
REMARK VINA RESULT:      -8.6     23.015     24.871
REMARK  6 active torsions:
REMARK  status: ('A' for Active; 'I' for Inactive)
REMARK    1  A    between atoms: O_2  and  C_12 
REMARK    2  A    between atoms: O_3  and  C_14 
REMARK    3  A    between atoms: O_5  and  C_16 
REMARK    4  A    between atoms: O_6  and  C_20 
REMARK    5  A    between atoms: O_7  and  C_22 
REMARK    6  A    between atoms: C_10  and  C_11 
ROOT
HETATM    1  O   UNK     0      58.896  17.145  25.790  0.00  0.00    -0.306 OA
HETATM    2  O   UNK     0      60.317  16.528  29.559  0.00  0.00    -0.284 OA
HETATM    3  C   UNK     0      58.446  16.712  28.135  0.00  0.00     0.084 A 
HETATM    4  C   UNK     0      58.024  16.930  26.825  0.00  0.00     0.096 A 
HETATM    5  C   UNK     0      60.257  17.131  26.057  0.00  0.00     0.123 A 
HETATM    6  C   UNK     0      60.793  16.940  27.276  0.00  0.00     0.152 A 
HETATM    7  C   UNK     0      59.887  16.709  28.427  0.00  0.00     0.223 A 
HETATM    8  C   UNK     0      57.510  16.500  29.151  0.00  0.00     0.085 A 
HETATM    9  C   UNK     0      56.662  16.940  26.523  0.00  0.00     0.075 A 
HETATM   10  C   UNK     0      55.725  16.728  27.535  0.00  0.00     0.071 A 
HETATM   11  C   UNK     0      56.149  16.509  28.846  0.00  0.00     0.074 A 
ENDROOT
BRANCH   5  12
HETATM   12  C   UNK     0      61.080  17.374  24.859  0.00  0.00     0.004 A 
HETATM   13  C   UNK     0      61.261  18.674  24.388  0.00  0.00     0.053 A 
HETATM   14  C   UNK     0      62.041  18.903  23.255  0.00  0.00     0.099 A 
HETATM   15  C   UNK     0      62.641  17.832  22.592  0.00  0.00     0.098 A 
HETATM   16  C   UNK     0      62.461  16.531  23.064  0.00  0.00     0.040 A 
HETATM   17  C   UNK     0      61.680  16.302  24.197  0.00  0.00     0.017 A 
BRANCH  14  18
HETATM   18  O   UNK     0      62.210  20.177  22.803  0.00  0.00    -0.358 OA
HETATM   19  H   UNK     0      63.061  20.252  22.341  0.00  0.00     0.217 HD
ENDBRANCH  14  18
BRANCH  15  20
HETATM   20  O   UNK     0      63.407  18.043  21.486  0.00  0.00    -0.358 OA
HETATM   21  H   UNK     0      63.145  17.427  20.783  0.00  0.00     0.217 HD
ENDBRANCH  15  20
ENDBRANCH   5  12
BRANCH   6  22
HETATM   22  O   UNK     0      62.150  16.965  27.514  0.00  0.00    -0.355 OA
HETATM   23  H   UNK     0      62.369  17.710  28.096  0.00  0.00     0.218 HD
ENDBRANCH   6  22
BRANCH   8  24
HETATM   24  O   UNK     0      57.869  16.282  30.447  0.00  0.00    -0.360 OA
HETATM   25  H   UNK     0      58.831  16.350  30.549  0.00  0.00     0.217 HD
ENDBRANCH   8  24
BRANCH  10  26
HETATM   26  O   UNK     0      54.396  16.737  27.241  0.00  0.00    -0.361 OA
HETATM   27  H   UNK     0      54.286  16.692  26.275  0.00  0.00     0.217 HD
ENDBRANCH  10  26
TORSDOF 6
ENDMDL
MODEL 3
REMARK VINA RESULT:      -8.2      2.974      6.607
REMARK  6 active torsions:
REMARK  status: ('A' for Active; 'I' for Inactive)
REMARK    1  A    between atoms: O_2  and  C_12 
REMARK    2  A    between atoms: O_3  and  C_14 
REMARK    3  A    between atoms: O_5  and  C_16 
REMARK    4  A    between atoms: O_6  and  C_20 
REMARK    5  A    between atoms: O_7  and  C_22 
REMARK    6  A    between atoms: C_10  and  C_11 
ROOT
HETATM    1  O   UNK     0      72.653  36.564  31.869  0.00  0.00    -0.306 OA
HETATM    2  O   UNK     0      70.844  34.819  28.661  0.00  0.00    -0.284 OA
HETATM    3  C   UNK     0      71.355  34.725  30.962  0.00  0.00     0.084 A 
HETATM    4  C   UNK     0      71.994  35.372  32.018  0.00  0.00     0.096 A 
HETATM    5  C   UNK     0      72.673  37.158  30.616  0.00  0.00     0.123 A 
HETATM    6  C   UNK     0      72.103  36.634  29.515  0.00  0.00     0.152 A 
HETATM    7  C   UNK     0      71.383  35.343  29.627  0.00  0.00     0.223 A 
HETATM    8  C   UNK     0      70.700  33.510  31.173  0.00  0.00     0.085 A 
HETATM    9  C   UNK     0      71.984  34.805  33.293  0.00  0.00     0.075 A 
HETATM   10  C   UNK     0      71.330  33.591  33.507  0.00  0.00     0.071 A 
HETATM   11  C   UNK     0      70.689  32.946  32.449  0.00  0.00     0.074 A 
ENDROOT
BRANCH   5  12
HETATM   12  C   UNK     0      73.412  38.432  30.594  0.00  0.00     0.004 A 
HETATM   13  C   UNK     0      74.563  38.558  29.817  0.00  0.00     0.053 A 
HETATM   14  C   UNK     0      75.263  39.765  29.796  0.00  0.00     0.099 A 
HETATM   15  C   UNK     0      74.811  40.846  30.554  0.00  0.00     0.098 A 
HETATM   16  C   UNK     0      73.660  40.720  31.332  0.00  0.00     0.040 A 
HETATM   17  C   UNK     0      72.960  39.513  31.352  0.00  0.00     0.017 A 
BRANCH  14  18
HETATM   18  O   UNK     0      76.386  39.876  29.035  0.00  0.00    -0.358 OA
HETATM   19  H   UNK     0      76.141  40.007  28.105  0.00  0.00     0.217 HD
ENDBRANCH  14  18
BRANCH  15  20
HETATM   20  O   UNK     0      75.484  42.030  30.541  0.00  0.00    -0.358 OA
HETATM   21  H   UNK     0      75.078  42.631  29.897  0.00  0.00     0.217 HD
ENDBRANCH  15  20
ENDBRANCH   5  12
BRANCH   6  22
HETATM   22  O   UNK     0      72.169  37.234  28.276  0.00  0.00    -0.355 OA
HETATM   23  H   UNK     0      72.461  36.588  27.612  0.00  0.00     0.218 HD
ENDBRANCH   6  22
BRANCH   8  24
HETATM   24  O   UNK     0      70.060  32.837  30.176  0.00  0.00    -0.360 OA
HETATM   25  H   UNK     0      70.701  32.428  29.575  0.00  0.00     0.217 HD
ENDBRANCH   8  24
BRANCH  10  26
HETATM   26  O   UNK     0      71.318  33.037  34.751  0.00  0.00    -0.361 OA
HETATM   27  H   UNK     0      72.145  32.542  34.882  0.00  0.00     0.217 HD
ENDBRANCH  10  26
TORSDOF 6
ENDMDL
MODEL 4
REMARK VINA RESULT:      -8.0     23.300     24.774
REMARK  6 active torsions:
REMARK  status: ('A' for Active; 'I' for Inactive)
REMARK    1  A    between atoms: O_2  and  C_12 
REMARK    2  A    between atoms: O_3  and  C_14 
REMARK    3  A    between atoms: O_5  and  C_16 
REMARK    4  A    between atoms: O_6  and  C_20 
REMARK    5  A    between atoms: O_7  and  C_22 
REMARK    6  A    between atoms: C_10  and  C_11 
ROOT
HETATM    1  O   UNK     0      57.222  18.349  28.390  0.00  0.00    -0.306 OA
HETATM    2  O   UNK     0      60.268  19.226  25.829  0.00  0.00    -0.284 OA
HETATM    3  C   UNK     0      58.844  19.954  27.563  0.00  0.00     0.084 A 
HETATM    4  C   UNK     0      57.799  19.592  28.411  0.00  0.00     0.096 A 
HETATM    5  C   UNK     0      57.708  17.408  27.496  0.00  0.00     0.123 A 
HETATM    6  C   UNK     0      58.705  17.632  26.620  0.00  0.00     0.152 A 
HETATM    7  C   UNK     0      59.356  18.964  26.602  0.00  0.00     0.223 A 
HETATM    8  C   UNK     0      59.393  21.237  27.627  0.00  0.00     0.085 A 
HETATM    9  C   UNK     0      57.295  20.514  29.329  0.00  0.00     0.075 A 
HETATM   10  C   UNK     0      57.841  21.796  29.396  0.00  0.00     0.071 A 
HETATM   11  C   UNK     0      58.887  22.156  28.547  0.00  0.00     0.074 A 
ENDROOT
BRANCH   5  12
HETATM   12  C   UNK     0      57.002  16.118  27.578  0.00  0.00     0.004 A 
HETATM   13  C   UNK     0      57.433  15.142  28.476  0.00  0.00     0.053 A 
HETATM   14  C   UNK     0      56.764  13.920  28.554  0.00  0.00     0.099 A 
HETATM   15  C   UNK     0      55.663  13.675  27.733  0.00  0.00     0.098 A 
HETATM   16  C   UNK     0      55.230  14.652  26.836  0.00  0.00     0.040 A 
HETATM   17  C   UNK     0      55.900  15.873  26.758  0.00  0.00     0.017 A 
BRANCH  14  18
HETATM   18  O   UNK     0      57.196  12.973  29.432  0.00  0.00    -0.358 OA
HETATM   19  H   UNK     0      56.487  12.329  29.595  0.00  0.00     0.217 HD
ENDBRANCH  14  18
BRANCH  15  20
HETATM   20  O   UNK     0      54.999  12.487  27.801  0.00  0.00    -0.358 OA
HETATM   21  H   UNK     0      54.395  12.405  27.047  0.00  0.00     0.217 HD
ENDBRANCH  15  20
ENDBRANCH   5  12
BRANCH   6  22
HETATM   22  O   UNK     0      59.143  16.685  25.721  0.00  0.00    -0.355 OA
HETATM   23  H   UNK     0      59.232  15.825  26.164  0.00  0.00     0.218 HD
ENDBRANCH   6  22
BRANCH   8  24
HETATM   24  O   UNK     0      60.415  21.641  26.821  0.00  0.00    -0.360 OA
HETATM   25  H   UNK     0      60.918  22.355  27.242  0.00  0.00     0.217 HD
ENDBRANCH   8  24
BRANCH  10  26
HETATM   26  O   UNK     0      57.350  22.697  30.292  0.00  0.00    -0.361 OA
HETATM   27  H   UNK     0      57.088  22.224  31.101  0.00  0.00     0.217 HD
ENDBRANCH  10  26
TORSDOF 6
ENDMDL
MODEL 5
REMARK VINA RESULT:      -8.0      1.477      7.036
REMARK  6 active torsions:
REMARK  status: ('A' for Active; 'I' for Inactive)
REMARK    1  A    between atoms: O_2  and  C_12 
REMARK    2  A    between atoms: O_3  and  C_14 
REMARK    3  A    between atoms: O_5  and  C_16 
REMARK    4  A    between atoms: O_6  and  C_20 
REMARK    5  A    between atoms: O_7  and  C_22 
REMARK    6  A    between atoms: C_10  and  C_11 
ROOT
HETATM    1  O   UNK     0      74.442  35.588  32.790  0.00  0.00    -0.306 OA
HETATM    2  O   UNK     0      71.283  33.439  34.209  0.00  0.00    -0.284 OA
HETATM    3  C   UNK     0      73.588  33.925  34.338  0.00  0.00     0.084 A 
HETATM    4  C   UNK     0      74.626  34.689  33.808  0.00  0.00     0.096 A 
HETATM    5  C   UNK     0      73.165  35.754  32.276  0.00  0.00     0.123 A 
HETATM    6  C   UNK     0      72.081  35.073  32.692  0.00  0.00     0.152 A 
HETATM    7  C   UNK     0      72.233  34.086  33.788  0.00  0.00     0.223 A 
HETATM    8  C   UNK     0      73.835  33.023  35.375  0.00  0.00     0.085 A 
HETATM    9  C   UNK     0      75.920  34.553  34.312  0.00  0.00     0.075 A 
HETATM   10  C   UNK     0      76.170  33.653  35.348  0.00  0.00     0.071 A 
HETATM   11  C   UNK     0      75.130  32.889  35.878  0.00  0.00     0.074 A 
ENDROOT
BRANCH   5  12
HETATM   12  C   UNK     0      73.107  36.748  31.190  0.00  0.00     0.004 A 
HETATM   13  C   UNK     0      72.501  37.985  31.408  0.00  0.00     0.053 A 
HETATM   14  C   UNK     0      72.447  38.926  30.380  0.00  0.00     0.099 A 
HETATM   15  C   UNK     0      72.998  38.629  29.133  0.00  0.00     0.098 A 
HETATM   16  C   UNK     0      73.604  37.392  28.915  0.00  0.00     0.040 A 
HETATM   17  C   UNK     0      73.659  36.451  29.943  0.00  0.00     0.017 A 
BRANCH  14  18
HETATM   18  O   UNK     0      71.851  40.130  30.603  0.00  0.00    -0.358 OA
HETATM   19  H   UNK     0      72.404  40.665  31.196  0.00  0.00     0.217 HD
ENDBRANCH  14  18
BRANCH  15  20
HETATM   20  O   UNK     0      72.952  39.541  28.121  0.00  0.00    -0.358 OA
HETATM   21  H   UNK     0      72.868  39.083  27.271  0.00  0.00     0.217 HD
ENDBRANCH  15  20
ENDBRANCH   5  12
BRANCH   6  22
HETATM   22  O   UNK     0      70.831  35.237  32.137  0.00  0.00    -0.355 OA
HETATM   23  H   UNK     0      70.906  35.325  31.173  0.00  0.00     0.218 HD
ENDBRANCH   6  22
BRANCH   8  24
HETATM   24  O   UNK     0      72.856  32.253  35.929  0.00  0.00    -0.360 OA
HETATM   25  H   UNK     0      73.155  31.335  36.017  0.00  0.00     0.217 HD
ENDBRANCH   8  24
BRANCH  10  26
HETATM   26  O   UNK     0      77.433  33.519  35.840  0.00  0.00    -0.361 OA
HETATM   27  H   UNK     0      77.382  33.166  36.745  0.00  0.00     0.217 HD
ENDBRANCH  10  26
TORSDOF 6
ENDMDL
MODEL 6
REMARK VINA RESULT:      -7.7     17.724     20.333
REMARK  6 active torsions:
REMARK  status: ('A' for Active; 'I' for Inactive)
REMARK    1  A    between atoms: O_2  and  C_12 
REMARK    2  A    between atoms: O_3  and  C_14 
REMARK    3  A    between atoms: O_5  and  C_16 
REMARK    4  A    between atoms: O_6  and  C_20 
REMARK    5  A    between atoms: O_7  and  C_22 
REMARK    6  A    between atoms: C_10  and  C_11 
ROOT
HETATM    1  O   UNK     0      82.596  26.019  19.201  0.00  0.00    -0.306 OA
HETATM    2  O   UNK     0      85.175  23.270  17.652  0.00  0.00    -0.284 OA
HETATM    3  C   UNK     0      84.448  24.487  19.537  0.00  0.00     0.084 A 
HETATM    4  C   UNK     0      83.539  25.434  20.005  0.00  0.00     0.096 A 
HETATM    5  C   UNK     0      82.536  25.642  17.869  0.00  0.00     0.123 A 
HETATM    6  C   UNK     0      83.359  24.747  17.291  0.00  0.00     0.152 A 
HETATM    7  C   UNK     0      84.399  24.093  18.121  0.00  0.00     0.223 A 
HETATM    8  C   UNK     0      85.390  23.925  20.403  0.00  0.00     0.085 A 
HETATM    9  C   UNK     0      83.568  25.826  21.344  0.00  0.00     0.075 A 
HETATM   10  C   UNK     0      84.506  25.267  22.211  0.00  0.00     0.071 A 
HETATM   11  C   UNK     0      85.415  24.319  21.741  0.00  0.00     0.074 A 
ENDROOT
BRANCH   5  12
HETATM   12  C   UNK     0      81.480  26.344  17.119  0.00  0.00     0.004 A 
HETATM   13  C   UNK     0      81.795  27.469  16.357  0.00  0.00     0.053 A 
HETATM   14  C   UNK     0      80.795  28.134  15.647  0.00  0.00     0.099 A 
HETATM   15  C   UNK     0      79.479  27.672  15.699  0.00  0.00     0.098 A 
HETATM   16  C   UNK     0      79.164  26.547  16.460  0.00  0.00     0.040 A 
HETATM   17  C   UNK     0      80.164  25.882  17.170  0.00  0.00     0.017 A 
BRANCH  14  18
HETATM   18  O   UNK     0      81.113  29.233  14.909  0.00  0.00    -0.358 OA
HETATM   19  H   UNK     0      81.787  29.001  14.249  0.00  0.00     0.217 HD
ENDBRANCH  14  18
BRANCH  15  20
HETATM   20  O   UNK     0      78.494  28.312  15.008  0.00  0.00    -0.358 OA
HETATM   21  H   UNK     0      77.815  28.630  15.624  0.00  0.00     0.217 HD
ENDBRANCH  15  20
ENDBRANCH   5  12
BRANCH   6  22
HETATM   22  O   UNK     0      83.295  24.419  15.955  0.00  0.00    -0.355 OA
HETATM   23  H   UNK     0      83.866  25.012  15.441  0.00  0.00     0.218 HD
ENDBRANCH   6  22
BRANCH   8  24
HETATM   24  O   UNK     0      86.300  22.997  19.997  0.00  0.00    -0.360 OA
HETATM   25  H   UNK     0      86.595  22.459  20.747  0.00  0.00     0.217 HD
ENDBRANCH   8  24
BRANCH  10  26
HETATM   26  O   UNK     0      84.534  25.649  23.518  0.00  0.00    -0.361 OA
HETATM   27  H   UNK     0      84.725  24.870  24.069  0.00  0.00     0.217 HD
ENDBRANCH  10  26
TORSDOF 6
ENDMDL
MODEL 7
REMARK VINA RESULT:      -7.7     15.822     18.727
REMARK  6 active torsions:
REMARK  status: ('A' for Active; 'I' for Inactive)
REMARK    1  A    between atoms: O_2  and  C_12 
REMARK    2  A    between atoms: O_3  and  C_14 
REMARK    3  A    between atoms: O_5  and  C_16 
REMARK    4  A    between atoms: O_6  and  C_20 
REMARK    5  A    between atoms: O_7  and  C_22 
REMARK    6  A    between atoms: C_10  and  C_11 
ROOT
HETATM    1  O   UNK     0      71.713  34.730  15.407  0.00  0.00    -0.306 OA
HETATM    2  O   UNK     0      68.892  35.162  12.499  0.00  0.00    -0.284 OA
HETATM    3  C   UNK     0      69.441  35.318  14.787  0.00  0.00     0.084 A 
HETATM    4  C   UNK     0      70.450  35.150  15.734  0.00  0.00     0.096 A 
HETATM    5  C   UNK     0      72.002  34.475  14.076  0.00  0.00     0.123 A 
HETATM    6  C   UNK     0      71.118  34.591  13.068  0.00  0.00     0.152 A 
HETATM    7  C   UNK     0      69.738  35.037  13.374  0.00  0.00     0.223 A 
HETATM    8  C   UNK     0      68.171  35.748  15.179  0.00  0.00     0.085 A 
HETATM    9  C   UNK     0      70.192  35.408  17.081  0.00  0.00     0.075 A 
HETATM   10  C   UNK     0      68.924  35.837  17.475  0.00  0.00     0.071 A 
HETATM   11  C   UNK     0      67.916  36.006  16.525  0.00  0.00     0.074 A 
ENDROOT
BRANCH   5  12
HETATM   12  C   UNK     0      73.392  34.033  13.864  0.00  0.00     0.004 A 
HETATM   13  C   UNK     0      74.312  34.889  13.258  0.00  0.00     0.053 A 
HETATM   14  C   UNK     0      75.627  34.470  13.057  0.00  0.00     0.099 A 
HETATM   15  C   UNK     0      76.022  33.195  13.463  0.00  0.00     0.098 A 
HETATM   16  C   UNK     0      75.103  32.339  14.070  0.00  0.00     0.040 A 
HETATM   17  C   UNK     0      73.787  32.758  14.270  0.00  0.00     0.017 A 
BRANCH  14  18
HETATM   18  O   UNK     0      76.516  35.313  12.463  0.00  0.00    -0.358 OA
HETATM   19  H   UNK     0      76.041  35.955  11.911  0.00  0.00     0.217 HD
ENDBRANCH  14  18
BRANCH  15  20
HETATM   20  O   UNK     0      77.305  32.775  13.275  0.00  0.00    -0.358 OA
HETATM   21  H   UNK     0      77.795  32.837  14.109  0.00  0.00     0.217 HD
ENDBRANCH  15  20
ENDBRANCH   5  12
BRANCH   6  22
HETATM   22  O   UNK     0      71.429  34.298  11.757  0.00  0.00    -0.355 OA
HETATM   23  H   UNK     0      72.355  34.529  11.578  0.00  0.00     0.218 HD
ENDBRANCH   6  22
BRANCH   8  24
HETATM   24  O   UNK     0      67.151  35.928  14.293  0.00  0.00    -0.360 OA
HETATM   25  H   UNK     0      67.123  36.848  13.989  0.00  0.00     0.217 HD
ENDBRANCH   8  24
BRANCH  10  26
HETATM   26  O   UNK     0      68.672  36.090  18.789  0.00  0.00    -0.361 OA
HETATM   27  H   UNK     0      69.448  36.527  19.180  0.00  0.00     0.217 HD
ENDBRANCH  10  26
TORSDOF 6
ENDMDL
MODEL 8
REMARK VINA RESULT:      -7.6     17.984     18.822
REMARK  6 active torsions:
REMARK  status: ('A' for Active; 'I' for Inactive)
REMARK    1  A    between atoms: O_2  and  C_12 
REMARK    2  A    between atoms: O_3  and  C_14 
REMARK    3  A    between atoms: O_5  and  C_16 
REMARK    4  A    between atoms: O_6  and  C_20 
REMARK    5  A    between atoms: O_7  and  C_22 
REMARK    6  A    between atoms: C_10  and  C_11 
ROOT
HETATM    1  O   UNK     0      81.077  25.006  19.082  0.00  0.00    -0.306 OA
HETATM    2  O   UNK     0      81.346  27.755  16.087  0.00  0.00    -0.284 OA
HETATM    3  C   UNK     0      79.985  26.285  17.332  0.00  0.00     0.084 A 
HETATM    4  C   UNK     0      79.960  25.352  18.367  0.00  0.00     0.096 A 
HETATM    5  C   UNK     0      82.279  25.621  18.771  0.00  0.00     0.123 A 
HETATM    6  C   UNK     0      82.440  26.530  17.792  0.00  0.00     0.152 A 
HETATM    7  C   UNK     0      81.261  26.932  16.988  0.00  0.00     0.223 A 
HETATM    8  C   UNK     0      78.815  26.598  16.636  0.00  0.00     0.085 A 
HETATM    9  C   UNK     0      78.763  24.723  18.710  0.00  0.00     0.075 A 
HETATM   10  C   UNK     0      77.593  25.033  18.017  0.00  0.00     0.071 A 
HETATM   11  C   UNK     0      77.619  25.969  16.982  0.00  0.00     0.074 A 
ENDROOT
BRANCH   5  12
HETATM   12  C   UNK     0      83.396  25.159  19.614  0.00  0.00     0.004 A 
HETATM   13  C   UNK     0      83.565  25.681  20.897  0.00  0.00     0.053 A 
HETATM   14  C   UNK     0      84.622  25.244  21.695  0.00  0.00     0.099 A 
HETATM   15  C   UNK     0      85.511  24.284  21.209  0.00  0.00     0.098 A 
HETATM   16  C   UNK     0      85.343  23.762  19.927  0.00  0.00     0.040 A 
HETATM   17  C   UNK     0      84.285  24.199  19.129  0.00  0.00     0.017 A 
BRANCH  14  18
HETATM   18  O   UNK     0      84.778  25.761  22.944  0.00  0.00    -0.358 OA
HETATM   19  H   UNK     0      85.707  26.007  23.085  0.00  0.00     0.217 HD
ENDBRANCH  14  18
BRANCH  15  20
HETATM   20  O   UNK     0      86.547  23.848  21.980  0.00  0.00    -0.358 OA
HETATM   21  H   UNK     0      86.981  24.604  22.404  0.00  0.00     0.217 HD
ENDBRANCH  15  20
ENDBRANCH   5  12
BRANCH   6  22
HETATM   22  O   UNK     0      83.657  27.099  17.486  0.00  0.00    -0.355 OA
HETATM   23  H   UNK     0      83.982  27.613  18.245  0.00  0.00     0.218 HD
ENDBRANCH   6  22
BRANCH   8  24
HETATM   24  O   UNK     0      78.785  27.503  15.618  0.00  0.00    -0.360 OA
HETATM   25  H   UNK     0      79.685  27.768  15.372  0.00  0.00     0.217 HD
ENDBRANCH   8  24
BRANCH  10  26
HETATM   26  O   UNK     0      76.423  24.421  18.352  0.00  0.00    -0.361 OA
HETATM   27  H   UNK     0      76.602  23.483  18.540  0.00  0.00     0.217 HD
ENDBRANCH  10  26
TORSDOF 6
ENDMDL
MODEL 9
REMARK VINA RESULT:      -7.6     32.431     34.421
REMARK  6 active torsions:
REMARK  status: ('A' for Active; 'I' for Inactive)
REMARK    1  A    between atoms: O_2  and  C_12 
REMARK    2  A    between atoms: O_3  and  C_14 
REMARK    3  A    between atoms: O_5  and  C_16 
REMARK    4  A    between atoms: O_6  and  C_20 
REMARK    5  A    between atoms: O_7  and  C_22 
REMARK    6  A    between atoms: C_10  and  C_11 
ROOT
HETATM    1  O   UNK     0      72.619   9.194   9.843  0.00  0.00    -0.306 OA
HETATM    2  O   UNK     0      70.188   8.228  12.967  0.00  0.00    -0.284 OA
HETATM    3  C   UNK     0      70.959   7.705  10.800  0.00  0.00     0.084 A 
HETATM    4  C   UNK     0      71.811   8.090   9.767  0.00  0.00     0.096 A 
HETATM    5  C   UNK     0      72.596   9.953  11.003  0.00  0.00     0.123 A 
HETATM    6  C   UNK     0      71.815   9.695  12.067  0.00  0.00     0.152 A 
HETATM    7  C   UNK     0      70.920   8.513  12.029  0.00  0.00     0.223 A 
HETATM    8  C   UNK     0      70.156   6.569  10.666  0.00  0.00     0.085 A 
HETATM    9  C   UNK     0      71.864   7.341   8.591  0.00  0.00     0.075 A 
HETATM   10  C   UNK     0      71.064   6.206   8.454  0.00  0.00     0.071 A 
HETATM   11  C   UNK     0      70.212   5.822   9.490  0.00  0.00     0.074 A 
ENDROOT
BRANCH   5  12
HETATM   12  C   UNK     0      73.510  11.108  10.953  0.00  0.00     0.004 A 
HETATM   13  C   UNK     0      74.585  11.186  11.838  0.00  0.00     0.053 A 
HETATM   14  C   UNK     0      75.450  12.280  11.790  0.00  0.00     0.099 A 
HETATM   15  C   UNK     0      75.239  13.295  10.856  0.00  0.00     0.098 A 
HETATM   16  C   UNK     0      74.165  13.216   9.970  0.00  0.00     0.040 A 
HETATM   17  C   UNK     0      73.300  12.123  10.018  0.00  0.00     0.017 A 
BRANCH  14  18
HETATM   18  O   UNK     0      76.494  12.348  12.661  0.00  0.00    -0.358 OA
HETATM   19  H   UNK     0      76.784  11.451  12.897  0.00  0.00     0.217 HD
ENDBRANCH  14  18
BRANCH  15  20
HETATM   20  O   UNK     0      76.078  14.367  10.798  0.00  0.00    -0.358 OA
HETATM   21  H   UNK     0      75.580  15.160  10.545  0.00  0.00     0.217 HD
ENDBRANCH  15  20
ENDBRANCH   5  12
BRANCH   6  22
HETATM   22  O   UNK     0      71.791  10.489  13.194  0.00  0.00    -0.355 OA
HETATM   23  H   UNK     0      71.548   9.956  13.968  0.00  0.00     0.218 HD
ENDBRANCH   6  22
BRANCH   8  24
HETATM   24  O   UNK     0      69.307   6.150  11.646  0.00  0.00    -0.360 OA
HETATM   25  H   UNK     0      69.342   5.186  11.737  0.00  0.00     0.217 HD
ENDBRANCH   8  24
BRANCH  10  26
HETATM   26  O   UNK     0      71.115   5.474   7.307  0.00  0.00    -0.361 OA
HETATM   27  H   UNK     0      70.818   6.029   6.566  0.00  0.00     0.217 HD
ENDBRANCH  10  26
TORSDOF 6
ENDMDL
