MODEL 1
REMARK VINA RESULT:      -9.3      0.000      0.000
REMARK  13 active torsions:
REMARK  status: ('A' for Active; 'I' for Inactive)
REMARK    1  A    between atoms: C_2  and  O_12 
REMARK    2  A    between atoms: C_3  and  O_10 
REMARK    3  A    between atoms: C_4  and  O_8 
REMARK    4  A    between atoms: C_5  and  O_6 
REMARK    5  A    between atoms: C_22  and  C_23 
REMARK    6  A    between atoms: O_12  and  C_13 
REMARK    7  A    between atoms: C_13  and  C_14 
REMARK    8  A    between atoms: C_15  and  C_16 
REMARK    9  A    between atoms: C_23  and  O_24 
REMARK   10  A    between atoms: O_24  and  C_25 
REMARK   11  A    between atoms: C_26  and  O_34 
REMARK   12  A    between atoms: C_27  and  O_32 
REMARK   13  A    between atoms: C_28  and  O_30 
ROOT
ATOM      1  O   LIG     1     -26.749   5.367   5.196  0.00  0.00    -0.341 OA
ATOM      2  C   LIG     1     -26.669   6.749   5.539  0.00  0.00     0.282 C 
ATOM      3  C   LIG     1     -27.026   6.956   7.011  0.00  0.00     0.201 C 
ATOM      4  C   LIG     1     -26.176   6.071   7.921  0.00  0.00     0.179 C 
ATOM      5  C   LIG     1     -26.159   4.625   7.427  0.00  0.00     0.177 C 
ATOM      6  C   LIG     1     -25.826   4.565   5.934  0.00  0.00     0.178 C 
ENDROOT
BRANCH   6   7
ATOM      7  C   LIG     1     -25.917   3.141   5.391  0.00  0.00     0.197 C 
BRANCH   7   8
ATOM      8  O   LIG     1     -26.549   2.328   6.363  0.00  0.00    -0.346 OA
BRANCH   8   9
ATOM      9  C   LIG     1     -27.767   1.775   5.876  0.00  0.00     0.281 C 
ATOM     10  O   LIG     1     -28.913   2.464   6.388  0.00  0.00    -0.346 OA
ATOM     11  C   LIG     1     -29.098   2.308   7.793  0.00  0.00     0.197 C 
ATOM     12  C   LIG     1     -29.293   0.840   8.149  0.00  0.00     0.171 C 
ATOM     13  C   LIG     1     -28.098   0.008   7.679  0.00  0.00     0.178 C 
ATOM     14  C   LIG     1     -27.823   0.272   6.195  0.00  0.00     0.201 C 
BRANCH  12  15
ATOM     15  O   LIG     1     -29.464   0.688   9.551  0.00  0.00    -0.387 OA
ATOM     16  H   LIG     1     -30.334   0.277   9.698  0.00  0.00     0.210 HD
ENDBRANCH  12  15
BRANCH  13  17
ATOM     17  O   LIG     1     -26.949   0.357   8.448  0.00  0.00    -0.386 OA
ATOM     18  H   LIG     1     -27.222   1.033   9.092  0.00  0.00     0.210 HD
ENDBRANCH  13  17
BRANCH  14  19
ATOM     19  O   LIG     1     -28.863  -0.306   5.411  0.00  0.00    -0.384 OA
ATOM     20  H   LIG     1     -28.458  -0.799   4.678  0.00  0.00     0.210 HD
ENDBRANCH  14  19
ENDBRANCH   8   9
ENDBRANCH   7   8
ENDBRANCH   6   7
BRANCH   5  21
ATOM     21  O   LIG     1     -25.182   3.888   8.157  0.00  0.00    -0.386 OA
ATOM     22  H   LIG     1     -25.634   3.437   8.892  0.00  0.00     0.210 HD
ENDBRANCH   5  21
BRANCH   2  23
ATOM     23  O   LIG     1     -27.594   7.496   4.752  0.00  0.00    -0.345 OA
BRANCH  23  24
ATOM     24  C   LIG     1     -28.934   7.138   5.051  0.00  0.00     0.190 C 
BRANCH  24  25
ATOM     25  C   LIG     1     -29.836   8.256   4.633  0.00  0.00     0.001 C 
ATOM     26  C   LIG     1     -30.714   8.156   3.624  0.00  0.00     0.006 C 
BRANCH  26  27
ATOM     27  C   LIG     1     -31.631   9.223   3.187  0.00  0.00    -0.025 A 
ATOM     28  C   LIG     1     -31.347   9.931   2.030  0.00  0.00     0.008 A 
ATOM     29  C   LIG     1     -32.215  10.941   1.618  0.00  0.00     0.001 A 
ATOM     30  C   LIG     1     -33.355  11.232   2.367  0.00  0.00     0.000 A 
ATOM     31  C   LIG     1     -33.628  10.511   3.529  0.00  0.00     0.001 A 
ATOM     32  C   LIG     1     -32.759   9.500   3.942  0.00  0.00     0.008 A 
ENDBRANCH  26  27
ENDBRANCH  24  25
ENDBRANCH  23  24
ENDBRANCH   2  23
BRANCH   4  33
ATOM     33  O   LIG     1     -26.723   6.080   9.241  0.00  0.00    -0.386 OA
ATOM     34  H   LIG     1     -26.363   6.858   9.699  0.00  0.00     0.210 HD
ENDBRANCH   4  33
BRANCH   3  35
ATOM     35  O   LIG     1     -26.799   8.327   7.337  0.00  0.00    -0.384 OA
ATOM     36  H   LIG     1     -25.844   8.495   7.287  0.00  0.00     0.210 HD
ENDBRANCH   3  35
TORSDOF 13
ENDMDL
MODEL 2
REMARK VINA RESULT:      -8.6      2.185      2.672
REMARK  13 active torsions:
REMARK  status: ('A' for Active; 'I' for Inactive)
REMARK    1  A    between atoms: C_2  and  O_12 
REMARK    2  A    between atoms: C_3  and  O_10 
REMARK    3  A    between atoms: C_4  and  O_8 
REMARK    4  A    between atoms: C_5  and  O_6 
REMARK    5  A    between atoms: C_22  and  C_23 
REMARK    6  A    between atoms: O_12  and  C_13 
REMARK    7  A    between atoms: C_13  and  C_14 
REMARK    8  A    between atoms: C_15  and  C_16 
REMARK    9  A    between atoms: C_23  and  O_24 
REMARK   10  A    between atoms: O_24  and  C_25 
REMARK   11  A    between atoms: C_26  and  O_34 
REMARK   12  A    between atoms: C_27  and  O_32 
REMARK   13  A    between atoms: C_28  and  O_30 
ROOT
ATOM      1  O   LIG     1     -26.720   5.361   5.036  0.00  0.00    -0.341 OA
ATOM      2  C   LIG     1     -26.592   6.760   5.281  0.00  0.00     0.282 C 
ATOM      3  C   LIG     1     -26.970   7.087   6.726  0.00  0.00     0.201 C 
ATOM      4  C   LIG     1     -26.174   6.238   7.716  0.00  0.00     0.179 C 
ATOM      5  C   LIG     1     -26.204   4.760   7.327  0.00  0.00     0.177 C 
ATOM      6  C   LIG     1     -25.844   4.579   5.850  0.00  0.00     0.178 C 
ENDROOT
BRANCH   6   7
ATOM      7  C   LIG     1     -25.980   3.125   5.409  0.00  0.00     0.197 C 
BRANCH   7   8
ATOM      8  O   LIG     1     -26.667   2.410   6.421  0.00  0.00    -0.346 OA
BRANCH   8   9
ATOM      9  C   LIG     1     -27.902   1.883   5.949  0.00  0.00     0.281 C 
ATOM     10  O   LIG     1     -29.027   2.566   6.511  0.00  0.00    -0.346 OA
ATOM     11  C   LIG     1     -29.178   2.368   7.915  0.00  0.00     0.197 C 
ATOM     12  C   LIG     1     -29.378   0.892   8.230  0.00  0.00     0.171 C 
ATOM     13  C   LIG     1     -28.204   0.064   7.704  0.00  0.00     0.178 C 
ATOM     14  C   LIG     1     -27.964   0.372   6.222  0.00  0.00     0.201 C 
BRANCH  12  15
ATOM     15  O   LIG     1     -29.516   0.698   9.631  0.00  0.00    -0.387 OA
ATOM     16  H   LIG     1     -30.136   1.370   9.961  0.00  0.00     0.210 HD
ENDBRANCH  12  15
BRANCH  13  17
ATOM     17  O   LIG     1     -27.032   0.379   8.454  0.00  0.00    -0.386 OA
ATOM     18  H   LIG     1     -26.398   0.795   7.845  0.00  0.00     0.210 HD
ENDBRANCH  13  17
BRANCH  14  19
ATOM     19  O   LIG     1     -29.029  -0.173   5.448  0.00  0.00    -0.384 OA
ATOM     20  H   LIG     1     -29.024   0.252   4.574  0.00  0.00     0.210 HD
ENDBRANCH  14  19
ENDBRANCH   8   9
ENDBRANCH   7   8
ENDBRANCH   6   7
BRANCH   5  21
ATOM     21  O   LIG     1     -25.271   4.041   8.131  0.00  0.00    -0.386 OA
ATOM     22  H   LIG     1     -24.659   4.685   8.528  0.00  0.00     0.210 HD
ENDBRANCH   5  21
BRANCH   2  23
ATOM     23  O   LIG     1     -27.471   7.482   4.421  0.00  0.00    -0.345 OA
BRANCH  23  24
ATOM     24  C   LIG     1     -28.332   6.608   3.709  0.00  0.00     0.190 C 
BRANCH  24  25
ATOM     25  C   LIG     1     -28.413   7.064   2.288  0.00  0.00     0.001 C 
ATOM     26  C   LIG     1     -29.444   6.774   1.479  0.00  0.00     0.006 C 
BRANCH  26  27
ATOM     27  C   LIG     1     -29.574   7.213   0.079  0.00  0.00    -0.025 A 
ATOM     28  C   LIG     1     -28.571   6.905  -0.826  0.00  0.00     0.008 A 
ATOM     29  C   LIG     1     -28.695   7.321  -2.151  0.00  0.00     0.001 A 
ATOM     30  C   LIG     1     -29.819   8.041  -2.555  0.00  0.00     0.000 A 
ATOM     31  C   LIG     1     -30.820   8.345  -1.633  0.00  0.00     0.001 A 
ATOM     32  C   LIG     1     -30.697   7.928  -0.307  0.00  0.00     0.008 A 
ENDBRANCH  26  27
ENDBRANCH  24  25
ENDBRANCH  23  24
ENDBRANCH   2  23
BRANCH   4  33
ATOM     33  O   LIG     1     -26.746   6.363   9.019  0.00  0.00    -0.386 OA
ATOM     34  H   LIG     1     -26.411   7.190   9.406  0.00  0.00     0.210 HD
ENDBRANCH   4  33
BRANCH   3  35
ATOM     35  O   LIG     1     -26.696   8.468   6.958  0.00  0.00    -0.384 OA
ATOM     36  H   LIG     1     -27.260   8.769   7.690  0.00  0.00     0.210 HD
ENDBRANCH   3  35
TORSDOF 13
ENDMDL
MODEL 3
REMARK VINA RESULT:      -8.2      2.342      4.206
REMARK  13 active torsions:
REMARK  status: ('A' for Active; 'I' for Inactive)
REMARK    1  A    between atoms: C_2  and  O_12 
REMARK    2  A    between atoms: C_3  and  O_10 
REMARK    3  A    between atoms: C_4  and  O_8 
REMARK    4  A    between atoms: C_5  and  O_6 
REMARK    5  A    between atoms: C_22  and  C_23 
REMARK    6  A    between atoms: O_12  and  C_13 
REMARK    7  A    between atoms: C_13  and  C_14 
REMARK    8  A    between atoms: C_15  and  C_16 
REMARK    9  A    between atoms: C_23  and  O_24 
REMARK   10  A    between atoms: O_24  and  C_25 
REMARK   11  A    between atoms: C_26  and  O_34 
REMARK   12  A    between atoms: C_27  and  O_32 
REMARK   13  A    between atoms: C_28  and  O_30 
ROOT
ATOM      1  O   LIG     1     -29.283   8.064   4.842  0.00  0.00    -0.341 OA
ATOM      2  C   LIG     1     -29.833   8.780   3.739  0.00  0.00     0.282 C 
ATOM      3  C   LIG     1     -28.719   9.380   2.881  0.00  0.00     0.201 C 
ATOM      4  C   LIG     1     -27.711   8.315   2.452  0.00  0.00     0.179 C 
ATOM      5  C   LIG     1     -27.265   7.463   3.640  0.00  0.00     0.177 C 
ATOM      6  C   LIG     1     -28.475   6.960   4.431  0.00  0.00     0.178 C 
ENDROOT
BRANCH   6   7
ATOM      7  C   LIG     1     -28.053   6.205   5.688  0.00  0.00     0.197 C 
BRANCH   7   8
ATOM      8  O   LIG     1     -28.851   5.040   5.804  0.00  0.00    -0.346 OA
BRANCH   8   9
ATOM      9  C   LIG     1     -28.425   4.018   4.909  0.00  0.00     0.281 C 
ATOM     10  O   LIG     1     -29.526   3.254   4.404  0.00  0.00    -0.346 OA
ATOM     11  C   LIG     1     -30.189   2.474   5.396  0.00  0.00     0.197 C 
ATOM     12  C   LIG     1     -29.228   1.470   6.020  0.00  0.00     0.171 C 
ATOM     13  C   LIG     1     -28.022   2.186   6.631  0.00  0.00     0.178 C 
ATOM     14  C   LIG     1     -27.384   3.121   5.597  0.00  0.00     0.201 C 
BRANCH  12  15
ATOM     15  O   LIG     1     -29.889   0.704   7.017  0.00  0.00    -0.387 OA
ATOM     16  H   LIG     1     -30.196   1.319   7.705  0.00  0.00     0.210 HD
ENDBRANCH  12  15
BRANCH  13  17
ATOM     17  O   LIG     1     -28.447   2.944   7.762  0.00  0.00    -0.386 OA
ATOM     18  H   LIG     1     -29.359   3.237   7.593  0.00  0.00     0.210 HD
ENDBRANCH  13  17
BRANCH  14  19
ATOM     19  O   LIG     1     -26.739   2.344   4.592  0.00  0.00    -0.384 OA
ATOM     20  H   LIG     1     -27.299   2.341   3.798  0.00  0.00     0.210 HD
ENDBRANCH  14  19
ENDBRANCH   8   9
ENDBRANCH   7   8
ENDBRANCH   6   7
BRANCH   5  21
ATOM     21  O   LIG     1     -26.514   6.349   3.166  0.00  0.00    -0.386 OA
ATOM     22  H   LIG     1     -26.299   6.507   2.231  0.00  0.00     0.210 HD
ENDBRANCH   5  21
BRANCH   2  23
ATOM     23  O   LIG     1     -30.647   9.849   4.215  0.00  0.00    -0.345 OA
BRANCH  23  24
ATOM     24  C   LIG     1     -32.025   9.578   4.017  0.00  0.00     0.190 C 
BRANCH  24  25
ATOM     25  C   LIG     1     -32.386   9.921   2.607  0.00  0.00     0.001 C 
ATOM     26  C   LIG     1     -32.519  11.181   2.166  0.00  0.00     0.006 C 
BRANCH  26  27
ATOM     27  C   LIG     1     -32.858  11.567   0.785  0.00  0.00    -0.025 A 
ATOM     28  C   LIG     1     -34.146  11.986   0.494  0.00  0.00     0.008 A 
ATOM     29  C   LIG     1     -34.466  12.351  -0.813  0.00  0.00     0.001 A 
ATOM     30  C   LIG     1     -33.494  12.291  -1.813  0.00  0.00     0.000 A 
ATOM     31  C   LIG     1     -32.202  11.867  -1.505  0.00  0.00     0.001 A 
ATOM     32  C   LIG     1     -31.882  11.502  -0.196  0.00  0.00     0.008 A 
ENDBRANCH  26  27
ENDBRANCH  24  25
ENDBRANCH  23  24
ENDBRANCH   2  23
BRANCH   4  33
ATOM     33  O   LIG     1     -26.554   8.948   1.903  0.00  0.00    -0.386 OA
ATOM     34  H   LIG     1     -26.861   9.687   1.351  0.00  0.00     0.210 HD
ENDBRANCH   4  33
BRANCH   3  35
ATOM     35  O   LIG     1     -29.313   9.965   1.722  0.00  0.00    -0.384 OA
ATOM     36  H   LIG     1     -29.453   9.261   1.067  0.00  0.00     0.210 HD
ENDBRANCH   3  35
TORSDOF 13
ENDMDL
MODEL 4
REMARK VINA RESULT:      -8.1      5.576     11.278
REMARK  13 active torsions:
REMARK  status: ('A' for Active; 'I' for Inactive)
REMARK    1  A    between atoms: C_2  and  O_12 
REMARK    2  A    between atoms: C_3  and  O_10 
REMARK    3  A    between atoms: C_4  and  O_8 
REMARK    4  A    between atoms: C_5  and  O_6 
REMARK    5  A    between atoms: C_22  and  C_23 
REMARK    6  A    between atoms: O_12  and  C_13 
REMARK    7  A    between atoms: C_13  and  C_14 
REMARK    8  A    between atoms: C_15  and  C_16 
REMARK    9  A    between atoms: C_23  and  O_24 
REMARK   10  A    between atoms: O_24  and  C_25 
REMARK   11  A    between atoms: C_26  and  O_34 
REMARK   12  A    between atoms: C_27  and  O_32 
REMARK   13  A    between atoms: C_28  and  O_30 
ROOT
ATOM      1  O   LIG     1     -30.130   8.107   0.676  0.00  0.00    -0.341 OA
ATOM      2  C   LIG     1     -28.728   7.861   0.766  0.00  0.00     0.282 C 
ATOM      3  C   LIG     1     -28.286   6.879  -0.319  0.00  0.00     0.201 C 
ATOM      4  C   LIG     1     -28.717   7.351  -1.707  0.00  0.00     0.179 C 
ATOM      5  C   LIG     1     -30.190   7.757  -1.722  0.00  0.00     0.177 C 
ATOM      6  C   LIG     1     -30.503   8.708  -0.565  0.00  0.00     0.178 C 
ENDROOT
BRANCH   6   7
ATOM      7  C   LIG     1     -31.992   9.035  -0.489  0.00  0.00     0.197 C 
BRANCH   7   8
ATOM      8  O   LIG     1     -32.474   9.247  -1.803  0.00  0.00    -0.346 OA
BRANCH   8   9
ATOM      9  C   LIG     1     -33.471  10.263  -1.843  0.00  0.00     0.281 C 
ATOM     10  O   LIG     1     -34.132  10.317  -3.112  0.00  0.00    -0.346 OA
ATOM     11  C   LIG     1     -33.289  10.738  -4.182  0.00  0.00     0.197 C 
ATOM     12  C   LIG     1     -32.752  12.139  -3.923  0.00  0.00     0.171 C 
ATOM     13  C   LIG     1     -31.987  12.188  -2.599  0.00  0.00     0.178 C 
ATOM     14  C   LIG     1     -32.852  11.618  -1.469  0.00  0.00     0.201 C 
BRANCH  12  15
ATOM     15  O   LIG     1     -31.902  12.549  -4.986  0.00  0.00    -0.387 OA
ATOM     16  H   LIG     1     -32.133  12.018  -5.767  0.00  0.00     0.210 HD
ENDBRANCH  12  15
BRANCH  13  17
ATOM     17  O   LIG     1     -30.790  11.421  -2.718  0.00  0.00    -0.386 OA
ATOM     18  H   LIG     1     -30.051  11.985  -2.433  0.00  0.00     0.210 HD
ENDBRANCH  13  17
BRANCH  14  19
ATOM     19  O   LIG     1     -33.914  12.525  -1.185  0.00  0.00    -0.384 OA
ATOM     20  H   LIG     1     -33.530  13.364  -0.880  0.00  0.00     0.210 HD
ENDBRANCH  14  19
ENDBRANCH   8   9
ENDBRANCH   7   8
ENDBRANCH   6   7
BRANCH   5  21
ATOM     21  O   LIG     1     -30.490   8.401  -2.957  0.00  0.00    -0.386 OA
ATOM     22  H   LIG     1     -31.442   8.603  -2.967  0.00  0.00     0.210 HD
ENDBRANCH   5  21
BRANCH   2  23
ATOM     23  O   LIG     1     -28.420   7.286   2.034  0.00  0.00    -0.345 OA
BRANCH  23  24
ATOM     24  C   LIG     1     -29.577   6.747   2.652  0.00  0.00     0.190 C 
BRANCH  24  25
ATOM     25  C   LIG     1     -29.256   5.380   3.166  0.00  0.00     0.001 C 
ATOM     26  C   LIG     1     -29.219   5.074   4.473  0.00  0.00     0.006 C 
BRANCH  26  27
ATOM     27  C   LIG     1     -28.922   3.741   5.024  0.00  0.00    -0.025 A 
ATOM     28  C   LIG     1     -29.968   2.902   5.375  0.00  0.00     0.008 A 
ATOM     29  C   LIG     1     -29.686   1.641   5.897  0.00  0.00     0.001 A 
ATOM     30  C   LIG     1     -28.363   1.234   6.064  0.00  0.00     0.000 A 
ATOM     31  C   LIG     1     -27.320   2.088   5.707  0.00  0.00     0.001 A 
ATOM     32  C   LIG     1     -27.602   3.351   5.184  0.00  0.00     0.008 A 
ENDBRANCH  26  27
ENDBRANCH  24  25
ENDBRANCH  23  24
ENDBRANCH   2  23
BRANCH   4  33
ATOM     33  O   LIG     1     -28.542   6.289  -2.647  0.00  0.00    -0.386 OA
ATOM     34  H   LIG     1     -27.590   6.096  -2.693  0.00  0.00     0.210 HD
ENDBRANCH   4  33
BRANCH   3  35
ATOM     35  O   LIG     1     -26.864   6.774  -0.274  0.00  0.00    -0.384 OA
ATOM     36  H   LIG     1     -26.581   6.907   0.646  0.00  0.00     0.210 HD
ENDBRANCH   3  35
TORSDOF 13
ENDMDL
MODEL 5
REMARK VINA RESULT:      -8.0      2.662      4.250
REMARK  13 active torsions:
REMARK  status: ('A' for Active; 'I' for Inactive)
REMARK    1  A    between atoms: C_2  and  O_12 
REMARK    2  A    between atoms: C_3  and  O_10 
REMARK    3  A    between atoms: C_4  and  O_8 
REMARK    4  A    between atoms: C_5  and  O_6 
REMARK    5  A    between atoms: C_22  and  C_23 
REMARK    6  A    between atoms: O_12  and  C_13 
REMARK    7  A    between atoms: C_13  and  C_14 
REMARK    8  A    between atoms: C_15  and  C_16 
REMARK    9  A    between atoms: C_23  and  O_24 
REMARK   10  A    between atoms: O_24  and  C_25 
REMARK   11  A    between atoms: C_26  and  O_34 
REMARK   12  A    between atoms: C_27  and  O_32 
REMARK   13  A    between atoms: C_28  and  O_30 
ROOT
ATOM      1  O   LIG     1     -29.007   6.841   1.994  0.00  0.00    -0.341 OA
ATOM      2  C   LIG     1     -28.044   7.325   1.061  0.00  0.00     0.282 C 
ATOM      3  C   LIG     1     -27.421   8.628   1.561  0.00  0.00     0.201 C 
ATOM      4  C   LIG     1     -26.851   8.468   2.970  0.00  0.00     0.179 C 
ATOM      5  C   LIG     1     -27.859   7.799   3.903  0.00  0.00     0.177 C 
ATOM      6  C   LIG     1     -28.432   6.530   3.264  0.00  0.00     0.178 C 
ENDROOT
BRANCH   6   7
ATOM      7  C   LIG     1     -29.526   5.908   4.126  0.00  0.00     0.197 C 
BRANCH   7   8
ATOM      8  O   LIG     1     -28.915   5.117   5.129  0.00  0.00    -0.346 OA
BRANCH   8   9
ATOM      9  C   LIG     1     -28.454   3.873   4.612  0.00  0.00     0.281 C 
ATOM     10  O   LIG     1     -29.426   2.833   4.771  0.00  0.00    -0.346 OA
ATOM     11  C   LIG     1     -29.670   2.477   6.130  0.00  0.00     0.197 C 
ATOM     12  C   LIG     1     -28.394   1.970   6.790  0.00  0.00     0.171 C 
ATOM     13  C   LIG     1     -27.291   3.026   6.712  0.00  0.00     0.178 C 
ATOM     14  C   LIG     1     -27.115   3.500   5.265  0.00  0.00     0.201 C 
BRANCH  12  15
ATOM     15  O   LIG     1     -28.640   1.628   8.147  0.00  0.00    -0.387 OA
ATOM     16  H   LIG     1     -29.056   0.749   8.157  0.00  0.00     0.210 HD
ENDBRANCH  12  15
BRANCH  13  17
ATOM     17  O   LIG     1     -27.641   4.135   7.539  0.00  0.00    -0.386 OA
ATOM     18  H   LIG     1     -27.073   4.882   7.282  0.00  0.00     0.210 HD
ENDBRANCH  13  17
BRANCH  14  19
ATOM     19  O   LIG     1     -26.525   2.456   4.495  0.00  0.00    -0.384 OA
ATOM     20  H   LIG     1     -26.700   2.630   3.555  0.00  0.00     0.210 HD
ENDBRANCH  14  19
ENDBRANCH   8   9
ENDBRANCH   7   8
ENDBRANCH   6   7
BRANCH   5  21
ATOM     21  O   LIG     1     -27.216   7.460   5.129  0.00  0.00    -0.386 OA
ATOM     22  H   LIG     1     -26.665   8.216   5.397  0.00  0.00     0.210 HD
ENDBRANCH   5  21
BRANCH   2  23
ATOM     23  O   LIG     1     -28.676   7.590  -0.190  0.00  0.00    -0.345 OA
BRANCH  23  24
ATOM     24  C   LIG     1     -29.985   7.045  -0.234  0.00  0.00     0.190 C 
BRANCH  24  25
ATOM     25  C   LIG     1     -30.955   8.143  -0.531  0.00  0.00     0.001 C 
ATOM     26  C   LIG     1     -31.530   8.895   0.419  0.00  0.00     0.006 C 
BRANCH  26  27
ATOM     27  C   LIG     1     -32.478   9.996   0.173  0.00  0.00    -0.025 A 
ATOM     28  C   LIG     1     -32.655  10.970   1.143  0.00  0.00     0.008 A 
ATOM     29  C   LIG     1     -33.552  12.011   0.909  0.00  0.00     0.001 A 
ATOM     30  C   LIG     1     -34.263  12.065  -0.290  0.00  0.00     0.000 A 
ATOM     31  C   LIG     1     -34.075  11.077  -1.256  0.00  0.00     0.001 A 
ATOM     32  C   LIG     1     -33.177  10.036  -1.023  0.00  0.00     0.008 A 
ENDBRANCH  26  27
ENDBRANCH  24  25
ENDBRANCH  23  24
ENDBRANCH   2  23
BRANCH   4  33
ATOM     33  O   LIG     1     -26.539   9.754   3.507  0.00  0.00    -0.386 OA
ATOM     34  H   LIG     1     -25.650   9.699   3.897  0.00  0.00     0.210 HD
ENDBRANCH   4  33
BRANCH   3  35
ATOM     35  O   LIG     1     -26.373   8.996   0.665  0.00  0.00    -0.384 OA
ATOM     36  H   LIG     1     -25.530   8.698   1.047  0.00  0.00     0.210 HD
ENDBRANCH   3  35
TORSDOF 13
ENDMDL
MODEL 6
REMARK VINA RESULT:      -7.9      5.792      8.147
REMARK  13 active torsions:
REMARK  status: ('A' for Active; 'I' for Inactive)
REMARK    1  A    between atoms: C_2  and  O_12 
REMARK    2  A    between atoms: C_3  and  O_10 
REMARK    3  A    between atoms: C_4  and  O_8 
REMARK    4  A    between atoms: C_5  and  O_6 
REMARK    5  A    between atoms: C_22  and  C_23 
REMARK    6  A    between atoms: O_12  and  C_13 
REMARK    7  A    between atoms: C_13  and  C_14 
REMARK    8  A    between atoms: C_15  and  C_16 
REMARK    9  A    between atoms: C_23  and  O_24 
REMARK   10  A    between atoms: O_24  and  C_25 
REMARK   11  A    between atoms: C_26  and  O_34 
REMARK   12  A    between atoms: C_27  and  O_32 
REMARK   13  A    between atoms: C_28  and  O_30 
ROOT
ATOM      1  O   LIG     1     -30.839   8.306   2.819  0.00  0.00    -0.341 OA
ATOM      2  C   LIG     1     -31.179   9.531   3.463  0.00  0.00     0.282 C 
ATOM      3  C   LIG     1     -30.266   9.776   4.665  0.00  0.00     0.201 C 
ATOM      4  C   LIG     1     -28.792   9.705   4.267  0.00  0.00     0.179 C 
ATOM      5  C   LIG     1     -28.501   8.453   3.441  0.00  0.00     0.177 C 
ATOM      6  C   LIG     1     -29.509   8.310   2.298  0.00  0.00     0.178 C 
ENDROOT
BRANCH   6   7
ATOM      7  C   LIG     1     -29.311   7.007   1.528  0.00  0.00     0.197 C 
BRANCH   7   8
ATOM      8  O   LIG     1     -29.828   7.173   0.221  0.00  0.00    -0.346 OA
BRANCH   8   9
ATOM      9  C   LIG     1     -28.915   6.713  -0.770  0.00  0.00     0.281 C 
ATOM     10  O   LIG     1     -27.809   7.607  -0.938  0.00  0.00    -0.346 OA
ATOM     11  C   LIG     1     -28.171   8.873  -1.484  0.00  0.00     0.197 C 
ATOM     12  C   LIG     1     -28.792   8.704  -2.864  0.00  0.00     0.171 C 
ATOM     13  C   LIG     1     -30.017   7.790  -2.796  0.00  0.00     0.178 C 
ATOM     14  C   LIG     1     -29.656   6.477  -2.095  0.00  0.00     0.201 C 
BRANCH  12  15
ATOM     15  O   LIG     1     -29.162   9.968  -3.399  0.00  0.00    -0.387 OA
ATOM     16  H   LIG     1     -30.076  10.149  -3.120  0.00  0.00     0.210 HD
ENDBRANCH  12  15
BRANCH  13  17
ATOM     17  O   LIG     1     -31.056   8.448  -2.073  0.00  0.00    -0.386 OA
ATOM     18  H   LIG     1     -30.747   8.565  -1.158  0.00  0.00     0.210 HD
ENDBRANCH  13  17
BRANCH  14  19
ATOM     19  O   LIG     1     -28.808   5.706  -2.943  0.00  0.00    -0.384 OA
ATOM     20  H   LIG     1     -29.054   4.770  -2.857  0.00  0.00     0.210 HD
ENDBRANCH  14  19
ENDBRANCH   8   9
ENDBRANCH   7   8
ENDBRANCH   6   7
BRANCH   5  21
ATOM     21  O   LIG     1     -27.185   8.539   2.900  0.00  0.00    -0.386 OA
ATOM     22  H   LIG     1     -26.988   9.479   2.739  0.00  0.00     0.210 HD
ENDBRANCH   5  21
BRANCH   2  23
ATOM     23  O   LIG     1     -32.523   9.471   3.936  0.00  0.00    -0.345 OA
BRANCH  23  24
ATOM     24  C   LIG     1     -33.289  10.565   3.456  0.00  0.00     0.190 C 
BRANCH  24  25
ATOM     25  C   LIG     1     -32.904  10.837   2.038  0.00  0.00     0.001 C 
ATOM     26  C   LIG     1     -33.651  11.573   1.200  0.00  0.00     0.006 C 
BRANCH  26  27
ATOM     27  C   LIG     1     -33.306  11.880  -0.199  0.00  0.00    -0.025 A 
ATOM     28  C   LIG     1     -34.281  12.386  -1.044  0.00  0.00     0.008 A 
ATOM     29  C   LIG     1     -33.953  12.676  -2.368  0.00  0.00     0.001 A 
ATOM     30  C   LIG     1     -32.656  12.457  -2.830  0.00  0.00     0.000 A 
ATOM     31  C   LIG     1     -31.685  11.947  -1.968  0.00  0.00     0.001 A 
ATOM     32  C   LIG     1     -32.013  11.657  -0.644  0.00  0.00     0.008 A 
ENDBRANCH  26  27
ENDBRANCH  24  25
ENDBRANCH  23  24
ENDBRANCH   2  23
BRANCH   4  33
ATOM     33  O   LIG     1     -27.984   9.654   5.445  0.00  0.00    -0.386 OA
ATOM     34  H   LIG     1     -27.465   8.833   5.406  0.00  0.00     0.210 HD
ENDBRANCH   4  33
BRANCH   3  35
ATOM     35  O   LIG     1     -30.554  11.072   5.189  0.00  0.00    -0.384 OA
ATOM     36  H   LIG     1     -30.037  11.189   6.003  0.00  0.00     0.210 HD
ENDBRANCH   3  35
TORSDOF 13
ENDMDL
MODEL 7
REMARK VINA RESULT:      -7.8      2.899      5.443
REMARK  13 active torsions:
REMARK  status: ('A' for Active; 'I' for Inactive)
REMARK    1  A    between atoms: C_2  and  O_12 
REMARK    2  A    between atoms: C_3  and  O_10 
REMARK    3  A    between atoms: C_4  and  O_8 
REMARK    4  A    between atoms: C_5  and  O_6 
REMARK    5  A    between atoms: C_22  and  C_23 
REMARK    6  A    between atoms: O_12  and  C_13 
REMARK    7  A    between atoms: C_13  and  C_14 
REMARK    8  A    between atoms: C_15  and  C_16 
REMARK    9  A    between atoms: C_23  and  O_24 
REMARK   10  A    between atoms: O_24  and  C_25 
REMARK   11  A    between atoms: C_26  and  O_34 
REMARK   12  A    between atoms: C_27  and  O_32 
REMARK   13  A    between atoms: C_28  and  O_30 
ROOT
ATOM      1  O   LIG     1     -29.798   8.295   4.434  0.00  0.00    -0.341 OA
ATOM      2  C   LIG     1     -30.139   9.362   3.552  0.00  0.00     0.282 C 
ATOM      3  C   LIG     1     -28.877  10.044   3.022  0.00  0.00     0.201 C 
ATOM      4  C   LIG     1     -27.923   9.033   2.388  0.00  0.00     0.179 C 
ATOM      5  C   LIG     1     -27.707   7.827   3.300  0.00  0.00     0.177 C 
ATOM      6  C   LIG     1     -29.046   7.267   3.787  0.00  0.00     0.178 C 
ENDROOT
BRANCH   6   7
ATOM      7  C   LIG     1     -28.854   6.135   4.791  0.00  0.00     0.197 C 
BRANCH   7   8
ATOM      8  O   LIG     1     -27.513   6.158   5.246  0.00  0.00    -0.346 OA
BRANCH   8   9
ATOM      9  C   LIG     1     -27.433   6.414   6.644  0.00  0.00     0.281 C 
ATOM     10  O   LIG     1     -26.576   7.523   6.939  0.00  0.00    -0.346 OA
ATOM     11  C   LIG     1     -25.203   7.284   6.638  0.00  0.00     0.197 C 
ATOM     12  C   LIG     1     -24.673   6.110   7.451  0.00  0.00     0.171 C 
ATOM     13  C   LIG     1     -25.498   4.850   7.181  0.00  0.00     0.178 C 
ATOM     14  C   LIG     1     -26.988   5.143   7.383  0.00  0.00     0.201 C 
BRANCH  12  15
ATOM     15  O   LIG     1     -23.308   5.868   7.139  0.00  0.00    -0.387 OA
ATOM     16  H   LIG     1     -23.274   5.483   6.246  0.00  0.00     0.210 HD
ENDBRANCH  12  15
BRANCH  13  17
ATOM     17  O   LIG     1     -25.274   4.419   5.840  0.00  0.00    -0.386 OA
ATOM     18  H   LIG     1     -26.114   4.510   5.358  0.00  0.00     0.210 HD
ENDBRANCH  13  17
BRANCH  14  19
ATOM     19  O   LIG     1     -27.249   5.327   8.773  0.00  0.00    -0.384 OA
ATOM     20  H   LIG     1     -27.793   4.585   9.085  0.00  0.00     0.210 HD
ENDBRANCH  14  19
ENDBRANCH   8   9
ENDBRANCH   7   8
ENDBRANCH   6   7
BRANCH   5  21
ATOM     21  O   LIG     1     -27.005   6.813   2.584  0.00  0.00    -0.386 OA
ATOM     22  H   LIG     1     -26.841   6.074   3.195  0.00  0.00     0.210 HD
ENDBRANCH   5  21
BRANCH   2  23
ATOM     23  O   LIG     1     -30.908  10.338   4.251  0.00  0.00    -0.345 OA
BRANCH  23  24
ATOM     24  C   LIG     1     -32.297  10.169   4.015  0.00  0.00     0.190 C 
BRANCH  24  25
ATOM     25  C   LIG     1     -32.564  10.358   2.557  0.00  0.00     0.001 C 
ATOM     26  C   LIG     1     -32.737  11.561   1.988  0.00  0.00     0.006 C 
BRANCH  26  27
ATOM     27  C   LIG     1     -32.988  11.795   0.556  0.00  0.00    -0.025 A 
ATOM     28  C   LIG     1     -34.255  12.176   0.142  0.00  0.00     0.008 A 
ATOM     29  C   LIG     1     -34.491  12.398  -1.214  0.00  0.00     0.001 A 
ATOM     30  C   LIG     1     -33.460  12.236  -2.139  0.00  0.00     0.000 A 
ATOM     31  C   LIG     1     -32.190  11.852  -1.708  0.00  0.00     0.001 A 
ATOM     32  C   LIG     1     -31.953  11.631  -0.351  0.00  0.00     0.008 A 
ENDBRANCH  26  27
ENDBRANCH  24  25
ENDBRANCH  23  24
ENDBRANCH   2  23
BRANCH   4  33
ATOM     33  O   LIG     1     -26.654   9.652   2.166  0.00  0.00    -0.386 OA
ATOM     34  H   LIG     1     -26.417   9.503   1.235  0.00  0.00     0.210 HD
ENDBRANCH   4  33
BRANCH   3  35
ATOM     35  O   LIG     1     -29.267  11.007   2.044  0.00  0.00    -0.384 OA
ATOM     36  H   LIG     1     -29.238  10.580   1.172  0.00  0.00     0.210 HD
ENDBRANCH   3  35
TORSDOF 13
ENDMDL
MODEL 8
REMARK VINA RESULT:      -7.5      5.469      7.756
REMARK  13 active torsions:
REMARK  status: ('A' for Active; 'I' for Inactive)
REMARK    1  A    between atoms: C_2  and  O_12 
REMARK    2  A    between atoms: C_3  and  O_10 
REMARK    3  A    between atoms: C_4  and  O_8 
REMARK    4  A    between atoms: C_5  and  O_6 
REMARK    5  A    between atoms: C_22  and  C_23 
REMARK    6  A    between atoms: O_12  and  C_13 
REMARK    7  A    between atoms: C_13  and  C_14 
REMARK    8  A    between atoms: C_15  and  C_16 
REMARK    9  A    between atoms: C_23  and  O_24 
REMARK   10  A    between atoms: O_24  and  C_25 
REMARK   11  A    between atoms: C_26  and  O_34 
REMARK   12  A    between atoms: C_27  and  O_32 
REMARK   13  A    between atoms: C_28  and  O_30 
ROOT
ATOM      1  O   LIG     1     -31.096   8.881   3.447  0.00  0.00    -0.341 OA
ATOM      2  C   LIG     1     -31.292  10.250   3.794  0.00  0.00     0.282 C 
ATOM      3  C   LIG     1     -30.554  10.585   5.091  0.00  0.00     0.201 C 
ATOM      4  C   LIG     1     -29.078  10.201   5.006  0.00  0.00     0.179 C 
ATOM      5  C   LIG     1     -28.904   8.778   4.478  0.00  0.00     0.177 C 
ATOM      6  C   LIG     1     -29.723   8.569   3.202  0.00  0.00     0.178 C 
ENDROOT
BRANCH   6   7
ATOM      7  C   LIG     1     -29.659   7.123   2.719  0.00  0.00     0.197 C 
BRANCH   7   8
ATOM      8  O   LIG     1     -29.005   7.095   1.464  0.00  0.00    -0.346 OA
BRANCH   8   9
ATOM      9  C   LIG     1     -29.557   8.047   0.560  0.00  0.00     0.281 C 
ATOM     10  O   LIG     1     -30.621   7.492  -0.221  0.00  0.00    -0.346 OA
ATOM     11  C   LIG     1     -30.198   6.481  -1.133  0.00  0.00     0.197 C 
ATOM     12  C   LIG     1     -29.190   7.042  -2.127  0.00  0.00     0.171 C 
ATOM     13  C   LIG     1     -27.982   7.632  -1.397  0.00  0.00     0.178 C 
ATOM     14  C   LIG     1     -28.447   8.628  -0.329  0.00  0.00     0.201 C 
BRANCH  12  15
ATOM     15  O   LIG     1     -28.763   6.028  -3.026  0.00  0.00    -0.387 OA
ATOM     16  H   LIG     1     -27.851   5.788  -2.786  0.00  0.00     0.210 HD
ENDBRANCH  12  15
BRANCH  13  17
ATOM     17  O   LIG     1     -27.245   6.578  -0.779  0.00  0.00    -0.386 OA
ATOM     18  H   LIG     1     -26.579   6.273  -1.419  0.00  0.00     0.210 HD
ENDBRANCH  13  17
BRANCH  14  19
ATOM     19  O   LIG     1     -28.958   9.797  -0.964  0.00  0.00    -0.384 OA
ATOM     20  H   LIG     1     -29.196   9.572  -1.879  0.00  0.00     0.210 HD
ENDBRANCH  14  19
ENDBRANCH   8   9
ENDBRANCH   7   8
ENDBRANCH   6   7
BRANCH   5  21
ATOM     21  O   LIG     1     -27.527   8.543   4.197  0.00  0.00    -0.386 OA
ATOM     22  H   LIG     1     -27.305   7.650   4.512  0.00  0.00     0.210 HD
ENDBRANCH   5  21
BRANCH   2  23
ATOM     23  O   LIG     1     -32.681  10.501   3.999  0.00  0.00    -0.345 OA
BRANCH  23  24
ATOM     24  C   LIG     1     -33.126  11.605   3.227  0.00  0.00     0.190 C 
BRANCH  24  25
ATOM     25  C   LIG     1     -33.206  11.189   1.794  0.00  0.00     0.001 C 
ATOM     26  C   LIG     1     -33.710  11.971   0.826  0.00  0.00     0.006 C 
BRANCH  26  27
ATOM     27  C   LIG     1     -33.796  11.611  -0.599  0.00  0.00    -0.025 A 
ATOM     28  C   LIG     1     -33.617  10.289  -0.977  0.00  0.00     0.008 A 
ATOM     29  C   LIG     1     -33.699   9.949  -2.327  0.00  0.00     0.001 A 
ATOM     30  C   LIG     1     -33.957  10.933  -3.281  0.00  0.00     0.000 A 
ATOM     31  C   LIG     1     -34.134  12.258  -2.886  0.00  0.00     0.001 A 
ATOM     32  C   LIG     1     -34.053  12.599  -1.536  0.00  0.00     0.008 A 
ENDBRANCH  26  27
ENDBRANCH  24  25
ENDBRANCH  23  24
ENDBRANCH   2  23
BRANCH   4  33
ATOM     33  O   LIG     1     -28.495  10.262   6.309  0.00  0.00    -0.386 OA
ATOM     34  H   LIG     1     -28.044   9.416   6.466  0.00  0.00     0.210 HD
ENDBRANCH   4  33
BRANCH   3  35
ATOM     35  O   LIG     1     -30.668  11.989   5.320  0.00  0.00    -0.384 OA
ATOM     36  H   LIG     1     -29.894  12.423   4.923  0.00  0.00     0.210 HD
ENDBRANCH   3  35
TORSDOF 13
ENDMDL
MODEL 9
REMARK VINA RESULT:      -7.5      4.534      9.606
REMARK  13 active torsions:
REMARK  status: ('A' for Active; 'I' for Inactive)
REMARK    1  A    between atoms: C_2  and  O_12 
REMARK    2  A    between atoms: C_3  and  O_10 
REMARK    3  A    between atoms: C_4  and  O_8 
REMARK    4  A    between atoms: C_5  and  O_6 
REMARK    5  A    between atoms: C_22  and  C_23 
REMARK    6  A    between atoms: O_12  and  C_13 
REMARK    7  A    between atoms: C_13  and  C_14 
REMARK    8  A    between atoms: C_15  and  C_16 
REMARK    9  A    between atoms: C_23  and  O_24 
REMARK   10  A    between atoms: O_24  and  C_25 
REMARK   11  A    between atoms: C_26  and  O_34 
REMARK   12  A    between atoms: C_27  and  O_32 
REMARK   13  A    between atoms: C_28  and  O_30 
ROOT
ATOM      1  O   LIG     1     -31.335   9.026   2.172  0.00  0.00    -0.341 OA
ATOM      2  C   LIG     1     -31.672   8.998   3.557  0.00  0.00     0.282 C 
ATOM      3  C   LIG     1     -31.786  10.419   4.109  0.00  0.00     0.201 C 
ATOM      4  C   LIG     1     -32.755  11.262   3.281  0.00  0.00     0.179 C 
ATOM      5  C   LIG     1     -32.458  11.139   1.787  0.00  0.00     0.177 C 
ATOM      6  C   LIG     1     -32.332   9.669   1.377  0.00  0.00     0.178 C 
ENDROOT
BRANCH   6   7
ATOM      7  C   LIG     1     -31.921   9.523  -0.085  0.00  0.00     0.197 C 
BRANCH   7   8
ATOM      8  O   LIG     1     -30.540   9.215  -0.136  0.00  0.00    -0.346 OA
BRANCH   8   9
ATOM      9  C   LIG     1     -29.967   9.564  -1.392  0.00  0.00     0.281 C 
ATOM     10  O   LIG     1     -30.638   8.926  -2.484  0.00  0.00    -0.346 OA
ATOM     11  C   LIG     1     -30.478   7.510  -2.508  0.00  0.00     0.197 C 
ATOM     12  C   LIG     1     -29.007   7.138  -2.639  0.00  0.00     0.171 C 
ATOM     13  C   LIG     1     -28.194   7.740  -1.492  0.00  0.00     0.178 C 
ATOM     14  C   LIG     1     -28.464   9.245  -1.387  0.00  0.00     0.201 C 
BRANCH  12  15
ATOM     15  O   LIG     1     -28.851   5.726  -2.651  0.00  0.00    -0.387 OA
ATOM     16  H   LIG     1     -29.740   5.333  -2.689  0.00  0.00     0.210 HD
ENDBRANCH  12  15
BRANCH  13  17
ATOM     17  O   LIG     1     -28.561   7.103  -0.269  0.00  0.00    -0.386 OA
ATOM     18  H   LIG     1     -29.465   6.759  -0.378  0.00  0.00     0.210 HD
ENDBRANCH  13  17
BRANCH  14  19
ATOM     19  O   LIG     1     -27.869   9.910  -2.499  0.00  0.00    -0.384 OA
ATOM     20  H   LIG     1     -28.553  10.054  -3.174  0.00  0.00     0.210 HD
ENDBRANCH  14  19
ENDBRANCH   8   9
ENDBRANCH   7   8
ENDBRANCH   6   7
BRANCH   5  21
ATOM     21  O   LIG     1     -33.512  11.747   1.044  0.00  0.00    -0.386 OA
ATOM     22  H   LIG     1     -34.308  11.197   1.149  0.00  0.00     0.210 HD
ENDBRANCH   5  21
BRANCH   2  23
ATOM     23  O   LIG     1     -30.652   8.321   4.289  0.00  0.00    -0.345 OA
BRANCH  23  24
ATOM     24  C   LIG     1     -29.990   7.359   3.483  0.00  0.00     0.190 C 
BRANCH  24  25
ATOM     25  C   LIG     1     -29.680   6.161   4.321  0.00  0.00     0.001 C 
ATOM     26  C   LIG     1     -29.098   5.053   3.837  0.00  0.00     0.006 C 
BRANCH  26  27
ATOM     27  C   LIG     1     -28.760   3.856   4.626  0.00  0.00    -0.025 A 
ATOM     28  C   LIG     1     -27.430   3.505   4.792  0.00  0.00     0.008 A 
ATOM     29  C   LIG     1     -27.111   2.372   5.540  0.00  0.00     0.001 A 
ATOM     30  C   LIG     1     -28.126   1.603   6.111  0.00  0.00     0.000 A 
ATOM     31  C   LIG     1     -29.460   1.969   5.935  0.00  0.00     0.001 A 
ATOM     32  C   LIG     1     -29.779   3.103   5.187  0.00  0.00     0.008 A 
ENDBRANCH  26  27
ENDBRANCH  24  25
ENDBRANCH  23  24
ENDBRANCH   2  23
BRANCH   4  33
ATOM     33  O   LIG     1     -32.621  12.637   3.646  0.00  0.00    -0.386 OA
ATOM     34  H   LIG     1     -32.098  12.671   4.465  0.00  0.00     0.210 HD
ENDBRANCH   4  33
BRANCH   3  35
ATOM     35  O   LIG     1     -32.258  10.339   5.454  0.00  0.00    -0.384 OA
ATOM     36  H   LIG     1     -32.039  11.175   5.900  0.00  0.00     0.210 HD
ENDBRANCH   3  35
TORSDOF 13
ENDMDL
