MODEL 1
REMARK VINA RESULT:      -6.6      0.000      0.000
REMARK  10 active torsions:
REMARK  status: ('A' for Active; 'I' for Inactive)
REMARK    1  A    between atoms: O_2  and  C_12 
REMARK    2  A    between atoms: O_2  and  C_14 
REMARK    3  A    between atoms: O_3  and  C_8 
REMARK    4  A    between atoms: O_4  and  C_9 
REMARK    5  A    between atoms: O_5  and  C_10 
REMARK    6  A    between atoms: O_6  and  C_13 
REMARK    7  A    between atoms: O_7  and  C_21 
REMARK    8  A    between atoms: C_11  and  C_13 
REMARK    9  A    between atoms: C_14  and  C_15 
REMARK   10  A    between atoms: C_15  and  C_16 
ROOT
HETATM    1  O   UNK     0       6.729  44.747  21.165  0.00  0.00    -0.348 OA
HETATM    2  C   UNK     0       8.839  45.643  19.435  0.00  0.00     0.183 C 
HETATM    3  C   UNK     0       7.404  46.158  19.314  0.00  0.00     0.180 C 
HETATM    4  C   UNK     0       8.882  44.288  20.142  0.00  0.00     0.204 C 
HETATM    5  C   UNK     0       6.685  46.083  20.662  0.00  0.00     0.179 C 
HETATM    6  C   UNK     0       8.059  44.305  21.429  0.00  0.00     0.291 C 
ENDROOT
BRANCH   5   7
HETATM    7  C   UNK     0       5.217  46.480  20.542  0.00  0.00     0.198 C 
BRANCH   7   8
HETATM    8  O   UNK     0       5.131  47.893  20.535  0.00  0.00    -0.398 OA
HETATM    9  H   UNK     0       4.194  48.130  20.430  0.00  0.00     0.209 HD
ENDBRANCH   7   8
ENDBRANCH   5   7
BRANCH   6  10
HETATM   10  O   UNK     0       8.031  42.978  21.950  0.00  0.00    -0.358 OA
BRANCH  10  11
HETATM   11  C   UNK     0       7.299  42.105  21.102  0.00  0.00     0.175 C 
BRANCH  11  12
HETATM   12  C   UNK     0       6.340  41.262  21.934  0.00  0.00     0.065 C 
BRANCH  12  13
HETATM   13  C   UNK     0       4.896  41.641  21.704  0.00  0.00    -0.056 A 
HETATM   14  C   UNK     0       3.930  41.206  22.596  0.00  0.00     0.010 A 
HETATM   15  C   UNK     0       2.596  41.556  22.383  0.00  0.00     0.037 A 
HETATM   16  C   UNK     0       2.248  42.336  21.279  0.00  0.00     0.065 A 
HETATM   17  C   UNK     0       3.232  42.766  20.391  0.00  0.00     0.037 A 
HETATM   18  C   UNK     0       4.565  42.416  20.604  0.00  0.00     0.010 A 
BRANCH  16  19
HETATM   19  O   UNK     0       0.946  42.677  21.072  0.00  0.00    -0.361 OA
HETATM   20  H   UNK     0       0.788  42.749  20.115  0.00  0.00     0.217 HD
ENDBRANCH  16  19
ENDBRANCH  12  13
ENDBRANCH  11  12
ENDBRANCH  10  11
ENDBRANCH   6  10
BRANCH   3  21
HETATM   21  O   UNK     0       7.425  47.510  18.865  0.00  0.00    -0.390 OA
HETATM   22  H   UNK     0       7.011  47.542  17.986  0.00  0.00     0.210 HD
ENDBRANCH   3  21
BRANCH   4  23
HETATM   23  O   UNK     0      10.233  43.973  20.479  0.00  0.00    -0.388 OA
HETATM   24  H   UNK     0      10.500  44.544  21.220  0.00  0.00     0.210 HD
ENDBRANCH   4  23
BRANCH   2  25
HETATM   25  O   UNK     0       9.373  45.509  18.117  0.00  0.00    -0.390 OA
HETATM   26  H   UNK     0      10.116  44.885  18.166  0.00  0.00     0.210 HD
ENDBRANCH   2  25
TORSDOF 10
ENDMDL
MODEL 2
REMARK VINA RESULT:      -6.6      2.228      3.335
REMARK  10 active torsions:
REMARK  status: ('A' for Active; 'I' for Inactive)
REMARK    1  A    between atoms: O_2  and  C_12 
REMARK    2  A    between atoms: O_2  and  C_14 
REMARK    3  A    between atoms: O_3  and  C_8 
REMARK    4  A    between atoms: O_4  and  C_9 
REMARK    5  A    between atoms: O_5  and  C_10 
REMARK    6  A    between atoms: O_6  and  C_13 
REMARK    7  A    between atoms: O_7  and  C_21 
REMARK    8  A    between atoms: C_11  and  C_13 
REMARK    9  A    between atoms: C_14  and  C_15 
REMARK   10  A    between atoms: C_15  and  C_16 
ROOT
HETATM    1  O   UNK     0       7.020  43.938  21.035  0.00  0.00    -0.348 OA
HETATM    2  C   UNK     0       7.635  46.037  19.173  0.00  0.00     0.183 C 
HETATM    3  C   UNK     0       8.113  46.062  20.626  0.00  0.00     0.180 C 
HETATM    4  C   UNK     0       6.414  45.132  19.008  0.00  0.00     0.204 C 
HETATM    5  C   UNK     0       8.255  44.641  21.175  0.00  0.00     0.179 C 
HETATM    6  C   UNK     0       6.636  43.772  19.671  0.00  0.00     0.291 C 
ENDROOT
BRANCH   5   7
HETATM    7  C   UNK     0       8.617  44.642  22.656  0.00  0.00     0.198 C 
BRANCH   7   8
HETATM    8  O   UNK     0       7.959  45.727  23.282  0.00  0.00    -0.398 OA
HETATM    9  H   UNK     0       8.567  46.098  23.944  0.00  0.00     0.209 HD
ENDBRANCH   7   8
ENDBRANCH   5   7
BRANCH   6  10
HETATM   10  O   UNK     0       5.411  43.044  19.600  0.00  0.00    -0.358 OA
BRANCH  10  11
HETATM   11  C   UNK     0       4.381  43.694  20.330  0.00  0.00     0.175 C 
BRANCH  11  12
HETATM   12  C   UNK     0       3.338  42.673  20.770  0.00  0.00     0.065 C 
BRANCH  12  13
HETATM   13  C   UNK     0       3.297  42.505  22.269  0.00  0.00    -0.056 A 
HETATM   14  C   UNK     0       4.031  43.363  23.070  0.00  0.00     0.010 A 
HETATM   15  C   UNK     0       3.993  43.207  24.455  0.00  0.00     0.037 A 
HETATM   16  C   UNK     0       3.219  42.193  25.021  0.00  0.00     0.065 A 
HETATM   17  C   UNK     0       2.484  41.337  24.203  0.00  0.00     0.037 A 
HETATM   18  C   UNK     0       2.523  41.493  22.817  0.00  0.00     0.010 A 
BRANCH  16  19
HETATM   19  O   UNK     0       3.182  42.042  26.374  0.00  0.00    -0.361 OA
HETATM   20  H   UNK     0       3.472  41.141  26.598  0.00  0.00     0.217 HD
ENDBRANCH  16  19
ENDBRANCH  12  13
ENDBRANCH  11  12
ENDBRANCH  10  11
ENDBRANCH   6  10
BRANCH   3  21
HETATM   21  O   UNK     0       9.374  46.722  20.695  0.00  0.00    -0.390 OA
HETATM   22  H   UNK     0       9.997  46.243  20.122  0.00  0.00     0.210 HD
ENDBRANCH   3  21
BRANCH   4  23
HETATM   23  O   UNK     0       6.168  44.917  17.619  0.00  0.00    -0.388 OA
HETATM   24  H   UNK     0       5.220  44.727  17.506  0.00  0.00     0.210 HD
ENDBRANCH   4  23
BRANCH   2  25
HETATM   25  O   UNK     0       7.292  47.372  18.799  0.00  0.00    -0.390 OA
HETATM   26  H   UNK     0       8.098  47.795  18.457  0.00  0.00     0.210 HD
ENDBRANCH   2  25
TORSDOF 10
ENDMDL
MODEL 3
REMARK VINA RESULT:      -6.6      2.007      2.909
REMARK  10 active torsions:
REMARK  status: ('A' for Active; 'I' for Inactive)
REMARK    1  A    between atoms: O_2  and  C_12 
REMARK    2  A    between atoms: O_2  and  C_14 
REMARK    3  A    between atoms: O_3  and  C_8 
REMARK    4  A    between atoms: O_4  and  C_9 
REMARK    5  A    between atoms: O_5  and  C_10 
REMARK    6  A    between atoms: O_6  and  C_13 
REMARK    7  A    between atoms: O_7  and  C_21 
REMARK    8  A    between atoms: C_11  and  C_13 
REMARK    9  A    between atoms: C_14  and  C_15 
REMARK   10  A    between atoms: C_15  and  C_16 
ROOT
HETATM    1  O   UNK     0       7.891  44.848  21.539  0.00  0.00    -0.348 OA
HETATM    2  C   UNK     0       7.882  44.830  18.667  0.00  0.00     0.183 C 
HETATM    3  C   UNK     0       8.890  45.644  19.479  0.00  0.00     0.180 C 
HETATM    4  C   UNK     0       6.631  44.520  19.489  0.00  0.00     0.204 C 
HETATM    5  C   UNK     0       9.131  45.001  20.846  0.00  0.00     0.179 C 
HETATM    6  C   UNK     0       6.994  43.967  20.867  0.00  0.00     0.291 C 
ENDROOT
BRANCH   5   7
HETATM    7  C   UNK     0      10.043  45.856  21.720  0.00  0.00     0.198 C 
BRANCH   7   8
HETATM    8  O   UNK     0      10.040  47.179  21.217  0.00  0.00    -0.398 OA
HETATM    9  H   UNK     0       9.975  47.782  21.976  0.00  0.00     0.209 HD
ENDBRANCH   7   8
ENDBRANCH   5   7
BRANCH   6  10
HETATM   10  O   UNK     0       5.789  43.839  21.620  0.00  0.00    -0.358 OA
BRANCH  10  11
HETATM   11  C   UNK     0       5.278  45.110  21.996  0.00  0.00     0.175 C 
BRANCH  11  12
HETATM   12  C   UNK     0       3.754  45.071  22.004  0.00  0.00     0.065 C 
BRANCH  12  13
HETATM   13  C   UNK     0       3.217  43.660  22.002  0.00  0.00    -0.056 A 
HETATM   14  C   UNK     0       3.290  42.904  23.160  0.00  0.00     0.010 A 
HETATM   15  C   UNK     0       2.793  41.600  23.158  0.00  0.00     0.037 A 
HETATM   16  C   UNK     0       2.229  41.071  21.997  0.00  0.00     0.065 A 
HETATM   17  C   UNK     0       2.162  41.845  20.839  0.00  0.00     0.037 A 
HETATM   18  C   UNK     0       2.659  43.148  20.842  0.00  0.00     0.010 A 
BRANCH  16  19
HETATM   19  O   UNK     0       1.744  39.799  21.996  0.00  0.00    -0.361 OA
HETATM   20  H   UNK     0       2.395  39.213  22.420  0.00  0.00     0.217 HD
ENDBRANCH  16  19
ENDBRANCH  12  13
ENDBRANCH  11  12
ENDBRANCH  10  11
ENDBRANCH   6  10
BRANCH   3  21
HETATM   21  O   UNK     0      10.123  45.712  18.767  0.00  0.00    -0.390 OA
HETATM   22  H   UNK     0      10.336  44.819  18.448  0.00  0.00     0.210 HD
ENDBRANCH   3  21
BRANCH   4  23
HETATM   23  O   UNK     0       5.846  43.542  18.807  0.00  0.00    -0.388 OA
HETATM   24  H   UNK     0       5.324  43.058  19.470  0.00  0.00     0.210 HD
ENDBRANCH   4  23
BRANCH   2  25
HETATM   25  O   UNK     0       7.519  45.597  17.518  0.00  0.00    -0.390 OA
HETATM   26  H   UNK     0       7.519  44.995  16.754  0.00  0.00     0.210 HD
ENDBRANCH   2  25
TORSDOF 10
ENDMDL
MODEL 4
REMARK VINA RESULT:      -6.5      2.293      3.958
REMARK  10 active torsions:
REMARK  status: ('A' for Active; 'I' for Inactive)
REMARK    1  A    between atoms: O_2  and  C_12 
REMARK    2  A    between atoms: O_2  and  C_14 
REMARK    3  A    between atoms: O_3  and  C_8 
REMARK    4  A    between atoms: O_4  and  C_9 
REMARK    5  A    between atoms: O_5  and  C_10 
REMARK    6  A    between atoms: O_6  and  C_13 
REMARK    7  A    between atoms: O_7  and  C_21 
REMARK    8  A    between atoms: C_11  and  C_13 
REMARK    9  A    between atoms: C_14  and  C_15 
REMARK   10  A    between atoms: C_15  and  C_16 
ROOT
HETATM    1  O   UNK     0       7.133  44.414  20.931  0.00  0.00    -0.348 OA
HETATM    2  C   UNK     0       5.598  46.734  20.214  0.00  0.00     0.183 C 
HETATM    3  C   UNK     0       7.089  46.606  19.899  0.00  0.00     0.180 C 
HETATM    4  C   UNK     0       5.196  45.812  21.366  0.00  0.00     0.204 C 
HETATM    5  C   UNK     0       7.490  45.137  19.752  0.00  0.00     0.179 C 
HETATM    6  C   UNK     0       5.724  44.394  21.155  0.00  0.00     0.291 C 
ENDROOT
BRANCH   5   7
HETATM    7  C   UNK     0       8.994  44.979  19.554  0.00  0.00     0.198 C 
BRANCH   7   8
HETATM    8  O   UNK     0       9.335  45.468  18.271  0.00  0.00    -0.398 OA
HETATM    9  H   UNK     0       9.717  44.730  17.766  0.00  0.00     0.209 HD
ENDBRANCH   7   8
ENDBRANCH   5   7
BRANCH   6  10
HETATM   10  O   UNK     0       5.434  43.638  22.329  0.00  0.00    -0.358 OA
BRANCH  10  11
HETATM   11  C   UNK     0       4.677  42.477  22.022  0.00  0.00     0.175 C 
BRANCH  11  12
HETATM   12  C   UNK     0       3.225  42.683  22.440  0.00  0.00     0.065 C 
BRANCH  12  13
HETATM   13  C   UNK     0       2.835  41.811  23.608  0.00  0.00    -0.056 A 
HETATM   14  C   UNK     0       2.024  40.709  23.393  0.00  0.00     0.010 A 
HETATM   15  C   UNK     0       1.664  39.903  24.472  0.00  0.00     0.037 A 
HETATM   16  C   UNK     0       2.120  40.211  25.755  0.00  0.00     0.065 A 
HETATM   17  C   UNK     0       2.935  41.323  25.957  0.00  0.00     0.037 A 
HETATM   18  C   UNK     0       3.296  42.129  24.877  0.00  0.00     0.010 A 
BRANCH  16  19
HETATM   19  O   UNK     0       1.768  39.424  26.808  0.00  0.00    -0.361 OA
HETATM   20  H   UNK     0       2.574  39.129  27.265  0.00  0.00     0.217 HD
ENDBRANCH  16  19
ENDBRANCH  12  13
ENDBRANCH  11  12
ENDBRANCH  10  11
ENDBRANCH   6  10
BRANCH   3  21
HETATM   21  O   UNK     0       7.375  47.297  18.685  0.00  0.00    -0.390 OA
HETATM   22  H   UNK     0       7.817  46.675  18.082  0.00  0.00     0.210 HD
ENDBRANCH   3  21
BRANCH   4  23
HETATM   23  O   UNK     0       3.772  45.751  21.449  0.00  0.00    -0.388 OA
HETATM   24  H   UNK     0       3.485  44.896  21.084  0.00  0.00     0.210 HD
ENDBRANCH   4  23
BRANCH   2  25
HETATM   25  O   UNK     0       5.338  48.090  20.576  0.00  0.00    -0.390 OA
HETATM   26  H   UNK     0       4.448  48.121  20.968  0.00  0.00     0.210 HD
ENDBRANCH   2  25
TORSDOF 10
ENDMDL
MODEL 5
REMARK VINA RESULT:      -6.4      2.001      3.719
REMARK  10 active torsions:
REMARK  status: ('A' for Active; 'I' for Inactive)
REMARK    1  A    between atoms: O_2  and  C_12 
REMARK    2  A    between atoms: O_2  and  C_14 
REMARK    3  A    between atoms: O_3  and  C_8 
REMARK    4  A    between atoms: O_4  and  C_9 
REMARK    5  A    between atoms: O_5  and  C_10 
REMARK    6  A    between atoms: O_6  and  C_13 
REMARK    7  A    between atoms: O_7  and  C_21 
REMARK    8  A    between atoms: C_11  and  C_13 
REMARK    9  A    between atoms: C_14  and  C_15 
REMARK   10  A    between atoms: C_15  and  C_16 
ROOT
HETATM    1  O   UNK     0       8.124  44.136  20.937  0.00  0.00    -0.348 OA
HETATM    2  C   UNK     0       9.495  44.622  18.460  0.00  0.00     0.183 C 
HETATM    3  C   UNK     0      10.151  43.891  19.632  0.00  0.00     0.180 C 
HETATM    4  C   UNK     0       8.332  45.494  18.934  0.00  0.00     0.204 C 
HETATM    5  C   UNK     0       9.099  43.191  20.494  0.00  0.00     0.179 C 
HETATM    6  C   UNK     0       7.394  44.717  19.858  0.00  0.00     0.291 C 
ENDROOT
BRANCH   5   7
HETATM    7  C   UNK     0       9.716  42.553  21.734  0.00  0.00     0.198 C 
BRANCH   7   8
HETATM    8  O   UNK     0      10.916  43.237  22.043  0.00  0.00    -0.398 OA
HETATM    9  H   UNK     0      11.648  42.753  21.623  0.00  0.00     0.209 HD
ENDBRANCH   7   8
ENDBRANCH   5   7
BRANCH   6  10
HETATM   10  O   UNK     0       6.424  45.630  20.368  0.00  0.00    -0.358 OA
BRANCH  10  11
HETATM   11  C   UNK     0       5.109  45.107  20.248  0.00  0.00     0.175 C 
BRANCH  11  12
HETATM   12  C   UNK     0       4.279  45.517  21.459  0.00  0.00     0.065 C 
BRANCH  12  13
HETATM   13  C   UNK     0       3.741  44.327  22.215  0.00  0.00    -0.056 A 
HETATM   14  C   UNK     0       4.224  44.052  23.483  0.00  0.00     0.010 A 
HETATM   15  C   UNK     0       3.726  42.953  24.182  0.00  0.00     0.037 A 
HETATM   16  C   UNK     0       2.750  42.142  23.601  0.00  0.00     0.065 A 
HETATM   17  C   UNK     0       2.273  42.431  22.324  0.00  0.00     0.037 A 
HETATM   18  C   UNK     0       2.771  43.531  21.626  0.00  0.00     0.010 A 
BRANCH  16  19
HETATM   19  O   UNK     0       2.265  41.068  24.284  0.00  0.00    -0.361 OA
HETATM   20  H   UNK     0       3.008  40.590  24.689  0.00  0.00     0.217 HD
ENDBRANCH  16  19
ENDBRANCH  12  13
ENDBRANCH  11  12
ENDBRANCH  10  11
ENDBRANCH   6  10
BRANCH   3  21
HETATM   21  O   UNK     0      11.068  42.922  19.129  0.00  0.00    -0.390 OA
HETATM   22  H   UNK     0      11.716  43.384  18.570  0.00  0.00     0.210 HD
ENDBRANCH   3  21
BRANCH   4  23
HETATM   23  O   UNK     0       7.580  45.936  17.804  0.00  0.00    -0.388 OA
HETATM   24  H   UNK     0       6.674  45.592  17.890  0.00  0.00     0.210 HD
ENDBRANCH   4  23
BRANCH   2  25
HETATM   25  O   UNK     0      10.485  45.444  17.842  0.00  0.00    -0.390 OA
HETATM   26  H   UNK     0      10.057  46.283  17.600  0.00  0.00     0.210 HD
ENDBRANCH   2  25
TORSDOF 10
ENDMDL
MODEL 6
REMARK VINA RESULT:      -6.4     17.583     18.893
REMARK  10 active torsions:
REMARK  status: ('A' for Active; 'I' for Inactive)
REMARK    1  A    between atoms: O_2  and  C_12 
REMARK    2  A    between atoms: O_2  and  C_14 
REMARK    3  A    between atoms: O_3  and  C_8 
REMARK    4  A    between atoms: O_4  and  C_9 
REMARK    5  A    between atoms: O_5  and  C_10 
REMARK    6  A    between atoms: O_6  and  C_13 
REMARK    7  A    between atoms: O_7  and  C_21 
REMARK    8  A    between atoms: C_11  and  C_13 
REMARK    9  A    between atoms: C_14  and  C_15 
REMARK   10  A    between atoms: C_15  and  C_16 
ROOT
HETATM    1  O   UNK     0      13.246  52.676  35.375  0.00  0.00    -0.348 OA
HETATM    2  C   UNK     0      12.193  53.893  32.996  0.00  0.00     0.183 C 
HETATM    3  C   UNK     0      12.009  54.509  34.383  0.00  0.00     0.180 C 
HETATM    4  C   UNK     0      12.474  52.393  33.090  0.00  0.00     0.204 C 
HETATM    5  C   UNK     0      13.151  54.100  35.315  0.00  0.00     0.179 C 
HETATM    6  C   UNK     0      13.570  52.095  34.113  0.00  0.00     0.291 C 
ENDROOT
BRANCH   5   7
HETATM    7  C   UNK     0      12.930  54.606  36.737  0.00  0.00     0.198 C 
BRANCH   7   8
HETATM    8  O   UNK     0      13.562  55.865  36.872  0.00  0.00    -0.398 OA
HETATM    9  H   UNK     0      13.973  55.894  37.753  0.00  0.00     0.209 HD
ENDBRANCH   7   8
ENDBRANCH   5   7
BRANCH   6  10
HETATM   10  O   UNK     0      13.673  50.679  34.247  0.00  0.00    -0.358 OA
BRANCH  10  11
HETATM   11  C   UNK     0      12.836  50.197  35.288  0.00  0.00     0.175 C 
BRANCH  11  12
HETATM   12  C   UNK     0      13.673  49.438  36.312  0.00  0.00     0.065 C 
BRANCH  12  13
HETATM   13  C   UNK     0      13.166  49.627  37.721  0.00  0.00    -0.056 A 
HETATM   14  C   UNK     0      12.751  50.883  38.131  0.00  0.00     0.010 A 
HETATM   15  C   UNK     0      12.283  51.057  39.433  0.00  0.00     0.037 A 
HETATM   16  C   UNK     0      12.236  49.972  40.308  0.00  0.00     0.065 A 
HETATM   17  C   UNK     0      12.657  48.713  39.881  0.00  0.00     0.037 A 
HETATM   18  C   UNK     0      13.125  48.539  38.579  0.00  0.00     0.010 A 
BRANCH  16  19
HETATM   19  O   UNK     0      11.779  50.142  41.579  0.00  0.00    -0.361 OA
HETATM   20  H   UNK     0      10.821  50.312  41.549  0.00  0.00     0.217 HD
ENDBRANCH  16  19
ENDBRANCH  12  13
ENDBRANCH  11  12
ENDBRANCH  10  11
ENDBRANCH   6  10
BRANCH   3  21
HETATM   21  O   UNK     0      11.981  55.930  34.268  0.00  0.00    -0.390 OA
HETATM   22  H   UNK     0      12.769  56.283  34.713  0.00  0.00     0.210 HD
ENDBRANCH   3  21
BRANCH   4  23
HETATM   23  O   UNK     0      12.908  51.912  31.818  0.00  0.00    -0.388 OA
HETATM   24  H   UNK     0      13.875  52.012  31.771  0.00  0.00     0.210 HD
ENDBRANCH   4  23
BRANCH   2  25
HETATM   25  O   UNK     0      10.991  54.106  32.255  0.00  0.00    -0.390 OA
HETATM   26  H   UNK     0      11.058  54.981  31.836  0.00  0.00     0.210 HD
ENDBRANCH   2  25
TORSDOF 10
ENDMDL
MODEL 7
REMARK VINA RESULT:      -6.4      2.385      3.065
REMARK  10 active torsions:
REMARK  status: ('A' for Active; 'I' for Inactive)
REMARK    1  A    between atoms: O_2  and  C_12 
REMARK    2  A    between atoms: O_2  and  C_14 
REMARK    3  A    between atoms: O_3  and  C_8 
REMARK    4  A    between atoms: O_4  and  C_9 
REMARK    5  A    between atoms: O_5  and  C_10 
REMARK    6  A    between atoms: O_6  and  C_13 
REMARK    7  A    between atoms: O_7  and  C_21 
REMARK    8  A    between atoms: C_11  and  C_13 
REMARK    9  A    between atoms: C_14  and  C_15 
REMARK   10  A    between atoms: C_15  and  C_16 
ROOT
HETATM    1  O   UNK     0       5.530  44.492  20.644  0.00  0.00    -0.348 OA
HETATM    2  C   UNK     0       7.979  45.991  20.635  0.00  0.00     0.183 C 
HETATM    3  C   UNK     0       7.305  45.514  19.348  0.00  0.00     0.180 C 
HETATM    4  C   UNK     0       7.541  45.149  21.834  0.00  0.00     0.204 C 
HETATM    5  C   UNK     0       5.795  45.370  19.548  0.00  0.00     0.179 C 
HETATM    6  C   UNK     0       6.021  44.998  21.883  0.00  0.00     0.291 C 
ENDROOT
BRANCH   5   7
HETATM    7  C   UNK     0       5.115  44.783  18.316  0.00  0.00     0.198 C 
BRANCH   7   8
HETATM    8  O   UNK     0       6.114  44.351  17.411  0.00  0.00    -0.398 OA
HETATM    9  H   UNK     0       6.978  44.516  17.826  0.00  0.00     0.209 HD
ENDBRANCH   7   8
ENDBRANCH   5   7
BRANCH   6  10
HETATM   10  O   UNK     0       5.704  44.089  22.935  0.00  0.00    -0.358 OA
BRANCH  10  11
HETATM   11  C   UNK     0       4.406  44.335  23.456  0.00  0.00     0.175 C 
BRANCH  11  12
HETATM   12  C   UNK     0       4.183  43.488  24.704  0.00  0.00     0.065 C 
BRANCH  12  13
HETATM   13  C   UNK     0       3.278  42.309  24.443  0.00  0.00    -0.056 A 
HETATM   14  C   UNK     0       2.945  41.463  25.488  0.00  0.00     0.010 A 
HETATM   15  C   UNK     0       2.109  40.373  25.247  0.00  0.00     0.037 A 
HETATM   16  C   UNK     0       1.617  40.143  23.961  0.00  0.00     0.065 A 
HETATM   17  C   UNK     0       1.961  41.003  22.919  0.00  0.00     0.037 A 
HETATM   18  C   UNK     0       2.797  42.093  23.161  0.00  0.00     0.010 A 
BRANCH  16  19
HETATM   19  O   UNK     0       0.801  39.079  23.726  0.00  0.00    -0.361 OA
HETATM   20  H   UNK     0       0.679  38.586  24.555  0.00  0.00     0.217 HD
ENDBRANCH  16  19
ENDBRANCH  12  13
ENDBRANCH  11  12
ENDBRANCH  10  11
ENDBRANCH   6  10
BRANCH   3  21
HETATM   21  O   UNK     0       7.554  46.457  18.309  0.00  0.00    -0.390 OA
HETATM   22  H   UNK     0       8.515  46.596  18.253  0.00  0.00     0.210 HD
ENDBRANCH   3  21
BRANCH   4  23
HETATM   23  O   UNK     0       7.967  45.784  23.040  0.00  0.00    -0.388 OA
HETATM   24  H   UNK     0       8.820  46.220  22.867  0.00  0.00     0.210 HD
ENDBRANCH   4  23
BRANCH   2  25
HETATM   25  O   UNK     0       9.392  45.875  20.462  0.00  0.00    -0.390 OA
HETATM   26  H   UNK     0       9.545  45.370  19.645  0.00  0.00     0.210 HD
ENDBRANCH   2  25
TORSDOF 10
ENDMDL
MODEL 8
REMARK VINA RESULT:      -6.3     18.639     19.844
REMARK  10 active torsions:
REMARK  status: ('A' for Active; 'I' for Inactive)
REMARK    1  A    between atoms: O_2  and  C_12 
REMARK    2  A    between atoms: O_2  and  C_14 
REMARK    3  A    between atoms: O_3  and  C_8 
REMARK    4  A    between atoms: O_4  and  C_9 
REMARK    5  A    between atoms: O_5  and  C_10 
REMARK    6  A    between atoms: O_6  and  C_13 
REMARK    7  A    between atoms: O_7  and  C_21 
REMARK    8  A    between atoms: C_11  and  C_13 
REMARK    9  A    between atoms: C_14  and  C_15 
REMARK   10  A    between atoms: C_15  and  C_16 
ROOT
HETATM    1  O   UNK     0      12.029  54.450  35.986  0.00  0.00    -0.348 OA
HETATM    2  C   UNK     0      13.504  52.940  34.038  0.00  0.00     0.183 C 
HETATM    3  C   UNK     0      12.229  53.709  33.688  0.00  0.00     0.180 C 
HETATM    4  C   UNK     0      13.566  52.625  35.534  0.00  0.00     0.204 C 
HETATM    5  C   UNK     0      12.036  54.899  34.630  0.00  0.00     0.179 C 
HETATM    6  C   UNK     0      13.270  53.866  36.376  0.00  0.00     0.291 C 
ENDROOT
BRANCH   5   7
HETATM    7  C   UNK     0      10.713  55.612  34.376  0.00  0.00     0.198 C 
BRANCH   7   8
HETATM    8  O   UNK     0       9.868  54.747  33.640  0.00  0.00    -0.398 OA
HETATM    9  H   UNK     0       9.019  55.204  33.511  0.00  0.00     0.209 HD
ENDBRANCH   7   8
ENDBRANCH   5   7
BRANCH   6  10
HETATM   10  O   UNK     0      13.205  53.463  37.743  0.00  0.00    -0.358 OA
BRANCH  10  11
HETATM   11  C   UNK     0      12.093  52.611  37.978  0.00  0.00     0.175 C 
BRANCH  11  12
HETATM   12  C   UNK     0      11.651  52.730  39.432  0.00  0.00     0.065 C 
BRANCH  12  13
HETATM   13  C   UNK     0      11.769  51.422  40.176  0.00  0.00    -0.056 A 
HETATM   14  C   UNK     0      12.403  50.350  39.570  0.00  0.00     0.010 A 
HETATM   15  C   UNK     0      12.513  49.142  40.258  0.00  0.00     0.037 A 
HETATM   16  C   UNK     0      11.985  49.022  41.544  0.00  0.00     0.065 A 
HETATM   17  C   UNK     0      11.350  50.109  42.142  0.00  0.00     0.037 A 
HETATM   18  C   UNK     0      11.241  51.318  41.453  0.00  0.00     0.010 A 
BRANCH  16  19
HETATM   19  O   UNK     0      12.092  47.842  42.215  0.00  0.00    -0.361 OA
HETATM   20  H   UNK     0      12.815  47.322  41.824  0.00  0.00     0.217 HD
ENDBRANCH  16  19
ENDBRANCH  12  13
ENDBRANCH  11  12
ENDBRANCH  10  11
ENDBRANCH   6  10
BRANCH   3  21
HETATM   21  O   UNK     0      12.319  54.181  32.346  0.00  0.00    -0.390 OA
HETATM   22  H   UNK     0      12.687  53.466  31.799  0.00  0.00     0.210 HD
ENDBRANCH   3  21
BRANCH   4  23
HETATM   23  O   UNK     0      14.874  52.160  35.866  0.00  0.00    -0.388 OA
HETATM   24  H   UNK     0      15.507  52.584  35.261  0.00  0.00     0.210 HD
ENDBRANCH   4  23
BRANCH   2  25
HETATM   25  O   UNK     0      13.502  51.721  33.295  0.00  0.00    -0.390 OA
HETATM   26  H   UNK     0      13.353  51.949  32.362  0.00  0.00     0.210 HD
ENDBRANCH   2  25
TORSDOF 10
ENDMDL
MODEL 9
REMARK VINA RESULT:      -6.1     20.666     22.826
REMARK  10 active torsions:
REMARK  status: ('A' for Active; 'I' for Inactive)
REMARK    1  A    between atoms: O_2  and  C_12 
REMARK    2  A    between atoms: O_2  and  C_14 
REMARK    3  A    between atoms: O_3  and  C_8 
REMARK    4  A    between atoms: O_4  and  C_9 
REMARK    5  A    between atoms: O_5  and  C_10 
REMARK    6  A    between atoms: O_6  and  C_13 
REMARK    7  A    between atoms: O_7  and  C_21 
REMARK    8  A    between atoms: C_11  and  C_13 
REMARK    9  A    between atoms: C_14  and  C_15 
REMARK   10  A    between atoms: C_15  and  C_16 
ROOT
HETATM    1  O   UNK     0      -6.287  55.056  35.739  0.00  0.00    -0.348 OA
HETATM    2  C   UNK     0      -6.420  54.002  33.070  0.00  0.00     0.183 C 
HETATM    3  C   UNK     0      -7.628  54.018  34.008  0.00  0.00     0.180 C 
HETATM    4  C   UNK     0      -5.109  54.075  33.855  0.00  0.00     0.204 C 
HETATM    5  C   UNK     0      -7.516  55.160  35.019  0.00  0.00     0.179 C 
HETATM    6  C   UNK     0      -5.145  55.194  34.895  0.00  0.00     0.291 C 
ENDROOT
BRANCH   5   7
HETATM    7  C   UNK     0      -8.649  55.125  36.039  0.00  0.00     0.198 C 
BRANCH   7   8
HETATM    8  O   UNK     0      -9.768  55.799  35.494  0.00  0.00    -0.398 OA
HETATM    9  H   UNK     0     -10.554  55.254  35.669  0.00  0.00     0.209 HD
ENDBRANCH   7   8
ENDBRANCH   5   7
BRANCH   6  10
HETATM   10  O   UNK     0      -3.955  55.105  35.677  0.00  0.00    -0.358 OA
BRANCH  10  11
HETATM   11  C   UNK     0      -3.798  56.243  36.510  0.00  0.00     0.175 C 
BRANCH  11  12
HETATM   12  C   UNK     0      -3.573  55.800  37.951  0.00  0.00     0.065 C 
BRANCH  12  13
HETATM   13  C   UNK     0      -2.281  56.333  38.521  0.00  0.00    -0.056 A 
HETATM   14  C   UNK     0      -1.852  55.892  39.761  0.00  0.00     0.010 A 
HETATM   15  C   UNK     0      -0.657  56.385  40.287  0.00  0.00     0.037 A 
HETATM   16  C   UNK     0       0.092  57.314  39.564  0.00  0.00     0.065 A 
HETATM   17  C   UNK     0      -0.352  57.749  38.316  0.00  0.00     0.037 A 
HETATM   18  C   UNK     0      -1.547  57.255  37.791  0.00  0.00     0.010 A 
BRANCH  16  19
HETATM   19  O   UNK     0       1.258  57.794  40.078  0.00  0.00    -0.361 OA
HETATM   20  H   UNK     0       1.059  58.317  40.873  0.00  0.00     0.217 HD
ENDBRANCH  16  19
ENDBRANCH  12  13
ENDBRANCH  11  12
ENDBRANCH  10  11
ENDBRANCH   6  10
BRANCH   3  21
HETATM   21  O   UNK     0      -8.817  54.183  33.240  0.00  0.00    -0.390 OA
HETATM   22  H   UNK     0      -8.851  55.104  32.931  0.00  0.00     0.210 HD
ENDBRANCH   3  21
BRANCH   4  23
HETATM   23  O   UNK     0      -4.032  54.334  32.955  0.00  0.00    -0.388 OA
HETATM   24  H   UNK     0      -4.397  54.384  32.055  0.00  0.00     0.210 HD
ENDBRANCH   4  23
BRANCH   2  25
HETATM   25  O   UNK     0      -6.459  52.789  32.319  0.00  0.00    -0.390 OA
HETATM   26  H   UNK     0      -5.582  52.374  32.390  0.00  0.00     0.210 HD
ENDBRANCH   2  25
TORSDOF 10
ENDMDL
