MODEL 1
REMARK VINA RESULT:    -6.916      0.000      0.000
REMARK INTER + INTRA:         -10.442
REMARK INTER:                  -9.764
REMARK INTRA:                  -0.678
REMARK UNBOUND:                -0.494
REMARK  10 active torsions:
REMARK  status: ('A' for Active; 'I' for Inactive)
REMARK    1  A    between atoms: O_2  and  C_12 
REMARK    2  A    between atoms: O_2  and  C_14 
REMARK    3  A    between atoms: O_3  and  C_8 
REMARK    4  A    between atoms: O_4  and  C_9 
REMARK    5  A    between atoms: O_5  and  C_10 
REMARK    6  A    between atoms: O_6  and  C_13 
REMARK    7  A    between atoms: O_7  and  C_21 
REMARK    8  A    between atoms: C_11  and  C_13 
REMARK    9  A    between atoms: C_14  and  C_15 
REMARK   10  A    between atoms: C_15  and  C_16 
ROOT
HETATM    1  O   UNK     0       6.463  44.541  20.826  0.00  0.00    -0.348 OA
HETATM    2  C   UNK     0       8.688  45.949  19.679  0.00  0.00     0.183 C 
HETATM    3  C   UNK     0       7.693  45.156  18.831  0.00  0.00     0.180 C 
HETATM    4  C   UNK     0       8.689  45.462  21.129  0.00  0.00     0.204 C 
HETATM    5  C   UNK     0       6.326  45.091  19.515  0.00  0.00     0.179 C 
HETATM    6  C   UNK     0       7.268  45.352  21.680  0.00  0.00     0.291 C 
ENDROOT
BRANCH   5   7
HETATM    7  C   UNK     0       5.350  44.208  18.746  0.00  0.00     0.198 C 
BRANCH   7   8
HETATM    8  O   UNK     0       4.869  44.932  17.629  0.00  0.00    -0.398 OA
HETATM    9  H   UNK     0       5.632  45.141  17.063  0.00  0.00     0.209 HD
ENDBRANCH   7   8
ENDBRANCH   5   7
BRANCH   6  10
HETATM   10  O   UNK     0       7.344  44.761  22.975  0.00  0.00    -0.358 OA
BRANCH  10  11
HETATM   11  C   UNK     0       6.317  45.247  23.826  0.00  0.00     0.175 C 
BRANCH  11  12
HETATM   12  C   UNK     0       5.566  44.076  24.449  0.00  0.00     0.065 C 
BRANCH  12  13
HETATM   13  C   UNK     0       4.386  43.641  23.614  0.00  0.00    -0.056 A 
HETATM   14  C   UNK     0       3.795  42.413  23.860  0.00  0.00     0.010 A 
HETATM   15  C   UNK     0       2.705  42.011  23.088  0.00  0.00     0.037 A 
HETATM   16  C   UNK     0       2.220  42.845  22.080  0.00  0.00     0.065 A 
HETATM   17  C   UNK     0       2.824  44.079  21.844  0.00  0.00     0.037 A 
HETATM   18  C   UNK     0       3.915  44.480  22.617  0.00  0.00     0.010 A 
BRANCH  16  19
HETATM   19  O   UNK     0       1.156  42.453  21.327  0.00  0.00    -0.361 OA
HETATM   20  H   UNK     0       0.831  43.216  20.819  0.00  0.00     0.217 HD
ENDBRANCH  16  19
ENDBRANCH  12  13
ENDBRANCH  11  12
ENDBRANCH  10  11
ENDBRANCH   6  10
BRANCH   3  21
HETATM   21  O   UNK     0       7.554  45.784  17.559  0.00  0.00    -0.390 OA
HETATM   22  H   UNK     0       8.274  46.430  17.461  0.00  0.00     0.210 HD
ENDBRANCH   3  21
BRANCH   4  23
HETATM   23  O   UNK     0       9.412  46.390  21.939  0.00  0.00    -0.388 OA
HETATM   24  H   UNK     0       8.828  46.678  22.661  0.00  0.00     0.210 HD
ENDBRANCH   4  23
BRANCH   2  25
HETATM   25  O   UNK     0       9.988  45.770  19.116  0.00  0.00    -0.390 OA
HETATM   26  H   UNK     0      10.605  46.325  19.625  0.00  0.00     0.210 HD
ENDBRANCH   2  25
TORSDOF 10
ENDMDL
MODEL 2
REMARK VINA RESULT:    -6.824      1.410      3.119
REMARK INTER + INTRA:         -10.310
REMARK INTER:                  -9.750
REMARK INTRA:                  -0.560
REMARK UNBOUND:                -0.494
REMARK  10 active torsions:
REMARK  status: ('A' for Active; 'I' for Inactive)
REMARK    1  A    between atoms: O_2  and  C_12 
REMARK    2  A    between atoms: O_2  and  C_14 
REMARK    3  A    between atoms: O_3  and  C_8 
REMARK    4  A    between atoms: O_4  and  C_9 
REMARK    5  A    between atoms: O_5  and  C_10 
REMARK    6  A    between atoms: O_6  and  C_13 
REMARK    7  A    between atoms: O_7  and  C_21 
REMARK    8  A    between atoms: C_11  and  C_13 
REMARK    9  A    between atoms: C_14  and  C_15 
REMARK   10  A    between atoms: C_15  and  C_16 
ROOT
HETATM    1  O   UNK     0       7.927  44.788  21.526  0.00  0.00    -0.348 OA
HETATM    2  C   UNK     0       7.925  44.864  18.655  0.00  0.00     0.183 C 
HETATM    3  C   UNK     0       8.942  45.637  19.496  0.00  0.00     0.180 C 
HETATM    4  C   UNK     0       6.668  44.544  19.464  0.00  0.00     0.204 C 
HETATM    5  C   UNK     0       9.171  44.946  20.842  0.00  0.00     0.179 C 
HETATM    6  C   UNK     0       7.020  43.941  20.824  0.00  0.00     0.291 C 
ENDROOT
BRANCH   5   7
HETATM    7  C   UNK     0      10.091  45.760  21.745  0.00  0.00     0.198 C 
BRANCH   7   8
HETATM    8  O   UNK     0      10.098  47.101  21.293  0.00  0.00    -0.398 OA
HETATM    9  H   UNK     0      10.739  47.591  21.836  0.00  0.00     0.209 HD
ENDBRANCH   7   8
ENDBRANCH   5   7
BRANCH   6  10
HETATM   10  O   UNK     0       5.811  43.805  21.569  0.00  0.00    -0.358 OA
BRANCH  10  11
HETATM   11  C   UNK     0       5.306  45.070  21.968  0.00  0.00     0.175 C 
BRANCH  11  12
HETATM   12  C   UNK     0       3.782  45.040  21.965  0.00  0.00     0.065 C 
BRANCH  12  13
HETATM   13  C   UNK     0       3.235  43.633  21.984  0.00  0.00    -0.056 A 
HETATM   14  C   UNK     0       3.271  42.907  23.162  0.00  0.00     0.010 A 
HETATM   15  C   UNK     0       2.766  41.607  23.180  0.00  0.00     0.037 A 
HETATM   16  C   UNK     0       2.232  41.051  22.017  0.00  0.00     0.065 A 
HETATM   17  C   UNK     0       2.201  41.795  20.838  0.00  0.00     0.037 A 
HETATM   18  C   UNK     0       2.707  43.095  20.821  0.00  0.00     0.010 A 
BRANCH  16  19
HETATM   19  O   UNK     0       1.739  39.782  22.035  0.00  0.00    -0.361 OA
HETATM   20  H   UNK     0       1.111  39.677  21.299  0.00  0.00     0.217 HD
ENDBRANCH  16  19
ENDBRANCH  12  13
ENDBRANCH  11  12
ENDBRANCH  10  11
ENDBRANCH   6  10
BRANCH   3  21
HETATM   21  O   UNK     0      10.178  45.712  18.789  0.00  0.00    -0.390 OA
HETATM   22  H   UNK     0      10.686  44.907  18.985  0.00  0.00     0.210 HD
ENDBRANCH   3  21
BRANCH   4  23
HETATM   23  O   UNK     0       5.872  43.599  18.748  0.00  0.00    -0.388 OA
HETATM   24  H   UNK     0       5.036  43.482  19.231  0.00  0.00     0.210 HD
ENDBRANCH   4  23
BRANCH   2  25
HETATM   25  O   UNK     0       7.575  45.674  17.532  0.00  0.00    -0.390 OA
HETATM   26  H   UNK     0       8.388  45.831  17.021  0.00  0.00     0.210 HD
ENDBRANCH   2  25
TORSDOF 10
ENDMDL
MODEL 3
REMARK VINA RESULT:    -6.818      1.800      3.581
REMARK INTER + INTRA:         -10.301
REMARK INTER:                  -9.628
REMARK INTRA:                  -0.673
REMARK UNBOUND:                -0.494
REMARK  10 active torsions:
REMARK  status: ('A' for Active; 'I' for Inactive)
REMARK    1  A    between atoms: O_2  and  C_12 
REMARK    2  A    between atoms: O_2  and  C_14 
REMARK    3  A    between atoms: O_3  and  C_8 
REMARK    4  A    between atoms: O_4  and  C_9 
REMARK    5  A    between atoms: O_5  and  C_10 
REMARK    6  A    between atoms: O_6  and  C_13 
REMARK    7  A    between atoms: O_7  and  C_21 
REMARK    8  A    between atoms: C_11  and  C_13 
REMARK    9  A    between atoms: C_14  and  C_15 
REMARK   10  A    between atoms: C_15  and  C_16 
ROOT
HETATM    1  O   UNK     0       6.653  44.153  21.099  0.00  0.00    -0.348 OA
HETATM    2  C   UNK     0       7.583  46.005  19.111  0.00  0.00     0.183 C 
HETATM    3  C   UNK     0       7.946  46.138  20.590  0.00  0.00     0.180 C 
HETATM    4  C   UNK     0       6.308  45.181  18.927  0.00  0.00     0.204 C 
HETATM    5  C   UNK     0       7.927  44.772  21.279  0.00  0.00     0.179 C 
HETATM    6  C   UNK     0       6.364  43.881  19.729  0.00  0.00     0.291 C 
ENDROOT
BRANCH   5   7
HETATM    7  C   UNK     0       8.171  44.893  22.779  0.00  0.00     0.198 C 
BRANCH   7   8
HETATM    8  O   UNK     0       7.070  45.562  23.364  0.00  0.00    -0.398 OA
HETATM    9  H   UNK     0       6.572  44.910  23.886  0.00  0.00     0.209 HD
ENDBRANCH   7   8
ENDBRANCH   5   7
BRANCH   6  10
HETATM   10  O   UNK     0       5.093  43.243  19.622  0.00  0.00    -0.358 OA
BRANCH  10  11
HETATM   11  C   UNK     0       4.182  43.739  20.592  0.00  0.00     0.175 C 
BRANCH  11  12
HETATM   12  C   UNK     0       3.308  42.602  21.107  0.00  0.00     0.065 C 
BRANCH  12  13
HETATM   13  C   UNK     0       3.325  42.502  22.613  0.00  0.00    -0.056 A 
HETATM   14  C   UNK     0       2.615  41.489  23.235  0.00  0.00     0.010 A 
HETATM   15  C   UNK     0       2.631  41.396  24.626  0.00  0.00     0.037 A 
HETATM   16  C   UNK     0       3.357  42.321  25.378  0.00  0.00     0.065 A 
HETATM   17  C   UNK     0       4.068  43.336  24.738  0.00  0.00     0.037 A 
HETATM   18  C   UNK     0       4.051  43.427  23.346  0.00  0.00     0.010 A 
BRANCH  16  19
HETATM   19  O   UNK     0       3.373  42.230  26.736  0.00  0.00    -0.361 OA
HETATM   20  H   UNK     0       2.496  41.942  27.043  0.00  0.00     0.217 HD
ENDBRANCH  16  19
ENDBRANCH  12  13
ENDBRANCH  11  12
ENDBRANCH  10  11
ENDBRANCH   6  10
BRANCH   3  21
HETATM   21  O   UNK     0       9.248  46.706  20.706  0.00  0.00    -0.390 OA
HETATM   22  H   UNK     0       9.175  47.521  21.230  0.00  0.00     0.210 HD
ENDBRANCH   3  21
BRANCH   4  23
HETATM   23  O   UNK     0       6.154  44.848  17.547  0.00  0.00    -0.388 OA
HETATM   24  H   UNK     0       7.027  44.912  17.122  0.00  0.00     0.210 HD
ENDBRANCH   4  23
BRANCH   2  25
HETATM   25  O   UNK     0       7.381  47.317  18.585  0.00  0.00    -0.390 OA
HETATM   26  H   UNK     0       7.022  47.219  17.687  0.00  0.00     0.210 HD
ENDBRANCH   2  25
TORSDOF 10
ENDMDL
MODEL 4
REMARK VINA RESULT:    -6.700      1.819      3.332
REMARK INTER + INTRA:         -10.132
REMARK INTER:                  -9.509
REMARK INTRA:                  -0.622
REMARK UNBOUND:                -0.494
REMARK  10 active torsions:
REMARK  status: ('A' for Active; 'I' for Inactive)
REMARK    1  A    between atoms: O_2  and  C_12 
REMARK    2  A    between atoms: O_2  and  C_14 
REMARK    3  A    between atoms: O_3  and  C_8 
REMARK    4  A    between atoms: O_4  and  C_9 
REMARK    5  A    between atoms: O_5  and  C_10 
REMARK    6  A    between atoms: O_6  and  C_13 
REMARK    7  A    between atoms: O_7  and  C_21 
REMARK    8  A    between atoms: C_11  and  C_13 
REMARK    9  A    between atoms: C_14  and  C_15 
REMARK   10  A    between atoms: C_15  and  C_16 
ROOT
HETATM    1  O   UNK     0       8.099  44.108  21.007  0.00  0.00    -0.348 OA
HETATM    2  C   UNK     0       9.401  44.598  18.495  0.00  0.00     0.183 C 
HETATM    3  C   UNK     0      10.082  43.847  19.639  0.00  0.00     0.180 C 
HETATM    4  C   UNK     0       8.265  45.482  19.012  0.00  0.00     0.204 C 
HETATM    5  C   UNK     0       9.046  43.153  20.526  0.00  0.00     0.179 C 
HETATM    6  C   UNK     0       7.345  44.709  19.956  0.00  0.00     0.291 C 
ENDROOT
BRANCH   5   7
HETATM    7  C   UNK     0       9.692  42.495  21.740  0.00  0.00     0.198 C 
BRANCH   7   8
HETATM    8  O   UNK     0      10.893  43.181  22.041  0.00  0.00    -0.398 OA
HETATM    9  H   UNK     0      10.810  43.539  22.941  0.00  0.00     0.209 HD
ENDBRANCH   7   8
ENDBRANCH   5   7
BRANCH   6  10
HETATM   10  O   UNK     0       6.404  45.631  20.504  0.00  0.00    -0.358 OA
BRANCH  10  11
HETATM   11  C   UNK     0       5.075  45.152  20.371  0.00  0.00     0.175 C 
BRANCH  11  12
HETATM   12  C   UNK     0       4.329  45.328  21.689  0.00  0.00     0.065 C 
BRANCH  12  13
HETATM   13  C   UNK     0       3.582  44.081  22.097  0.00  0.00    -0.056 A 
HETATM   14  C   UNK     0       2.630  43.549  21.243  0.00  0.00     0.010 A 
HETATM   15  C   UNK     0       1.941  42.397  21.620  0.00  0.00     0.037 A 
HETATM   16  C   UNK     0       2.213  41.792  22.848  0.00  0.00     0.065 A 
HETATM   17  C   UNK     0       3.174  42.338  23.697  0.00  0.00     0.037 A 
HETATM   18  C   UNK     0       3.864  43.491  23.319  0.00  0.00     0.010 A 
BRANCH  16  19
HETATM   19  O   UNK     0       1.540  40.667  23.216  0.00  0.00    -0.361 OA
HETATM   20  H   UNK     0       1.160  40.253  22.421  0.00  0.00     0.217 HD
ENDBRANCH  16  19
ENDBRANCH  12  13
ENDBRANCH  11  12
ENDBRANCH  10  11
ENDBRANCH   6  10
BRANCH   3  21
HETATM   21  O   UNK     0      10.969  42.870  19.099  0.00  0.00    -0.390 OA
HETATM   22  H   UNK     0      11.586  42.603  19.802  0.00  0.00     0.210 HD
ENDBRANCH   3  21
BRANCH   4  23
HETATM   23  O   UNK     0       7.487  45.946  17.909  0.00  0.00    -0.388 OA
HETATM   24  H   UNK     0       7.934  45.675  17.089  0.00  0.00     0.210 HD
ENDBRANCH   4  23
BRANCH   2  25
HETATM   25  O   UNK     0      10.384  45.413  17.855  0.00  0.00    -0.390 OA
HETATM   26  H   UNK     0       9.914  46.125  17.388  0.00  0.00     0.210 HD
ENDBRANCH   2  25
TORSDOF 10
ENDMDL
MODEL 5
REMARK VINA RESULT:    -6.696      1.601      3.248
REMARK INTER + INTRA:         -10.126
REMARK INTER:                  -9.575
REMARK INTRA:                  -0.552
REMARK UNBOUND:                -0.494
REMARK  10 active torsions:
REMARK  status: ('A' for Active; 'I' for Inactive)
REMARK    1  A    between atoms: O_2  and  C_12 
REMARK    2  A    between atoms: O_2  and  C_14 
REMARK    3  A    between atoms: O_3  and  C_8 
REMARK    4  A    between atoms: O_4  and  C_9 
REMARK    5  A    between atoms: O_5  and  C_10 
REMARK    6  A    between atoms: O_6  and  C_13 
REMARK    7  A    between atoms: O_7  and  C_21 
REMARK    8  A    between atoms: C_11  and  C_13 
REMARK    9  A    between atoms: C_14  and  C_15 
REMARK   10  A    between atoms: C_15  and  C_16 
ROOT
HETATM    1  O   UNK     0       7.327  44.489  21.141  0.00  0.00    -0.348 OA
HETATM    2  C   UNK     0       5.879  44.452  18.661  0.00  0.00     0.183 C 
HETATM    3  C   UNK     0       7.053  45.399  18.911  0.00  0.00     0.180 C 
HETATM    4  C   UNK     0       5.258  43.981  19.976  0.00  0.00     0.204 C 
HETATM    5  C   UNK     0       8.023  44.803  19.933  0.00  0.00     0.179 C 
HETATM    6  C   UNK     0       6.326  43.490  20.952  0.00  0.00     0.291 C 
ENDROOT
BRANCH   5   7
HETATM    7  C   UNK     0       9.140  45.778  20.288  0.00  0.00     0.198 C 
BRANCH   7   8
HETATM    8  O   UNK     0       8.655  47.098  20.127  0.00  0.00    -0.398 OA
HETATM    9  H   UNK     0       8.876  47.594  20.933  0.00  0.00     0.209 HD
ENDBRANCH   7   8
ENDBRANCH   5   7
BRANCH   6  10
HETATM   10  O   UNK     0       5.688  43.206  22.196  0.00  0.00    -0.358 OA
BRANCH  10  11
HETATM   11  C   UNK     0       5.015  44.349  22.704  0.00  0.00     0.175 C 
BRANCH  11  12
HETATM   12  C   UNK     0       4.320  43.997  24.014  0.00  0.00     0.065 C 
BRANCH  12  13
HETATM   13  C   UNK     0       3.432  42.784  23.884  0.00  0.00    -0.056 A 
HETATM   14  C   UNK     0       2.710  42.591  22.718  0.00  0.00     0.010 A 
HETATM   15  C   UNK     0       1.890  41.469  22.598  0.00  0.00     0.037 A 
HETATM   16  C   UNK     0       1.802  40.555  23.649  0.00  0.00     0.065 A 
HETATM   17  C   UNK     0       2.534  40.762  24.817  0.00  0.00     0.037 A 
HETATM   18  C   UNK     0       3.355  41.884  24.936  0.00  0.00     0.010 A 
BRANCH  16  19
HETATM   19  O   UNK     0       1.001  39.460  23.532  0.00  0.00    -0.361 OA
HETATM   20  H   UNK     0       1.450  38.799  22.977  0.00  0.00     0.217 HD
ENDBRANCH  16  19
ENDBRANCH  12  13
ENDBRANCH  11  12
ENDBRANCH  10  11
ENDBRANCH   6  10
BRANCH   3  21
HETATM   21  O   UNK     0       7.743  45.628  17.686  0.00  0.00    -0.390 OA
HETATM   22  H   UNK     0       8.227  44.817  17.456  0.00  0.00     0.210 HD
ENDBRANCH   3  21
BRANCH   4  23
HETATM   23  O   UNK     0       4.360  42.901  19.716  0.00  0.00    -0.388 OA
HETATM   24  H   UNK     0       4.255  42.392  20.539  0.00  0.00     0.210 HD
ENDBRANCH   4  23
BRANCH   2  25
HETATM   25  O   UNK     0       4.899  45.155  17.897  0.00  0.00    -0.390 OA
HETATM   26  H   UNK     0       5.336  45.932  17.507  0.00  0.00     0.210 HD
ENDBRANCH   2  25
TORSDOF 10
ENDMDL
MODEL 6
REMARK VINA RESULT:    -6.584      1.284      1.749
REMARK INTER + INTRA:          -9.965
REMARK INTER:                  -9.267
REMARK INTRA:                  -0.698
REMARK UNBOUND:                -0.494
REMARK  10 active torsions:
REMARK  status: ('A' for Active; 'I' for Inactive)
REMARK    1  A    between atoms: O_2  and  C_12 
REMARK    2  A    between atoms: O_2  and  C_14 
REMARK    3  A    between atoms: O_3  and  C_8 
REMARK    4  A    between atoms: O_4  and  C_9 
REMARK    5  A    between atoms: O_5  and  C_10 
REMARK    6  A    between atoms: O_6  and  C_13 
REMARK    7  A    between atoms: O_7  and  C_21 
REMARK    8  A    between atoms: C_11  and  C_13 
REMARK    9  A    between atoms: C_14  and  C_15 
REMARK   10  A    between atoms: C_15  and  C_16 
ROOT
HETATM    1  O   UNK     0       6.108  44.373  20.791  0.00  0.00    -0.348 OA
HETATM    2  C   UNK     0       8.361  46.151  20.692  0.00  0.00     0.183 C 
HETATM    3  C   UNK     0       7.514  45.830  19.460  0.00  0.00     0.180 C 
HETATM    4  C   UNK     0       8.229  45.059  21.754  0.00  0.00     0.204 C 
HETATM    5  C   UNK     0       6.085  45.460  19.864  0.00  0.00     0.179 C 
HETATM    6  C   UNK     0       6.764  44.708  22.012  0.00  0.00     0.291 C 
ENDROOT
BRANCH   5   7
HETATM    7  C   UNK     0       5.254  45.022  18.664  0.00  0.00     0.198 C 
BRANCH   7   8
HETATM    8  O   UNK     0       6.124  44.799  17.569  0.00  0.00    -0.398 OA
HETATM    9  H   UNK     0       6.351  43.853  17.562  0.00  0.00     0.209 HD
ENDBRANCH   7   8
ENDBRANCH   5   7
BRANCH   6  10
HETATM   10  O   UNK     0       6.730  43.592  22.900  0.00  0.00    -0.358 OA
BRANCH  10  11
HETATM   11  C   UNK     0       6.086  43.923  24.121  0.00  0.00     0.175 C 
BRANCH  11  12
HETATM   12  C   UNK     0       4.644  44.335  23.849  0.00  0.00     0.065 C 
BRANCH  12  13
HETATM   13  C   UNK     0       3.720  43.147  23.735  0.00  0.00    -0.056 A 
HETATM   14  C   UNK     0       3.107  42.877  22.523  0.00  0.00     0.010 A 
HETATM   15  C   UNK     0       2.253  41.779  22.417  0.00  0.00     0.037 A 
HETATM   16  C   UNK     0       2.023  40.966  23.527  0.00  0.00     0.065 A 
HETATM   17  C   UNK     0       2.646  41.250  24.741  0.00  0.00     0.037 A 
HETATM   18  C   UNK     0       3.501  42.348  24.846  0.00  0.00     0.010 A 
BRANCH  16  19
HETATM   19  O   UNK     0       1.189  39.895  23.424  0.00  0.00    -0.361 OA
HETATM   20  H   UNK     0       1.595  39.236  22.835  0.00  0.00     0.217 HD
ENDBRANCH  16  19
ENDBRANCH  12  13
ENDBRANCH  11  12
ENDBRANCH  10  11
ENDBRANCH   6  10
BRANCH   3  21
HETATM   21  O   UNK     0       7.480  46.968  18.602  0.00  0.00    -0.390 OA
HETATM   22  H   UNK     0       8.130  46.829  17.892  0.00  0.00     0.210 HD
ENDBRANCH   3  21
BRANCH   4  23
HETATM   23  O   UNK     0       8.802  45.517  22.979  0.00  0.00    -0.388 OA
HETATM   24  H   UNK     0       9.695  45.852  22.787  0.00  0.00     0.210 HD
ENDBRANCH   4  23
BRANCH   2  25
HETATM   25  O   UNK     0       9.724  46.250  20.278  0.00  0.00    -0.390 OA
HETATM   26  H   UNK     0       9.934  47.195  20.191  0.00  0.00     0.210 HD
ENDBRANCH   2  25
TORSDOF 10
ENDMDL
MODEL 7
REMARK VINA RESULT:    -6.486     16.505     19.096
REMARK INTER + INTRA:          -9.824
REMARK INTER:                  -9.266
REMARK INTRA:                  -0.558
REMARK UNBOUND:                -0.494
REMARK  10 active torsions:
REMARK  status: ('A' for Active; 'I' for Inactive)
REMARK    1  A    between atoms: O_2  and  C_12 
REMARK    2  A    between atoms: O_2  and  C_14 
REMARK    3  A    between atoms: O_3  and  C_8 
REMARK    4  A    between atoms: O_4  and  C_9 
REMARK    5  A    between atoms: O_5  and  C_10 
REMARK    6  A    between atoms: O_6  and  C_13 
REMARK    7  A    between atoms: O_7  and  C_21 
REMARK    8  A    between atoms: C_11  and  C_13 
REMARK    9  A    between atoms: C_14  and  C_15 
REMARK   10  A    between atoms: C_15  and  C_16 
ROOT
HETATM    1  O   UNK     0      13.368  53.021  36.121  0.00  0.00    -0.348 OA
HETATM    2  C   UNK     0      12.441  53.212  33.409  0.00  0.00     0.183 C 
HETATM    3  C   UNK     0      12.082  54.248  34.474  0.00  0.00     0.180 C 
HETATM    4  C   UNK     0      12.835  51.878  34.045  0.00  0.00     0.204 C 
HETATM    5  C   UNK     0      13.164  54.316  35.553  0.00  0.00     0.179 C 
HETATM    6  C   UNK     0      13.853  52.076  35.168  0.00  0.00     0.291 C 
ENDROOT
BRANCH   5   7
HETATM    7  C   UNK     0      12.772  55.257  36.688  0.00  0.00     0.198 C 
BRANCH   7   8
HETATM    8  O   UNK     0      13.925  55.962  37.108  0.00  0.00    -0.398 OA
HETATM    9  H   UNK     0      14.343  55.447  37.818  0.00  0.00     0.209 HD
ENDBRANCH   7   8
ENDBRANCH   5   7
BRANCH   6  10
HETATM   10  O   UNK     0      14.058  50.815  35.802  0.00  0.00    -0.358 OA
BRANCH  10  11
HETATM   11  C   UNK     0      12.948  50.456  36.611  0.00  0.00     0.175 C 
BRANCH  11  12
HETATM   12  C   UNK     0      13.405  49.530  37.732  0.00  0.00     0.065 C 
BRANCH  12  13
HETATM   13  C   UNK     0      12.753  49.861  39.052  0.00  0.00    -0.056 A 
HETATM   14  C   UNK     0      12.624  48.873  40.013  0.00  0.00     0.010 A 
HETATM   15  C   UNK     0      12.021  49.179  41.233  0.00  0.00     0.037 A 
HETATM   16  C   UNK     0      11.553  50.472  41.475  0.00  0.00     0.065 A 
HETATM   17  C   UNK     0      11.690  51.457  40.498  0.00  0.00     0.037 A 
HETATM   18  C   UNK     0      12.294  51.150  39.278  0.00  0.00     0.010 A 
BRANCH  16  19
HETATM   19  O   UNK     0      10.965  50.770  42.665  0.00  0.00    -0.361 OA
HETATM   20  H   UNK     0      11.657  50.882  43.340  0.00  0.00     0.217 HD
ENDBRANCH  16  19
ENDBRANCH  12  13
ENDBRANCH  11  12
ENDBRANCH  10  11
ENDBRANCH   6  10
BRANCH   3  21
HETATM   21  O   UNK     0      11.948  55.527  33.860  0.00  0.00    -0.390 OA
HETATM   22  H   UNK     0      11.190  55.979  34.268  0.00  0.00     0.210 HD
ENDBRANCH   3  21
BRANCH   4  23
HETATM   23  O   UNK     0      13.421  51.035  33.054  0.00  0.00    -0.388 OA
HETATM   24  H   UNK     0      12.761  50.888  32.354  0.00  0.00     0.210 HD
ENDBRANCH   4  23
BRANCH   2  25
HETATM   25  O   UNK     0      11.299  53.021  32.574  0.00  0.00    -0.390 OA
HETATM   26  H   UNK     0      11.491  53.440  31.717  0.00  0.00     0.210 HD
ENDBRANCH   2  25
TORSDOF 10
ENDMDL
MODEL 8
REMARK VINA RESULT:    -6.443      2.897      7.307
REMARK INTER + INTRA:          -9.762
REMARK INTER:                  -9.296
REMARK INTRA:                  -0.466
REMARK UNBOUND:                -0.494
REMARK  10 active torsions:
REMARK  status: ('A' for Active; 'I' for Inactive)
REMARK    1  A    between atoms: O_2  and  C_12 
REMARK    2  A    between atoms: O_2  and  C_14 
REMARK    3  A    between atoms: O_3  and  C_8 
REMARK    4  A    between atoms: O_4  and  C_9 
REMARK    5  A    between atoms: O_5  and  C_10 
REMARK    6  A    between atoms: O_6  and  C_13 
REMARK    7  A    between atoms: O_7  and  C_21 
REMARK    8  A    between atoms: C_11  and  C_13 
REMARK    9  A    between atoms: C_14  and  C_15 
REMARK   10  A    between atoms: C_15  and  C_16 
ROOT
HETATM    1  O   UNK     0       7.093  45.464  21.245  0.00  0.00    -0.348 OA
HETATM    2  C   UNK     0       4.615  44.322  20.346  0.00  0.00     0.183 C 
HETATM    3  C   UNK     0       5.227  43.987  21.706  0.00  0.00     0.180 C 
HETATM    4  C   UNK     0       5.677  44.839  19.374  0.00  0.00     0.204 C 
HETATM    5  C   UNK     0       6.092  45.143  22.213  0.00  0.00     0.179 C 
HETATM    6  C   UNK     0       6.537  45.927  20.016  0.00  0.00     0.291 C 
ENDROOT
BRANCH   5   7
HETATM    7  C   UNK     0       6.807  44.788  23.511  0.00  0.00     0.198 C 
BRANCH   7   8
HETATM    8  O   UNK     0       6.910  45.955  24.305  0.00  0.00    -0.398 OA
HETATM    9  H   UNK     0       7.841  46.052  24.567  0.00  0.00     0.209 HD
ENDBRANCH   7   8
ENDBRANCH   5   7
BRANCH   6  10
HETATM   10  O   UNK     0       7.586  46.252  19.105  0.00  0.00    -0.358 OA
BRANCH  10  11
HETATM   11  C   UNK     0       8.808  45.634  19.482  0.00  0.00     0.175 C 
BRANCH  11  12
HETATM   12  C   UNK     0       9.373  44.847  18.306  0.00  0.00     0.065 C 
BRANCH  12  13
HETATM   13  C   UNK     0      10.786  44.379  18.554  0.00  0.00    -0.056 A 
HETATM   14  C   UNK     0      11.039  43.508  19.600  0.00  0.00     0.010 A 
HETATM   15  C   UNK     0      12.345  43.075  19.829  0.00  0.00     0.037 A 
HETATM   16  C   UNK     0      13.382  43.522  19.009  0.00  0.00     0.065 A 
HETATM   17  C   UNK     0      13.112  44.399  17.959  0.00  0.00     0.037 A 
HETATM   18  C   UNK     0      11.805  44.831  17.730  0.00  0.00     0.010 A 
BRANCH  16  19
HETATM   19  O   UNK     0      14.656  43.100  19.233  0.00  0.00    -0.361 OA
HETATM   20  H   UNK     0      14.663  42.516  20.011  0.00  0.00     0.217 HD
ENDBRANCH  16  19
ENDBRANCH  12  13
ENDBRANCH  11  12
ENDBRANCH  10  11
ENDBRANCH   6  10
BRANCH   3  21
HETATM   21  O   UNK     0       4.183  43.735  22.643  0.00  0.00    -0.390 OA
HETATM   22  H   UNK     0       3.707  42.938  22.354  0.00  0.00     0.210 HD
ENDBRANCH   3  21
BRANCH   4  23
HETATM   23  O   UNK     0       5.038  45.394  18.224  0.00  0.00    -0.388 OA
HETATM   24  H   UNK     0       5.381  44.936  17.438  0.00  0.00     0.210 HD
ENDBRANCH   4  23
BRANCH   2  25
HETATM   25  O   UNK     0       4.028  43.132  19.820  0.00  0.00    -0.390 OA
HETATM   26  H   UNK     0       4.641  42.399  20.004  0.00  0.00     0.210 HD
ENDBRANCH   2  25
TORSDOF 10
ENDMDL
MODEL 9
REMARK VINA RESULT:    -6.431     16.558     18.955
REMARK INTER + INTRA:          -9.744
REMARK INTER:                  -9.250
REMARK INTRA:                  -0.494
REMARK UNBOUND:                -0.494
REMARK  10 active torsions:
REMARK  status: ('A' for Active; 'I' for Inactive)
REMARK    1  A    between atoms: O_2  and  C_12 
REMARK    2  A    between atoms: O_2  and  C_14 
REMARK    3  A    between atoms: O_3  and  C_8 
REMARK    4  A    between atoms: O_4  and  C_9 
REMARK    5  A    between atoms: O_5  and  C_10 
REMARK    6  A    between atoms: O_6  and  C_13 
REMARK    7  A    between atoms: O_7  and  C_21 
REMARK    8  A    between atoms: C_11  and  C_13 
REMARK    9  A    between atoms: C_14  and  C_15 
REMARK   10  A    between atoms: C_15  and  C_16 
ROOT
HETATM    1  O   UNK     0      11.733  51.810  35.870  0.00  0.00    -0.348 OA
HETATM    2  C   UNK     0      13.268  53.354  33.996  0.00  0.00     0.183 C 
HETATM    3  C   UNK     0      11.981  52.627  33.602  0.00  0.00     0.180 C 
HETATM    4  C   UNK     0      13.890  52.735  35.248  0.00  0.00     0.204 C 
HETATM    5  C   UNK     0      11.051  52.478  34.807  0.00  0.00     0.179 C 
HETATM    6  C   UNK     0      12.851  52.552  36.354  0.00  0.00     0.291 C 
ENDROOT
BRANCH   5   7
HETATM    7  C   UNK     0       9.813  51.654  34.467  0.00  0.00     0.198 C 
BRANCH   7   8
HETATM    8  O   UNK     0       8.777  52.536  34.079  0.00  0.00    -0.398 OA
HETATM    9  H   UNK     0       8.829  53.322  34.648  0.00  0.00     0.209 HD
ENDBRANCH   7   8
ENDBRANCH   5   7
BRANCH   6  10
HETATM   10  O   UNK     0      13.471  51.844  37.426  0.00  0.00    -0.358 OA
BRANCH  10  11
HETATM   11  C   UNK     0      13.296  52.521  38.661  0.00  0.00     0.175 C 
BRANCH  11  12
HETATM   12  C   UNK     0      11.892  52.261  39.196  0.00  0.00     0.065 C 
BRANCH  12  13
HETATM   13  C   UNK     0      11.854  51.109  40.171  0.00  0.00    -0.056 A 
HETATM   14  C   UNK     0      11.247  51.282  41.403  0.00  0.00     0.010 A 
HETATM   15  C   UNK     0      11.212  50.217  42.304  0.00  0.00     0.037 A 
HETATM   16  C   UNK     0      11.784  48.993  41.958  0.00  0.00     0.065 A 
HETATM   17  C   UNK     0      12.391  48.833  40.713  0.00  0.00     0.037 A 
HETATM   18  C   UNK     0      12.426  49.899  39.813  0.00  0.00     0.010 A 
BRANCH  16  19
HETATM   19  O   UNK     0      11.749  47.954  42.837  0.00  0.00    -0.361 OA
HETATM   20  H   UNK     0      12.214  47.194  42.446  0.00  0.00     0.217 HD
ENDBRANCH  16  19
ENDBRANCH  12  13
ENDBRANCH  11  12
ENDBRANCH  10  11
ENDBRANCH   6  10
BRANCH   3  21
HETATM   21  O   UNK     0      11.315  53.368  32.582  0.00  0.00    -0.390 OA
HETATM   22  H   UNK     0      11.942  53.504  31.851  0.00  0.00     0.210 HD
ENDBRANCH   3  21
BRANCH   4  23
HETATM   23  O   UNK     0      14.919  53.595  35.739  0.00  0.00    -0.388 OA
HETATM   24  H   UNK     0      14.898  54.417  35.220  0.00  0.00     0.210 HD
ENDBRANCH   4  23
BRANCH   2  25
HETATM   25  O   UNK     0      14.185  53.249  32.907  0.00  0.00    -0.390 OA
HETATM   26  H   UNK     0      13.662  53.137  32.094  0.00  0.00     0.210 HD
ENDBRANCH   2  25
TORSDOF 10
ENDMDL
