MODEL 1
REMARK VINA RESULT:      -4.2      0.000      0.000
REMARK  Name = PEG
REMARK                            x       y       z     vdW  Elec       q    Type
REMARK                         _______ _______ _______ _____ _____    ______ ____
ROOT
ATOM      3  O   LIG    1       -7.441   1.967 -23.165  0.00  0.00    -0.375 OA
ENDROOT
BRANCH   3   2
ATOM      2  C   LIG    1       -7.561   0.999 -22.121  0.00  0.00    +0.187 C 
BRANCH   2   1
ATOM      1  C   LIG    1       -8.959   1.084 -21.505  0.00  0.00    +0.184 C 
BRANCH   1   8
ATOM      8  O   LIG    1       -9.178  -0.049 -20.663  0.00  0.00    -0.393 OA
ATOM      9  H   LIG    1       -9.927  -0.599 -20.931  0.00  0.00    +0.209 HD
ENDBRANCH   1   8
ENDBRANCH   2   1
ENDBRANCH   3   2
BRANCH   3   4
ATOM      4  C   LIG    1       -6.106   2.144 -23.642  0.00  0.00    +0.187 C 
BRANCH   4   5
ATOM      5  C   LIG    1       -5.490   0.779 -23.956  0.00  0.00    +0.184 C 
BRANCH   5   6
ATOM      6  O   LIG    1       -5.571   0.531 -25.361  0.00  0.00    -0.393 OA
ATOM      7  H   LIG    1       -5.479   1.324 -25.906  0.00  0.00    +0.209 HD
ENDBRANCH   5   6
ENDBRANCH   4   5
ENDBRANCH   3   4
TORSDOF 6
ENDMDL
MODEL 2
REMARK VINA RESULT:      -4.1      1.451      1.628
REMARK  Name = PEG
REMARK                            x       y       z     vdW  Elec       q    Type
REMARK                         _______ _______ _______ _____ _____    ______ ____
ROOT
ATOM      3  O   LIG    1       -7.752   2.196 -23.219  0.00  0.00    -0.375 OA
ENDROOT
BRANCH   3   2
ATOM      2  C   LIG    1       -8.912   2.637 -22.513  0.00  0.00    +0.187 C 
BRANCH   2   1
ATOM      1  C   LIG    1       -9.636   1.428 -21.915  0.00  0.00    +0.184 C 
BRANCH   1   8
ATOM      8  O   LIG    1      -10.921   1.292 -22.525  0.00  0.00    -0.393 OA
ATOM      9  H   LIG    1      -11.567   1.950 -22.232  0.00  0.00    +0.209 HD
ENDBRANCH   1   8
ENDBRANCH   2   1
ENDBRANCH   3   2
BRANCH   3   4
ATOM      4  C   LIG    1       -7.056   1.123 -22.582  0.00  0.00    +0.187 C 
BRANCH   4   5
ATOM      5  C   LIG    1       -5.945   0.616 -23.504  0.00  0.00    +0.184 C 
BRANCH   5   6
ATOM      6  O   LIG    1       -5.990   1.330 -24.742  0.00  0.00    -0.393 OA
ATOM      7  H   LIG    1       -5.663   0.825 -25.499  0.00  0.00    +0.209 HD
ENDBRANCH   5   6
ENDBRANCH   4   5
ENDBRANCH   3   4
TORSDOF 6
ENDMDL
MODEL 3
REMARK VINA RESULT:      -4.0      2.801      4.263
REMARK  Name = PEG
REMARK                            x       y       z     vdW  Elec       q    Type
REMARK                         _______ _______ _______ _____ _____    ______ ____
ROOT
ATOM      3  O   LIG    1       -8.849   2.435 -22.928  0.00  0.00    -0.375 OA
ENDROOT
BRANCH   3   2
ATOM      2  C   LIG    1       -8.934   3.821 -22.592  0.00  0.00    +0.187 C 
BRANCH   2   1
ATOM      1  C   LIG    1      -10.293   4.108 -21.949  0.00  0.00    +0.184 C 
BRANCH   1   8
ATOM      8  O   LIG    1      -11.154   4.724 -22.908  0.00  0.00    -0.393 OA
ATOM      9  H   LIG    1      -10.686   5.202 -23.606  0.00  0.00    +0.209 HD
ENDBRANCH   1   8
ENDBRANCH   2   1
ENDBRANCH   3   2
BRANCH   3   4
ATOM      4  C   LIG    1       -9.614   1.582 -22.075  0.00  0.00    +0.187 C 
BRANCH   4   5
ATOM      5  C   LIG    1       -8.670   0.789 -21.167  0.00  0.00    +0.184 C 
BRANCH   5   6
ATOM      6  O   LIG    1       -9.408  -0.228 -20.486  0.00  0.00    -0.393 OA
ATOM      7  H   LIG    1       -9.680  -0.963 -21.053  0.00  0.00    +0.209 HD
ENDBRANCH   5   6
ENDBRANCH   4   5
ENDBRANCH   3   4
TORSDOF 6
ENDMDL
MODEL 4
REMARK VINA RESULT:      -4.0      0.950      4.134
REMARK  Name = PEG
REMARK                            x       y       z     vdW  Elec       q    Type
REMARK                         _______ _______ _______ _____ _____    ______ ____
ROOT
ATOM      3  O   LIG    1       -7.075   1.848 -23.385  0.00  0.00    -0.375 OA
ENDROOT
BRANCH   3   2
ATOM      2  C   LIG    1       -6.157   0.756 -23.307  0.00  0.00    +0.187 C 
BRANCH   2   1
ATOM      1  C   LIG    1       -5.059   0.936 -24.359  0.00  0.00    +0.184 C 
BRANCH   1   8
ATOM      8  O   LIG    1       -5.520   0.444 -25.618  0.00  0.00    -0.393 OA
ATOM      9  H   LIG    1       -6.045  -0.366 -25.556  0.00  0.00    +0.209 HD
ENDBRANCH   1   8
ENDBRANCH   2   1
ENDBRANCH   3   2
BRANCH   3   4
ATOM      4  C   LIG    1       -7.555   2.295 -22.116  0.00  0.00    +0.187 C 
BRANCH   4   5
ATOM      5  C   LIG    1       -8.637   1.336 -21.614  0.00  0.00    +0.184 C 
BRANCH   5   6
ATOM      6  O   LIG    1       -8.385   1.008 -20.246  0.00  0.00    -0.393 OA
ATOM      7  H   LIG    1       -9.170   1.042 -19.682  0.00  0.00    +0.209 HD
ENDBRANCH   5   6
ENDBRANCH   4   5
ENDBRANCH   3   4
TORSDOF 6
ENDMDL
MODEL 5
REMARK VINA RESULT:      -3.9      1.599      4.031
REMARK  Name = PEG
REMARK                            x       y       z     vdW  Elec       q    Type
REMARK                         _______ _______ _______ _____ _____    ______ ____
ROOT
ATOM      3  O   LIG    1       -7.542   1.812 -23.178  0.00  0.00    -0.375 OA
ENDROOT
BRANCH   3   2
ATOM      2  C   LIG    1       -6.663   2.902 -23.463  0.00  0.00    +0.187 C 
BRANCH   2   1
ATOM      1  C   LIG    1       -7.472   4.083 -24.004  0.00  0.00    +0.184 C 
BRANCH   1   8
ATOM      8  O   LIG    1       -8.682   3.602 -24.592  0.00  0.00    -0.393 OA
ATOM      9  H   LIG    1       -9.178   4.275 -25.078  0.00  0.00    +0.209 HD
ENDBRANCH   1   8
ENDBRANCH   2   1
ENDBRANCH   3   2
BRANCH   3   4
ATOM      4  C   LIG    1       -7.754   1.586 -21.784  0.00  0.00    +0.187 C 
BRANCH   4   5
ATOM      5  C   LIG    1       -9.176   1.068 -21.562  0.00  0.00    +0.184 C 
BRANCH   5   6
ATOM      6  O   LIG    1       -9.144  -0.043 -20.663  0.00  0.00    -0.393 OA
ATOM      7  H   LIG    1       -9.930  -0.605 -20.704  0.00  0.00    +0.209 HD
ENDBRANCH   5   6
ENDBRANCH   4   5
ENDBRANCH   3   4
TORSDOF 6
ENDMDL
MODEL 6
REMARK VINA RESULT:      -3.9      1.968      2.612
REMARK  Name = PEG
REMARK                            x       y       z     vdW  Elec       q    Type
REMARK                         _______ _______ _______ _____ _____    ______ ____
ROOT
ATOM      3  O   LIG    1       -7.385   2.354 -22.779  0.00  0.00    -0.375 OA
ENDROOT
BRANCH   3   2
ATOM      2  C   LIG    1       -7.609   1.098 -22.137  0.00  0.00    +0.187 C 
BRANCH   2   1
ATOM      1  C   LIG    1       -9.011   1.081 -21.524  0.00  0.00    +0.184 C 
BRANCH   1   8
ATOM      8  O   LIG    1       -9.139  -0.050 -20.660  0.00  0.00    -0.393 OA
ATOM      9  H   LIG    1       -8.646   0.030 -19.832  0.00  0.00    +0.209 HD
ENDBRANCH   1   8
ENDBRANCH   2   1
ENDBRANCH   3   2
BRANCH   3   4
ATOM      4  C   LIG    1       -8.304   3.377 -22.391  0.00  0.00    +0.187 C 
BRANCH   4   5
ATOM      5  C   LIG    1       -8.589   4.287 -23.588  0.00  0.00    +0.184 C 
BRANCH   5   6
ATOM      6  O   LIG    1       -8.405   3.552 -24.800  0.00  0.00    -0.393 OA
ATOM      7  H   LIG    1       -8.243   2.608 -24.667  0.00  0.00    +0.209 HD
ENDBRANCH   5   6
ENDBRANCH   4   5
ENDBRANCH   3   4
TORSDOF 6
ENDMDL
MODEL 7
REMARK VINA RESULT:      -3.9      3.125      3.345
REMARK  Name = PEG
REMARK                            x       y       z     vdW  Elec       q    Type
REMARK                         _______ _______ _______ _____ _____    ______ ____
ROOT
ATOM      3  O   LIG    1       -9.645   2.950 -21.783  0.00  0.00    -0.375 OA
ENDROOT
BRANCH   3   2
ATOM      2  C   LIG    1       -9.757   1.560 -22.090  0.00  0.00    +0.187 C 
BRANCH   2   1
ATOM      1  C   LIG    1       -8.729   0.772 -21.274  0.00  0.00    +0.184 C 
BRANCH   1   8
ATOM      8  O   LIG    1       -9.400  -0.213 -20.486  0.00  0.00    -0.393 OA
ATOM      9  H   LIG    1      -10.215  -0.548 -20.885  0.00  0.00    +0.209 HD
ENDBRANCH   1   8
ENDBRANCH   2   1
ENDBRANCH   3   2
BRANCH   3   4
ATOM      4  C   LIG    1       -8.701   3.651 -22.595  0.00  0.00    +0.187 C 
BRANCH   4   5
ATOM      5  C   LIG    1       -7.827   4.541 -21.709  0.00  0.00    +0.184 C 
BRANCH   5   6
ATOM      6  O   LIG    1       -6.834   3.741 -21.062  0.00  0.00    -0.393 OA
ATOM      7  H   LIG    1       -6.034   4.227 -20.820  0.00  0.00    +0.209 HD
ENDBRANCH   5   6
ENDBRANCH   4   5
ENDBRANCH   3   4
TORSDOF 6
ENDMDL
MODEL 8
REMARK VINA RESULT:      -3.8      2.002      2.926
REMARK  Name = PEG
REMARK                            x       y       z     vdW  Elec       q    Type
REMARK                         _______ _______ _______ _____ _____    ______ ____
ROOT
ATOM      3  O   LIG    1       -8.658   1.777 -22.697  0.00  0.00    -0.375 OA
ENDROOT
BRANCH   3   2
ATOM      2  C   LIG    1       -9.263   3.027 -22.363  0.00  0.00    +0.187 C 
BRANCH   2   1
ATOM      1  C   LIG    1       -8.674   4.131 -23.244  0.00  0.00    +0.184 C 
BRANCH   1   8
ATOM      8  O   LIG    1       -8.629   3.685 -24.601  0.00  0.00    -0.393 OA
ATOM      9  H   LIG    1       -8.096   4.245 -25.182  0.00  0.00    +0.209 HD
ENDBRANCH   1   8
ENDBRANCH   2   1
ENDBRANCH   3   2
BRANCH   3   4
ATOM      4  C   LIG    1       -7.362   1.587 -22.126  0.00  0.00    +0.187 C 
BRANCH   4   5
ATOM      5  C   LIG    1       -6.447   0.913 -23.150  0.00  0.00    +0.184 C 
BRANCH   5   6
ATOM      6  O   LIG    1       -6.290   1.769 -24.285  0.00  0.00    -0.393 OA
ATOM      7  H   LIG    1       -5.601   2.439 -24.180  0.00  0.00    +0.209 HD
ENDBRANCH   5   6
ENDBRANCH   4   5
ENDBRANCH   3   4
TORSDOF 6
ENDMDL
MODEL 9
REMARK VINA RESULT:      -3.8      2.959      4.282
REMARK  Name = PEG
REMARK                            x       y       z     vdW  Elec       q    Type
REMARK                         _______ _______ _______ _____ _____    ______ ____
ROOT
ATOM      3  O   LIG    1       -8.721   3.045 -22.278  0.00  0.00    -0.375 OA
ENDROOT
BRANCH   3   2
ATOM      2  C   LIG    1       -9.511   1.929 -21.864  0.00  0.00    +0.187 C 
BRANCH   2   1
ATOM      1  C   LIG    1       -8.596   0.831 -21.317  0.00  0.00    +0.184 C 
BRANCH   1   8
ATOM      8  O   LIG    1       -9.376  -0.129 -20.604  0.00  0.00    -0.393 OA
ATOM      9  H   LIG    1      -10.019   0.260 -19.995  0.00  0.00    +0.209 HD
ENDBRANCH   1   8
ENDBRANCH   2   1
ENDBRANCH   3   2
BRANCH   3   4
ATOM      4  C   LIG    1       -9.213   4.306 -21.821  0.00  0.00    +0.187 C 
BRANCH   4   5
ATOM      5  C   LIG    1      -10.738   4.249 -21.709  0.00  0.00    +0.184 C 
BRANCH   5   6
ATOM      6  O   LIG    1      -11.324   4.803 -22.889  0.00  0.00    -0.393 OA
ATOM      7  H   LIG    1      -12.291   4.805 -22.885  0.00  0.00    +0.209 HD
ENDBRANCH   5   6
ENDBRANCH   4   5
ENDBRANCH   3   4
TORSDOF 6
ENDMDL
MODEL 10
REMARK VINA RESULT:      -3.5      2.208      4.468
REMARK  Name = PEG
REMARK                            x       y       z     vdW  Elec       q    Type
REMARK                         _______ _______ _______ _____ _____    ______ ____
ROOT
ATOM      3  O   LIG    1       -8.289   1.665 -22.808  0.00  0.00    -0.375 OA
ENDROOT
BRANCH   3   2
ATOM      2  C   LIG    1       -7.214   2.492 -22.360  0.00  0.00    +0.187 C 
BRANCH   2   1
ATOM      1  C   LIG    1       -6.633   3.263 -23.547  0.00  0.00    +0.184 C 
BRANCH   1   8
ATOM      8  O   LIG    1       -7.598   3.317 -24.599  0.00  0.00    -0.393 OA
ATOM      9  H   LIG    1       -7.261   3.028 -25.458  0.00  0.00    +0.209 HD
ENDBRANCH   1   8
ENDBRANCH   2   1
ENDBRANCH   3   2
BRANCH   3   4
ATOM      4  C   LIG    1       -9.438   1.696 -21.961  0.00  0.00    +0.187 C 
BRANCH   4   5
ATOM      5  C   LIG    1       -9.884   3.146 -21.758  0.00  0.00    +0.184 C 
BRANCH   5   6
ATOM      6  O   LIG    1      -11.199   3.319 -22.290  0.00  0.00    -0.393 OA
ATOM      7  H   LIG    1      -11.800   3.802 -21.706  0.00  0.00    +0.209 HD
ENDBRANCH   5   6
ENDBRANCH   4   5
ENDBRANCH   3   4
TORSDOF 6
ENDMDL
