REMARK VINA RESULT:      -3.9      3.125      3.345
REMARK  Name = PEG
REMARK                            x       y       z     vdW  Elec       q    Type
REMARK                         _______ _______ _______ _____ _____    ______ ____
ROOT
ATOM      3  O   LIG    1       -9.645   2.950 -21.783  0.00  0.00    -0.375 OA
ENDROOT
BRANCH   3   2
ATOM      2  C   LIG    1       -9.757   1.560 -22.090  0.00  0.00    +0.187 C 
BRANCH   2   1
ATOM      1  C   LIG    1       -8.729   0.772 -21.274  0.00  0.00    +0.184 C 
BRANCH   1   8
ATOM      8  O   LIG    1       -9.400  -0.213 -20.486  0.00  0.00    -0.393 OA
ATOM      9  H   LIG    1      -10.215  -0.548 -20.885  0.00  0.00    +0.209 HD
ENDBRANCH   1   8
ENDBRANCH   2   1
ENDBRANCH   3   2
BRANCH   3   4
ATOM      4  C   LIG    1       -8.701   3.651 -22.595  0.00  0.00    +0.187 C 
BRANCH   4   5
ATOM      5  C   LIG    1       -7.827   4.541 -21.709  0.00  0.00    +0.184 C 
BRANCH   5   6
ATOM      6  O   LIG    1       -6.834   3.741 -21.062  0.00  0.00    -0.393 OA
ATOM      7  H   LIG    1       -6.034   4.227 -20.820  0.00  0.00    +0.209 HD
ENDBRANCH   5   6
ENDBRANCH   4   5
ENDBRANCH   3   4
TORSDOF 6
