REMARK VINA RESULT:      -3.8      2.002      2.926
REMARK  Name = PEG
REMARK                            x       y       z     vdW  Elec       q    Type
REMARK                         _______ _______ _______ _____ _____    ______ ____
ROOT
ATOM      3  O   LIG    1       -8.658   1.777 -22.697  0.00  0.00    -0.375 OA
ENDROOT
BRANCH   3   2
ATOM      2  C   LIG    1       -9.263   3.027 -22.363  0.00  0.00    +0.187 C 
BRANCH   2   1
ATOM      1  C   LIG    1       -8.674   4.131 -23.244  0.00  0.00    +0.184 C 
BRANCH   1   8
ATOM      8  O   LIG    1       -8.629   3.685 -24.601  0.00  0.00    -0.393 OA
ATOM      9  H   LIG    1       -8.096   4.245 -25.182  0.00  0.00    +0.209 HD
ENDBRANCH   1   8
ENDBRANCH   2   1
ENDBRANCH   3   2
BRANCH   3   4
ATOM      4  C   LIG    1       -7.362   1.587 -22.126  0.00  0.00    +0.187 C 
BRANCH   4   5
ATOM      5  C   LIG    1       -6.447   0.913 -23.150  0.00  0.00    +0.184 C 
BRANCH   5   6
ATOM      6  O   LIG    1       -6.290   1.769 -24.285  0.00  0.00    -0.393 OA
ATOM      7  H   LIG    1       -5.601   2.439 -24.180  0.00  0.00    +0.209 HD
ENDBRANCH   5   6
ENDBRANCH   4   5
ENDBRANCH   3   4
TORSDOF 6
