REMARK VINA RESULT:      -3.8      2.959      4.282
REMARK  Name = PEG
REMARK                            x       y       z     vdW  Elec       q    Type
REMARK                         _______ _______ _______ _____ _____    ______ ____
ROOT
ATOM      3  O   LIG    1       -8.721   3.045 -22.278  0.00  0.00    -0.375 OA
ENDROOT
BRANCH   3   2
ATOM      2  C   LIG    1       -9.511   1.929 -21.864  0.00  0.00    +0.187 C 
BRANCH   2   1
ATOM      1  C   LIG    1       -8.596   0.831 -21.317  0.00  0.00    +0.184 C 
BRANCH   1   8
ATOM      8  O   LIG    1       -9.376  -0.129 -20.604  0.00  0.00    -0.393 OA
ATOM      9  H   LIG    1      -10.019   0.260 -19.995  0.00  0.00    +0.209 HD
ENDBRANCH   1   8
ENDBRANCH   2   1
ENDBRANCH   3   2
BRANCH   3   4
ATOM      4  C   LIG    1       -9.213   4.306 -21.821  0.00  0.00    +0.187 C 
BRANCH   4   5
ATOM      5  C   LIG    1      -10.738   4.249 -21.709  0.00  0.00    +0.184 C 
BRANCH   5   6
ATOM      6  O   LIG    1      -11.324   4.803 -22.889  0.00  0.00    -0.393 OA
ATOM      7  H   LIG    1      -12.291   4.805 -22.885  0.00  0.00    +0.209 HD
ENDBRANCH   5   6
ENDBRANCH   4   5
ENDBRANCH   3   4
TORSDOF 6
