REMARK VINA RESULT:      -3.9      1.599      4.031
REMARK  Name = PEG
REMARK                            x       y       z     vdW  Elec       q    Type
REMARK                         _______ _______ _______ _____ _____    ______ ____
ROOT
ATOM      3  O   LIG    1       -7.542   1.812 -23.178  0.00  0.00    -0.375 OA
ENDROOT
BRANCH   3   2
ATOM      2  C   LIG    1       -6.663   2.902 -23.463  0.00  0.00    +0.187 C 
BRANCH   2   1
ATOM      1  C   LIG    1       -7.472   4.083 -24.004  0.00  0.00    +0.184 C 
BRANCH   1   8
ATOM      8  O   LIG    1       -8.682   3.602 -24.592  0.00  0.00    -0.393 OA
ATOM      9  H   LIG    1       -9.178   4.275 -25.078  0.00  0.00    +0.209 HD
ENDBRANCH   1   8
ENDBRANCH   2   1
ENDBRANCH   3   2
BRANCH   3   4
ATOM      4  C   LIG    1       -7.754   1.586 -21.784  0.00  0.00    +0.187 C 
BRANCH   4   5
ATOM      5  C   LIG    1       -9.176   1.068 -21.562  0.00  0.00    +0.184 C 
BRANCH   5   6
ATOM      6  O   LIG    1       -9.144  -0.043 -20.663  0.00  0.00    -0.393 OA
ATOM      7  H   LIG    1       -9.930  -0.605 -20.704  0.00  0.00    +0.209 HD
ENDBRANCH   5   6
ENDBRANCH   4   5
ENDBRANCH   3   4
TORSDOF 6
