REMARK VINA RESULT:      -3.9      1.968      2.612
REMARK  Name = PEG
REMARK                            x       y       z     vdW  Elec       q    Type
REMARK                         _______ _______ _______ _____ _____    ______ ____
ROOT
ATOM      3  O   LIG    1       -7.385   2.354 -22.779  0.00  0.00    -0.375 OA
ENDROOT
BRANCH   3   2
ATOM      2  C   LIG    1       -7.609   1.098 -22.137  0.00  0.00    +0.187 C 
BRANCH   2   1
ATOM      1  C   LIG    1       -9.011   1.081 -21.524  0.00  0.00    +0.184 C 
BRANCH   1   8
ATOM      8  O   LIG    1       -9.139  -0.050 -20.660  0.00  0.00    -0.393 OA
ATOM      9  H   LIG    1       -8.646   0.030 -19.832  0.00  0.00    +0.209 HD
ENDBRANCH   1   8
ENDBRANCH   2   1
ENDBRANCH   3   2
BRANCH   3   4
ATOM      4  C   LIG    1       -8.304   3.377 -22.391  0.00  0.00    +0.187 C 
BRANCH   4   5
ATOM      5  C   LIG    1       -8.589   4.287 -23.588  0.00  0.00    +0.184 C 
BRANCH   5   6
ATOM      6  O   LIG    1       -8.405   3.552 -24.800  0.00  0.00    -0.393 OA
ATOM      7  H   LIG    1       -8.243   2.608 -24.667  0.00  0.00    +0.209 HD
ENDBRANCH   5   6
ENDBRANCH   4   5
ENDBRANCH   3   4
TORSDOF 6
