REMARK VINA RESULT:      -4.1      1.451      1.628
REMARK  Name = PEG
REMARK                            x       y       z     vdW  Elec       q    Type
REMARK                         _______ _______ _______ _____ _____    ______ ____
ROOT
ATOM      3  O   LIG    1       -7.752   2.196 -23.219  0.00  0.00    -0.375 OA
ENDROOT
BRANCH   3   2
ATOM      2  C   LIG    1       -8.912   2.637 -22.513  0.00  0.00    +0.187 C 
BRANCH   2   1
ATOM      1  C   LIG    1       -9.636   1.428 -21.915  0.00  0.00    +0.184 C 
BRANCH   1   8
ATOM      8  O   LIG    1      -10.921   1.292 -22.525  0.00  0.00    -0.393 OA
ATOM      9  H   LIG    1      -11.567   1.950 -22.232  0.00  0.00    +0.209 HD
ENDBRANCH   1   8
ENDBRANCH   2   1
ENDBRANCH   3   2
BRANCH   3   4
ATOM      4  C   LIG    1       -7.056   1.123 -22.582  0.00  0.00    +0.187 C 
BRANCH   4   5
ATOM      5  C   LIG    1       -5.945   0.616 -23.504  0.00  0.00    +0.184 C 
BRANCH   5   6
ATOM      6  O   LIG    1       -5.990   1.330 -24.742  0.00  0.00    -0.393 OA
ATOM      7  H   LIG    1       -5.663   0.825 -25.499  0.00  0.00    +0.209 HD
ENDBRANCH   5   6
ENDBRANCH   4   5
ENDBRANCH   3   4
TORSDOF 6
