REMARK VINA RESULT:      -4.0      2.801      4.263
REMARK  Name = PEG
REMARK                            x       y       z     vdW  Elec       q    Type
REMARK                         _______ _______ _______ _____ _____    ______ ____
ROOT
ATOM      3  O   LIG    1       -8.849   2.435 -22.928  0.00  0.00    -0.375 OA
ENDROOT
BRANCH   3   2
ATOM      2  C   LIG    1       -8.934   3.821 -22.592  0.00  0.00    +0.187 C 
BRANCH   2   1
ATOM      1  C   LIG    1      -10.293   4.108 -21.949  0.00  0.00    +0.184 C 
BRANCH   1   8
ATOM      8  O   LIG    1      -11.154   4.724 -22.908  0.00  0.00    -0.393 OA
ATOM      9  H   LIG    1      -10.686   5.202 -23.606  0.00  0.00    +0.209 HD
ENDBRANCH   1   8
ENDBRANCH   2   1
ENDBRANCH   3   2
BRANCH   3   4
ATOM      4  C   LIG    1       -9.614   1.582 -22.075  0.00  0.00    +0.187 C 
BRANCH   4   5
ATOM      5  C   LIG    1       -8.670   0.789 -21.167  0.00  0.00    +0.184 C 
BRANCH   5   6
ATOM      6  O   LIG    1       -9.408  -0.228 -20.486  0.00  0.00    -0.393 OA
ATOM      7  H   LIG    1       -9.680  -0.963 -21.053  0.00  0.00    +0.209 HD
ENDBRANCH   5   6
ENDBRANCH   4   5
ENDBRANCH   3   4
TORSDOF 6
