REMARK VINA RESULT:      -4.0      0.950      4.134
REMARK  Name = PEG
REMARK                            x       y       z     vdW  Elec       q    Type
REMARK                         _______ _______ _______ _____ _____    ______ ____
ROOT
ATOM      3  O   LIG    1       -7.075   1.848 -23.385  0.00  0.00    -0.375 OA
ENDROOT
BRANCH   3   2
ATOM      2  C   LIG    1       -6.157   0.756 -23.307  0.00  0.00    +0.187 C 
BRANCH   2   1
ATOM      1  C   LIG    1       -5.059   0.936 -24.359  0.00  0.00    +0.184 C 
BRANCH   1   8
ATOM      8  O   LIG    1       -5.520   0.444 -25.618  0.00  0.00    -0.393 OA
ATOM      9  H   LIG    1       -6.045  -0.366 -25.556  0.00  0.00    +0.209 HD
ENDBRANCH   1   8
ENDBRANCH   2   1
ENDBRANCH   3   2
BRANCH   3   4
ATOM      4  C   LIG    1       -7.555   2.295 -22.116  0.00  0.00    +0.187 C 
BRANCH   4   5
ATOM      5  C   LIG    1       -8.637   1.336 -21.614  0.00  0.00    +0.184 C 
BRANCH   5   6
ATOM      6  O   LIG    1       -8.385   1.008 -20.246  0.00  0.00    -0.393 OA
ATOM      7  H   LIG    1       -9.170   1.042 -19.682  0.00  0.00    +0.209 HD
ENDBRANCH   5   6
ENDBRANCH   4   5
ENDBRANCH   3   4
TORSDOF 6
