REMARK VINA RESULT:      -3.5      2.208      4.468
REMARK  Name = PEG
REMARK                            x       y       z     vdW  Elec       q    Type
REMARK                         _______ _______ _______ _____ _____    ______ ____
ROOT
ATOM      3  O   LIG    1       -8.289   1.665 -22.808  0.00  0.00    -0.375 OA
ENDROOT
BRANCH   3   2
ATOM      2  C   LIG    1       -7.214   2.492 -22.360  0.00  0.00    +0.187 C 
BRANCH   2   1
ATOM      1  C   LIG    1       -6.633   3.263 -23.547  0.00  0.00    +0.184 C 
BRANCH   1   8
ATOM      8  O   LIG    1       -7.598   3.317 -24.599  0.00  0.00    -0.393 OA
ATOM      9  H   LIG    1       -7.261   3.028 -25.458  0.00  0.00    +0.209 HD
ENDBRANCH   1   8
ENDBRANCH   2   1
ENDBRANCH   3   2
BRANCH   3   4
ATOM      4  C   LIG    1       -9.438   1.696 -21.961  0.00  0.00    +0.187 C 
BRANCH   4   5
ATOM      5  C   LIG    1       -9.884   3.146 -21.758  0.00  0.00    +0.184 C 
BRANCH   5   6
ATOM      6  O   LIG    1      -11.199   3.319 -22.290  0.00  0.00    -0.393 OA
ATOM      7  H   LIG    1      -11.800   3.802 -21.706  0.00  0.00    +0.209 HD
ENDBRANCH   5   6
ENDBRANCH   4   5
ENDBRANCH   3   4
TORSDOF 6
