REMARK VINA RESULT:      -4.2      0.000      0.000
REMARK  Name = PEG
REMARK                            x       y       z     vdW  Elec       q    Type
REMARK                         _______ _______ _______ _____ _____    ______ ____
ROOT
ATOM      3  O   LIG    1       -7.441   1.967 -23.165  0.00  0.00    -0.375 OA
ENDROOT
BRANCH   3   2
ATOM      2  C   LIG    1       -7.561   0.999 -22.121  0.00  0.00    +0.187 C 
BRANCH   2   1
ATOM      1  C   LIG    1       -8.959   1.084 -21.505  0.00  0.00    +0.184 C 
BRANCH   1   8
ATOM      8  O   LIG    1       -9.178  -0.049 -20.663  0.00  0.00    -0.393 OA
ATOM      9  H   LIG    1       -9.927  -0.599 -20.931  0.00  0.00    +0.209 HD
ENDBRANCH   1   8
ENDBRANCH   2   1
ENDBRANCH   3   2
BRANCH   3   4
ATOM      4  C   LIG    1       -6.106   2.144 -23.642  0.00  0.00    +0.187 C 
BRANCH   4   5
ATOM      5  C   LIG    1       -5.490   0.779 -23.956  0.00  0.00    +0.184 C 
BRANCH   5   6
ATOM      6  O   LIG    1       -5.571   0.531 -25.361  0.00  0.00    -0.393 OA
ATOM      7  H   LIG    1       -5.479   1.324 -25.906  0.00  0.00    +0.209 HD
ENDBRANCH   5   6
ENDBRANCH   4   5
ENDBRANCH   3   4
TORSDOF 6
