MODEL 1
REMARK VINA RESULT:      -9.2      0.000      0.000
REMARK  13 active torsions:
REMARK  status: ('A' for Active; 'I' for Inactive)
REMARK    1  A    between atoms: C_2  and  O_12 
REMARK    2  A    between atoms: C_3  and  O_10 
REMARK    3  A    between atoms: C_4  and  O_8 
REMARK    4  A    between atoms: C_5  and  O_6 
REMARK    5  A    between atoms: C_22  and  C_23 
REMARK    6  A    between atoms: O_12  and  C_13 
REMARK    7  A    between atoms: C_13  and  C_14 
REMARK    8  A    between atoms: C_15  and  C_16 
REMARK    9  A    between atoms: C_23  and  O_24 
REMARK   10  A    between atoms: O_24  and  C_25 
REMARK   11  A    between atoms: C_26  and  O_34 
REMARK   12  A    between atoms: C_27  and  O_32 
REMARK   13  A    between atoms: C_28  and  O_30 
ROOT
ATOM      1  O   LIG     1     -26.763   5.347   5.179  0.00  0.00    -0.341 OA
ATOM      2  C   LIG     1     -26.686   6.731   5.514  0.00  0.00     0.282 C 
ATOM      3  C   LIG     1     -27.043   6.946   6.985  0.00  0.00     0.201 C 
ATOM      4  C   LIG     1     -26.191   6.067   7.900  0.00  0.00     0.179 C 
ATOM      5  C   LIG     1     -26.171   4.618   7.414  0.00  0.00     0.177 C 
ATOM      6  C   LIG     1     -25.838   4.551   5.921  0.00  0.00     0.178 C 
ENDROOT
BRANCH   6   7
ATOM      7  C   LIG     1     -25.926   3.124   5.386  0.00  0.00     0.197 C 
BRANCH   7   8
ATOM      8  O   LIG     1     -26.564   2.317   6.359  0.00  0.00    -0.346 OA
BRANCH   8   9
ATOM      9  C   LIG     1     -27.783   1.766   5.872  0.00  0.00     0.281 C 
ATOM     10  O   LIG     1     -28.927   2.467   6.373  0.00  0.00    -0.346 OA
ATOM     11  C   LIG     1     -29.119   2.323   7.778  0.00  0.00     0.197 C 
ATOM     12  C   LIG     1     -29.325   0.859   8.145  0.00  0.00     0.171 C 
ATOM     13  C   LIG     1     -28.133   0.016   7.687  0.00  0.00     0.178 C 
ATOM     14  C   LIG     1     -27.849   0.267   6.202  0.00  0.00     0.201 C 
BRANCH  12  15
ATOM     15  O   LIG     1     -29.504   0.719   9.547  0.00  0.00    -0.387 OA
ATOM     16  H   LIG     1     -28.676   0.366   9.915  0.00  0.00     0.210 HD
ENDBRANCH  12  15
BRANCH  13  17
ATOM     17  O   LIG     1     -26.985   0.365   8.459  0.00  0.00    -0.386 OA
ATOM     18  H   LIG     1     -26.567   1.132   8.031  0.00  0.00     0.210 HD
ENDBRANCH  13  17
BRANCH  14  19
ATOM     19  O   LIG     1     -28.889  -0.312   5.418  0.00  0.00    -0.384 OA
ATOM     20  H   LIG     1     -28.733  -0.087   4.486  0.00  0.00     0.210 HD
ENDBRANCH  14  19
ENDBRANCH   8   9
ENDBRANCH   7   8
ENDBRANCH   6   7
BRANCH   5  21
ATOM     21  O   LIG     1     -25.193   3.887   8.148  0.00  0.00    -0.386 OA
ATOM     22  H   LIG     1     -25.025   3.053   7.677  0.00  0.00     0.210 HD
ENDBRANCH   5  21
BRANCH   2  23
ATOM     23  O   LIG     1     -27.612   7.471   4.722  0.00  0.00    -0.345 OA
BRANCH  23  24
ATOM     24  C   LIG     1     -28.951   7.098   5.008  0.00  0.00     0.190 C 
BRANCH  24  25
ATOM     25  C   LIG     1     -29.857   8.223   4.627  0.00  0.00     0.001 C 
ATOM     26  C   LIG     1     -30.670   8.186   3.559  0.00  0.00     0.006 C 
BRANCH  26  27
ATOM     27  C   LIG     1     -31.589   9.263   3.153  0.00  0.00    -0.025 A 
ATOM     28  C   LIG     1     -31.309  10.002   2.015  0.00  0.00     0.008 A 
ATOM     29  C   LIG     1     -32.180  11.021   1.631  0.00  0.00     0.001 A 
ATOM     30  C   LIG     1     -33.318  11.290   2.391  0.00  0.00     0.000 A 
ATOM     31  C   LIG     1     -33.587  10.539   3.535  0.00  0.00     0.001 A 
ATOM     32  C   LIG     1     -32.716   9.518   3.918  0.00  0.00     0.008 A 
ENDBRANCH  26  27
ENDBRANCH  24  25
ENDBRANCH  23  24
ENDBRANCH   2  23
BRANCH   4  33
ATOM     33  O   LIG     1     -26.739   6.082   9.219  0.00  0.00    -0.386 OA
ATOM     34  H   LIG     1     -27.365   6.824   9.266  0.00  0.00     0.210 HD
ENDBRANCH   4  33
BRANCH   3  35
ATOM     35  O   LIG     1     -26.819   8.319   7.303  0.00  0.00    -0.384 OA
ATOM     36  H   LIG     1     -26.860   8.830   6.478  0.00  0.00     0.210 HD
ENDBRANCH   3  35
TORSDOF 13
ENDMDL
MODEL 2
REMARK VINA RESULT:      -8.8      1.437      1.991
REMARK  13 active torsions:
REMARK  status: ('A' for Active; 'I' for Inactive)
REMARK    1  A    between atoms: C_2  and  O_12 
REMARK    2  A    between atoms: C_3  and  O_10 
REMARK    3  A    between atoms: C_4  and  O_8 
REMARK    4  A    between atoms: C_5  and  O_6 
REMARK    5  A    between atoms: C_22  and  C_23 
REMARK    6  A    between atoms: O_12  and  C_13 
REMARK    7  A    between atoms: C_13  and  C_14 
REMARK    8  A    between atoms: C_15  and  C_16 
REMARK    9  A    between atoms: C_23  and  O_24 
REMARK   10  A    between atoms: O_24  and  C_25 
REMARK   11  A    between atoms: C_26  and  O_34 
REMARK   12  A    between atoms: C_27  and  O_32 
REMARK   13  A    between atoms: C_28  and  O_30 
ROOT
ATOM      1  O   LIG     1     -26.834   5.443   5.237  0.00  0.00    -0.341 OA
ATOM      2  C   LIG     1     -26.747   6.821   5.593  0.00  0.00     0.282 C 
ATOM      3  C   LIG     1     -27.052   7.010   7.079  0.00  0.00     0.201 C 
ATOM      4  C   LIG     1     -26.166   6.117   7.947  0.00  0.00     0.179 C 
ATOM      5  C   LIG     1     -26.161   4.677   7.436  0.00  0.00     0.177 C 
ATOM      6  C   LIG     1     -25.882   4.636   5.932  0.00  0.00     0.178 C 
ENDROOT
BRANCH   6   7
ATOM      7  C   LIG     1     -25.987   3.218   5.376  0.00  0.00     0.197 C 
BRANCH   7   8
ATOM      8  O   LIG     1     -26.583   2.392   6.360  0.00  0.00    -0.346 OA
BRANCH   8   9
ATOM      9  C   LIG     1     -27.813   1.837   5.907  0.00  0.00     0.281 C 
ATOM     10  O   LIG     1     -28.945   2.523   6.453  0.00  0.00    -0.346 OA
ATOM     11  C   LIG     1     -29.090   2.364   7.862  0.00  0.00     0.197 C 
ATOM     12  C   LIG     1     -29.271   0.894   8.220  0.00  0.00     0.171 C 
ATOM     13  C   LIG     1     -28.089   0.066   7.714  0.00  0.00     0.178 C 
ATOM     14  C   LIG     1     -27.857   0.334   6.224  0.00  0.00     0.201 C 
BRANCH  12  15
ATOM     15  O   LIG     1     -29.402   0.739   9.627  0.00  0.00    -0.387 OA
ATOM     16  H   LIG     1     -28.523   0.523   9.982  0.00  0.00     0.210 HD
ENDBRANCH  12  15
BRANCH  13  17
ATOM     17  O   LIG     1     -26.919   0.416   8.451  0.00  0.00    -0.386 OA
ATOM     18  H   LIG     1     -26.151   0.254   7.875  0.00  0.00     0.210 HD
ENDBRANCH  13  17
BRANCH  14  19
ATOM     19  O   LIG     1     -28.918  -0.245   5.468  0.00  0.00    -0.384 OA
ATOM     20  H   LIG     1     -28.954  -1.196   5.668  0.00  0.00     0.210 HD
ENDBRANCH  14  19
ENDBRANCH   8   9
ENDBRANCH   7   8
ENDBRANCH   6   7
BRANCH   5  21
ATOM     21  O   LIG     1     -25.155   3.936   8.123  0.00  0.00    -0.386 OA
ATOM     22  H   LIG     1     -25.014   4.355   8.990  0.00  0.00     0.210 HD
ENDBRANCH   5  21
BRANCH   2  23
ATOM     23  O   LIG     1     -27.703   7.572   4.848  0.00  0.00    -0.345 OA
BRANCH  23  24
ATOM     24  C   LIG     1     -29.003   7.019   4.968  0.00  0.00     0.190 C 
BRANCH  24  25
ATOM     25  C   LIG     1     -29.631   6.964   3.613  0.00  0.00     0.001 C 
ATOM     26  C   LIG     1     -29.594   7.984   2.742  0.00  0.00     0.006 C 
BRANCH  26  27
ATOM     27  C   LIG     1     -30.185   7.971   1.392  0.00  0.00    -0.025 A 
ATOM     28  C   LIG     1     -31.209   8.855   1.090  0.00  0.00     0.008 A 
ATOM     29  C   LIG     1     -31.767   8.841  -0.188  0.00  0.00     0.001 A 
ATOM     30  C   LIG     1     -31.297   7.944  -1.146  0.00  0.00     0.000 A 
ATOM     31  C   LIG     1     -30.266   7.060  -0.828  0.00  0.00     0.001 A 
ATOM     32  C   LIG     1     -29.707   7.074   0.451  0.00  0.00     0.008 A 
ENDBRANCH  26  27
ENDBRANCH  24  25
ENDBRANCH  23  24
ENDBRANCH   2  23
BRANCH   4  33
ATOM     33  O   LIG     1     -26.666   6.109   9.286  0.00  0.00    -0.386 OA
ATOM     34  H   LIG     1     -27.636   6.084   9.234  0.00  0.00     0.210 HD
ENDBRANCH   4  33
BRANCH   3  35
ATOM     35  O   LIG     1     -26.819   8.378   7.413  0.00  0.00    -0.384 OA
ATOM     36  H   LIG     1     -25.938   8.623   7.082  0.00  0.00     0.210 HD
ENDBRANCH   3  35
TORSDOF 13
ENDMDL
MODEL 3
REMARK VINA RESULT:      -8.7      1.198      1.569
REMARK  13 active torsions:
REMARK  status: ('A' for Active; 'I' for Inactive)
REMARK    1  A    between atoms: C_2  and  O_12 
REMARK    2  A    between atoms: C_3  and  O_10 
REMARK    3  A    between atoms: C_4  and  O_8 
REMARK    4  A    between atoms: C_5  and  O_6 
REMARK    5  A    between atoms: C_22  and  C_23 
REMARK    6  A    between atoms: O_12  and  C_13 
REMARK    7  A    between atoms: C_13  and  C_14 
REMARK    8  A    between atoms: C_15  and  C_16 
REMARK    9  A    between atoms: C_23  and  O_24 
REMARK   10  A    between atoms: O_24  and  C_25 
REMARK   11  A    between atoms: C_26  and  O_34 
REMARK   12  A    between atoms: C_27  and  O_32 
REMARK   13  A    between atoms: C_28  and  O_30 
ROOT
ATOM      1  O   LIG     1     -27.563   5.146   4.260  0.00  0.00    -0.341 OA
ATOM      2  C   LIG     1     -26.765   6.328   4.261  0.00  0.00     0.282 C 
ATOM      3  C   LIG     1     -26.851   7.031   5.616  0.00  0.00     0.201 C 
ATOM      4  C   LIG     1     -26.501   6.079   6.760  0.00  0.00     0.179 C 
ATOM      5  C   LIG     1     -27.261   4.759   6.633  0.00  0.00     0.177 C 
ATOM      6  C   LIG     1     -27.122   4.186   5.221  0.00  0.00     0.178 C 
ENDROOT
BRANCH   6   7
ATOM      7  C   LIG     1     -27.967   2.928   5.036  0.00  0.00     0.197 C 
BRANCH   7   8
ATOM      8  O   LIG     1     -27.343   1.861   5.728  0.00  0.00    -0.346 OA
BRANCH   8   9
ATOM      9  C   LIG     1     -28.154   0.691   5.735  0.00  0.00     0.281 C 
ATOM     10  O   LIG     1     -29.497   0.971   6.144  0.00  0.00    -0.346 OA
ATOM     11  C   LIG     1     -29.611   1.376   7.506  0.00  0.00     0.197 C 
ATOM     12  C   LIG     1     -29.105   0.280   8.435  0.00  0.00     0.171 C 
ATOM     13  C   LIG     1     -27.653  -0.074   8.110  0.00  0.00     0.178 C 
ATOM     14  C   LIG     1     -27.508  -0.387   6.618  0.00  0.00     0.201 C 
BRANCH  12  15
ATOM     15  O   LIG     1     -29.209   0.693   9.791  0.00  0.00    -0.387 OA
ATOM     16  H   LIG     1     -28.426   0.359  10.261  0.00  0.00     0.210 HD
ENDBRANCH  12  15
BRANCH  13  17
ATOM     17  O   LIG     1     -26.812   1.027   8.451  0.00  0.00    -0.386 OA
ATOM     18  H   LIG     1     -26.036   0.670   8.917  0.00  0.00     0.210 HD
ENDBRANCH  13  17
BRANCH  14  19
ATOM     19  O   LIG     1     -28.144  -1.630   6.332  0.00  0.00    -0.384 OA
ATOM     20  H   LIG     1     -27.929  -2.257   7.043  0.00  0.00     0.210 HD
ENDBRANCH  14  19
ENDBRANCH   8   9
ENDBRANCH   7   8
ENDBRANCH   6   7
BRANCH   5  21
ATOM     21  O   LIG     1     -26.741   3.824   7.575  0.00  0.00    -0.386 OA
ATOM     22  H   LIG     1     -27.447   3.189   7.787  0.00  0.00     0.210 HD
ENDBRANCH   5  21
BRANCH   2  23
ATOM     23  O   LIG     1     -27.240   7.231   3.265  0.00  0.00    -0.345 OA
BRANCH  23  24
ATOM     24  C   LIG     1     -28.325   6.677   2.539  0.00  0.00     0.190 C 
BRANCH  24  25
ATOM     25  C   LIG     1     -29.345   7.744   2.306  0.00  0.00     0.001 C 
ATOM     26  C   LIG     1     -30.370   7.979   3.141  0.00  0.00     0.006 C 
BRANCH  26  27
ATOM     27  C   LIG     1     -31.388   9.028   2.960  0.00  0.00    -0.025 A 
ATOM     28  C   LIG     1     -32.319   9.250   3.963  0.00  0.00     0.008 A 
ATOM     29  C   LIG     1     -33.283  10.243   3.792  0.00  0.00     0.001 A 
ATOM     30  C   LIG     1     -33.306  11.000   2.620  0.00  0.00     0.000 A 
ATOM     31  C   LIG     1     -32.363  10.765   1.620  0.00  0.00     0.001 A 
ATOM     32  C   LIG     1     -31.398   9.772   1.791  0.00  0.00     0.008 A 
ENDBRANCH  26  27
ENDBRANCH  24  25
ENDBRANCH  23  24
ENDBRANCH   2  23
BRANCH   4  33
ATOM     33  O   LIG     1     -26.863   6.679   8.005  0.00  0.00    -0.386 OA
ATOM     34  H   LIG     1     -27.685   7.178   7.859  0.00  0.00     0.210 HD
ENDBRANCH   4  33
BRANCH   3  35
ATOM     35  O   LIG     1     -25.933   8.124   5.611  0.00  0.00    -0.384 OA
ATOM     36  H   LIG     1     -25.714   8.330   4.687  0.00  0.00     0.210 HD
ENDBRANCH   3  35
TORSDOF 13
ENDMDL
MODEL 4
REMARK VINA RESULT:      -8.3      1.714      5.244
REMARK  13 active torsions:
REMARK  status: ('A' for Active; 'I' for Inactive)
REMARK    1  A    between atoms: C_2  and  O_12 
REMARK    2  A    between atoms: C_3  and  O_10 
REMARK    3  A    between atoms: C_4  and  O_8 
REMARK    4  A    between atoms: C_5  and  O_6 
REMARK    5  A    between atoms: C_22  and  C_23 
REMARK    6  A    between atoms: O_12  and  C_13 
REMARK    7  A    between atoms: C_13  and  C_14 
REMARK    8  A    between atoms: C_15  and  C_16 
REMARK    9  A    between atoms: C_23  and  O_24 
REMARK   10  A    between atoms: O_24  and  C_25 
REMARK   11  A    between atoms: C_26  and  O_34 
REMARK   12  A    between atoms: C_27  and  O_32 
REMARK   13  A    between atoms: C_28  and  O_30 
ROOT
ATOM      1  O   LIG     1     -27.726   3.443   5.701  0.00  0.00    -0.341 OA
ATOM      2  C   LIG     1     -29.092   3.074   5.527  0.00  0.00     0.282 C 
ATOM      3  C   LIG     1     -29.243   1.553   5.564  0.00  0.00     0.201 C 
ATOM      4  C   LIG     1     -28.627   0.963   6.832  0.00  0.00     0.179 C 
ATOM      5  C   LIG     1     -27.220   1.508   7.069  0.00  0.00     0.177 C 
ATOM      6  C   LIG     1     -27.204   3.035   6.966  0.00  0.00     0.178 C 
ENDROOT
BRANCH   6   7
ATOM      7  C   LIG     1     -25.789   3.595   7.083  0.00  0.00     0.197 C 
BRANCH   7   8
ATOM      8  O   LIG     1     -25.846   5.001   6.927  0.00  0.00    -0.346 OA
BRANCH   8   9
ATOM      9  C   LIG     1     -26.652   5.611   7.929  0.00  0.00     0.281 C 
ATOM     10  O   LIG     1     -27.371   6.743   7.424  0.00  0.00    -0.346 OA
ATOM     11  C   LIG     1     -26.535   7.838   7.059  0.00  0.00     0.197 C 
ATOM     12  C   LIG     1     -25.747   8.338   8.263  0.00  0.00     0.171 C 
ATOM     13  C   LIG     1     -24.906   7.210   8.863  0.00  0.00     0.178 C 
ATOM     14  C   LIG     1     -25.785   5.986   9.140  0.00  0.00     0.201 C 
BRANCH  12  15
ATOM     15  O   LIG     1     -24.907   9.421   7.891  0.00  0.00    -0.387 OA
ATOM     16  H   LIG     1     -25.446  10.231   7.906  0.00  0.00     0.210 HD
ENDBRANCH  12  15
BRANCH  13  17
ATOM     17  O   LIG     1     -23.870   6.857   7.948  0.00  0.00    -0.386 OA
ATOM     18  H   LIG     1     -24.100   7.239   7.083  0.00  0.00     0.210 HD
ENDBRANCH  13  17
BRANCH  14  19
ATOM     19  O   LIG     1     -26.654   6.268  10.234  0.00  0.00    -0.384 OA
ATOM     20  H   LIG     1     -26.292   7.021  10.730  0.00  0.00     0.210 HD
ENDBRANCH  14  19
ENDBRANCH   8   9
ENDBRANCH   7   8
ENDBRANCH   6   7
BRANCH   5  21
ATOM     21  O   LIG     1     -26.774   1.118   8.366  0.00  0.00    -0.386 OA
ATOM     22  H   LIG     1     -26.221   0.324   8.267  0.00  0.00     0.210 HD
ENDBRANCH   5  21
BRANCH   2  23
ATOM     23  O   LIG     1     -29.557   3.532   4.259  0.00  0.00    -0.345 OA
BRANCH  23  24
ATOM     24  C   LIG     1     -28.731   4.565   3.747  0.00  0.00     0.190 C 
BRANCH  24  25
ATOM     25  C   LIG     1     -29.516   5.837   3.711  0.00  0.00     0.001 C 
ATOM     26  C   LIG     1     -29.255   6.887   4.506  0.00  0.00     0.006 C 
BRANCH  26  27
ATOM     27  C   LIG     1     -29.990   8.163   4.496  0.00  0.00    -0.025 A 
ATOM     28  C   LIG     1     -31.200   8.244   3.825  0.00  0.00     0.008 A 
ATOM     29  C   LIG     1     -31.896   9.452   3.816  0.00  0.00     0.001 A 
ATOM     30  C   LIG     1     -31.374  10.564   4.477  0.00  0.00     0.000 A 
ATOM     31  C   LIG     1     -30.155  10.468   5.147  0.00  0.00     0.001 A 
ATOM     32  C   LIG     1     -29.458   9.259   5.156  0.00  0.00     0.008 A 
ENDBRANCH  26  27
ENDBRANCH  24  25
ENDBRANCH  23  24
ENDBRANCH   2  23
BRANCH   4  33
ATOM     33  O   LIG     1     -28.535  -0.457   6.700  0.00  0.00    -0.386 OA
ATOM     34  H   LIG     1     -28.177  -0.644   5.816  0.00  0.00     0.210 HD
ENDBRANCH   4  33
BRANCH   3  35
ATOM     35  O   LIG     1     -30.636   1.241   5.524  0.00  0.00    -0.384 OA
ATOM     36  H   LIG     1     -30.932   1.304   4.601  0.00  0.00     0.210 HD
ENDBRANCH   3  35
TORSDOF 13
ENDMDL
MODEL 5
REMARK VINA RESULT:      -8.1      2.232      3.616
REMARK  13 active torsions:
REMARK  status: ('A' for Active; 'I' for Inactive)
REMARK    1  A    between atoms: C_2  and  O_12 
REMARK    2  A    between atoms: C_3  and  O_10 
REMARK    3  A    between atoms: C_4  and  O_8 
REMARK    4  A    between atoms: C_5  and  O_6 
REMARK    5  A    between atoms: C_22  and  C_23 
REMARK    6  A    between atoms: O_12  and  C_13 
REMARK    7  A    between atoms: C_13  and  C_14 
REMARK    8  A    between atoms: C_15  and  C_16 
REMARK    9  A    between atoms: C_23  and  O_24 
REMARK   10  A    between atoms: O_24  and  C_25 
REMARK   11  A    between atoms: C_26  and  O_34 
REMARK   12  A    between atoms: C_27  and  O_32 
REMARK   13  A    between atoms: C_28  and  O_30 
ROOT
ATOM      1  O   LIG     1     -28.780   6.066   2.666  0.00  0.00    -0.341 OA
ATOM      2  C   LIG     1     -27.894   7.053   2.145  0.00  0.00     0.282 C 
ATOM      3  C   LIG     1     -27.874   8.286   3.049  0.00  0.00     0.201 C 
ATOM      4  C   LIG     1     -27.557   7.911   4.496  0.00  0.00     0.179 C 
ATOM      5  C   LIG     1     -28.421   6.741   4.966  0.00  0.00     0.177 C 
ATOM      6  C   LIG     1     -28.380   5.594   3.953  0.00  0.00     0.178 C 
ENDROOT
BRANCH   6   7
ATOM      7  C   LIG     1     -29.325   4.461   4.343  0.00  0.00     0.197 C 
BRANCH   7   8
ATOM      8  O   LIG     1     -28.562   3.287   4.546  0.00  0.00    -0.346 OA
BRANCH   8   9
ATOM      9  C   LIG     1     -28.034   3.221   5.867  0.00  0.00     0.281 C 
ATOM     10  O   LIG     1     -26.821   2.462   5.924  0.00  0.00    -0.346 OA
ATOM     11  C   LIG     1     -26.997   1.076   5.644  0.00  0.00     0.197 C 
ATOM     12  C   LIG     1     -27.943   0.440   6.655  0.00  0.00     0.171 C 
ATOM     13  C   LIG     1     -29.295   1.154   6.651  0.00  0.00     0.178 C 
ATOM     14  C   LIG     1     -29.096   2.663   6.827  0.00  0.00     0.201 C 
BRANCH  12  15
ATOM     15  O   LIG     1     -28.124  -0.939   6.365  0.00  0.00    -0.387 OA
ATOM     16  H   LIG     1     -28.959  -1.219   6.778  0.00  0.00     0.210 HD
ENDBRANCH  12  15
BRANCH  13  17
ATOM     17  O   LIG     1     -29.958   0.901   5.413  0.00  0.00    -0.386 OA
ATOM     18  H   LIG     1     -30.789   0.438   5.615  0.00  0.00     0.210 HD
ENDBRANCH  13  17
BRANCH  14  19
ATOM     19  O   LIG     1     -28.669   2.930   8.161  0.00  0.00    -0.384 OA
ATOM     20  H   LIG     1     -27.937   2.328   8.376  0.00  0.00     0.210 HD
ENDBRANCH  14  19
ENDBRANCH   8   9
ENDBRANCH   7   8
ENDBRANCH   6   7
BRANCH   5  21
ATOM     21  O   LIG     1     -27.940   6.276   6.225  0.00  0.00    -0.386 OA
ATOM     22  H   LIG     1     -27.257   5.604   6.055  0.00  0.00     0.210 HD
ENDBRANCH   5  21
BRANCH   2  23
ATOM     23  O   LIG     1     -28.334   7.462   0.851  0.00  0.00    -0.345 OA
BRANCH  23  24
ATOM     24  C   LIG     1     -29.690   7.107   0.630  0.00  0.00     0.190 C 
BRANCH  24  25
ATOM     25  C   LIG     1     -30.518   8.352   0.621  0.00  0.00     0.001 C 
ATOM     26  C   LIG     1     -31.584   8.522  -0.175  0.00  0.00     0.006 C 
BRANCH  26  27
ATOM     27  C   LIG     1     -32.437   9.722  -0.209  0.00  0.00    -0.025 A 
ATOM     28  C   LIG     1     -33.327   9.895  -1.257  0.00  0.00     0.008 A 
ATOM     29  C   LIG     1     -34.134  11.031  -1.288  0.00  0.00     0.001 A 
ATOM     30  C   LIG     1     -34.041  11.982  -0.271  0.00  0.00     0.000 A 
ATOM     31  C   LIG     1     -33.141  11.795   0.778  0.00  0.00     0.001 A 
ATOM     32  C   LIG     1     -32.333  10.658   0.809  0.00  0.00     0.008 A 
ENDBRANCH  26  27
ENDBRANCH  24  25
ENDBRANCH  23  24
ENDBRANCH   2  23
BRANCH   4  33
ATOM     33  O   LIG     1     -27.825   9.027   5.346  0.00  0.00    -0.386 OA
ATOM     34  H   LIG     1     -27.592   9.831   4.853  0.00  0.00     0.210 HD
ENDBRANCH   4  33
BRANCH   3  35
ATOM     35  O   LIG     1     -26.876   9.182   2.561  0.00  0.00    -0.384 OA
ATOM     36  H   LIG     1     -27.151  10.088   2.779  0.00  0.00     0.210 HD
ENDBRANCH   3  35
TORSDOF 13
ENDMDL
MODEL 6
REMARK VINA RESULT:      -8.1      7.212     11.301
REMARK  13 active torsions:
REMARK  status: ('A' for Active; 'I' for Inactive)
REMARK    1  A    between atoms: C_2  and  O_12 
REMARK    2  A    between atoms: C_3  and  O_10 
REMARK    3  A    between atoms: C_4  and  O_8 
REMARK    4  A    between atoms: C_5  and  O_6 
REMARK    5  A    between atoms: C_22  and  C_23 
REMARK    6  A    between atoms: O_12  and  C_13 
REMARK    7  A    between atoms: C_13  and  C_14 
REMARK    8  A    between atoms: C_15  and  C_16 
REMARK    9  A    between atoms: C_23  and  O_24 
REMARK   10  A    between atoms: O_24  and  C_25 
REMARK   11  A    between atoms: C_26  and  O_34 
REMARK   12  A    between atoms: C_27  and  O_32 
REMARK   13  A    between atoms: C_28  and  O_30 
ROOT
ATOM      1  O   LIG     1     -30.993  11.065  -1.986  0.00  0.00    -0.341 OA
ATOM      2  C   LIG     1     -31.734  11.333  -3.175  0.00  0.00     0.282 C 
ATOM      3  C   LIG     1     -33.013  10.496  -3.208  0.00  0.00     0.201 C 
ATOM      4  C   LIG     1     -33.840  10.692  -1.938  0.00  0.00     0.179 C 
ATOM      5  C   LIG     1     -32.974  10.554  -0.686  0.00  0.00     0.177 C 
ATOM      6  C   LIG     1     -31.711  11.412  -0.802  0.00  0.00     0.178 C 
ENDROOT
BRANCH   6   7
ATOM      7  C   LIG     1     -30.774  11.201   0.384  0.00  0.00     0.197 C 
BRANCH   7   8
ATOM      8  O   LIG     1     -29.627  10.505  -0.067  0.00  0.00    -0.346 OA
BRANCH   8   9
ATOM      9  C   LIG     1     -29.242   9.478   0.841  0.00  0.00     0.281 C 
ATOM     10  O   LIG     1     -27.892   9.051   0.627  0.00  0.00    -0.346 OA
ATOM     11  C   LIG     1     -27.689   8.388  -0.619  0.00  0.00     0.197 C 
ATOM     12  C   LIG     1     -28.549   7.134  -0.706  0.00  0.00     0.171 C 
ATOM     13  C   LIG     1     -30.028   7.482  -0.529  0.00  0.00     0.178 C 
ATOM     14  C   LIG     1     -30.227   8.303   0.749  0.00  0.00     0.201 C 
BRANCH  12  15
ATOM     15  O   LIG     1     -28.352   6.484  -1.954  0.00  0.00    -0.387 OA
ATOM     16  H   LIG     1     -29.147   5.955  -2.138  0.00  0.00     0.210 HD
ENDBRANCH  12  15
BRANCH  13  17
ATOM     17  O   LIG     1     -30.473   8.235  -1.655  0.00  0.00    -0.386 OA
ATOM     18  H   LIG     1     -31.431   8.374  -1.555  0.00  0.00     0.210 HD
ENDBRANCH  13  17
BRANCH  14  19
ATOM     19  O   LIG     1     -30.022   7.466   1.885  0.00  0.00    -0.384 OA
ATOM     20  H   LIG     1     -29.541   6.672   1.599  0.00  0.00     0.210 HD
ENDBRANCH  14  19
ENDBRANCH   8   9
ENDBRANCH   7   8
ENDBRANCH   6   7
BRANCH   5  21
ATOM     21  O   LIG     1     -33.722  10.968   0.454  0.00  0.00    -0.386 OA
ATOM     22  H   LIG     1     -33.113  11.017   1.211  0.00  0.00     0.210 HD
ENDBRANCH   5  21
BRANCH   2  23
ATOM     23  O   LIG     1     -30.953  10.990  -4.318  0.00  0.00    -0.345 OA
BRANCH  23  24
ATOM     24  C   LIG     1     -29.590  10.798  -3.974  0.00  0.00     0.190 C 
BRANCH  24  25
ATOM     25  C   LIG     1     -29.030   9.700  -4.820  0.00  0.00     0.001 C 
ATOM     26  C   LIG     1     -29.793   8.830  -5.499  0.00  0.00     0.006 C 
BRANCH  26  27
ATOM     27  C   LIG     1     -29.287   7.744  -6.355  0.00  0.00    -0.025 A 
ATOM     28  C   LIG     1     -29.282   6.444  -5.873  0.00  0.00     0.008 A 
ATOM     29  C   LIG     1     -28.803   5.417  -6.684  0.00  0.00     0.001 A 
ATOM     30  C   LIG     1     -28.333   5.700  -7.966  0.00  0.00     0.000 A 
ATOM     31  C   LIG     1     -28.343   7.013  -8.438  0.00  0.00     0.001 A 
ATOM     32  C   LIG     1     -28.823   8.041  -7.627  0.00  0.00     0.008 A 
ENDBRANCH  26  27
ENDBRANCH  24  25
ENDBRANCH  23  24
ENDBRANCH   2  23
BRANCH   4  33
ATOM     33  O   LIG     1     -34.864   9.698  -1.878  0.00  0.00    -0.386 OA
ATOM     34  H   LIG     1     -34.495   8.878  -2.248  0.00  0.00     0.210 HD
ENDBRANCH   4  33
BRANCH   3  35
ATOM     35  O   LIG     1     -33.782  10.899  -4.341  0.00  0.00    -0.384 OA
ATOM     36  H   LIG     1     -34.093  11.807  -4.187  0.00  0.00     0.210 HD
ENDBRANCH   3  35
TORSDOF 13
ENDMDL
MODEL 7
REMARK VINA RESULT:      -8.1      5.947      8.310
REMARK  13 active torsions:
REMARK  status: ('A' for Active; 'I' for Inactive)
REMARK    1  A    between atoms: C_2  and  O_12 
REMARK    2  A    between atoms: C_3  and  O_10 
REMARK    3  A    between atoms: C_4  and  O_8 
REMARK    4  A    between atoms: C_5  and  O_6 
REMARK    5  A    between atoms: C_22  and  C_23 
REMARK    6  A    between atoms: O_12  and  C_13 
REMARK    7  A    between atoms: C_13  and  C_14 
REMARK    8  A    between atoms: C_15  and  C_16 
REMARK    9  A    between atoms: C_23  and  O_24 
REMARK   10  A    between atoms: O_24  and  C_25 
REMARK   11  A    between atoms: C_26  and  O_34 
REMARK   12  A    between atoms: C_27  and  O_32 
REMARK   13  A    between atoms: C_28  and  O_30 
ROOT
ATOM      1  O   LIG     1     -31.223   8.633   2.849  0.00  0.00    -0.341 OA
ATOM      2  C   LIG     1     -31.599   9.837   3.514  0.00  0.00     0.282 C 
ATOM      3  C   LIG     1     -30.769  10.029   4.783  0.00  0.00     0.201 C 
ATOM      4  C   LIG     1     -29.272   9.959   4.485  0.00  0.00     0.179 C 
ATOM      5  C   LIG     1     -28.932   8.737   3.634  0.00  0.00     0.177 C 
ATOM      6  C   LIG     1     -29.861   8.645   2.420  0.00  0.00     0.178 C 
ENDROOT
BRANCH   6   7
ATOM      7  C   LIG     1     -29.618   7.369   1.618  0.00  0.00     0.197 C 
BRANCH   7   8
ATOM      8  O   LIG     1     -29.913   7.630   0.258  0.00  0.00    -0.346 OA
BRANCH   8   9
ATOM      9  C   LIG     1     -28.913   7.106  -0.609  0.00  0.00     0.281 C 
ATOM     10  O   LIG     1     -27.875   8.058  -0.868  0.00  0.00    -0.346 OA
ATOM     11  C   LIG     1     -28.307   9.188  -1.622  0.00  0.00     0.197 C 
ATOM     12  C   LIG     1     -28.836   8.756  -2.983  0.00  0.00     0.171 C 
ATOM     13  C   LIG     1     -29.985   7.758  -2.823  0.00  0.00     0.178 C 
ATOM     14  C   LIG     1     -29.558   6.604  -1.910  0.00  0.00     0.201 C 
BRANCH  12  15
ATOM     15  O   LIG     1     -29.277   9.884  -3.725  0.00  0.00    -0.387 OA
ATOM     16  H   LIG     1     -28.791  10.660  -3.397  0.00  0.00     0.210 HD
ENDBRANCH  12  15
BRANCH  13  17
ATOM     17  O   LIG     1     -31.112   8.424  -2.257  0.00  0.00    -0.386 OA
ATOM     18  H   LIG     1     -31.584   8.869  -2.982  0.00  0.00     0.210 HD
ENDBRANCH  13  17
BRANCH  14  19
ATOM     19  O   LIG     1     -28.605   5.791  -2.590  0.00  0.00    -0.384 OA
ATOM     20  H   LIG     1     -28.547   6.091  -3.512  0.00  0.00     0.210 HD
ENDBRANCH  14  19
ENDBRANCH   8   9
ENDBRANCH   7   8
ENDBRANCH   6   7
BRANCH   5  21
ATOM     21  O   LIG     1     -27.582   8.832   3.188  0.00  0.00    -0.386 OA
ATOM     22  H   LIG     1     -27.576   9.330   2.353  0.00  0.00     0.210 HD
ENDBRANCH   5  21
BRANCH   2  23
ATOM     23  O   LIG     1     -32.973   9.770   3.891  0.00  0.00    -0.345 OA
BRANCH  23  24
ATOM     24  C   LIG     1     -33.726  10.808   3.285  0.00  0.00     0.190 C 
BRANCH  24  25
ATOM     25  C   LIG     1     -33.177  11.068   1.919  0.00  0.00     0.001 C 
ATOM     26  C   LIG     1     -33.889  11.634   0.933  0.00  0.00     0.006 C 
BRANCH  26  27
ATOM     27  C   LIG     1     -33.386  11.922  -0.421  0.00  0.00    -0.025 A 
ATOM     28  C   LIG     1     -32.058  11.663  -0.722  0.00  0.00     0.008 A 
ATOM     29  C   LIG     1     -31.583  11.935  -2.004  0.00  0.00     0.001 A 
ATOM     30  C   LIG     1     -32.440  12.464  -2.969  0.00  0.00     0.000 A 
ATOM     31  C   LIG     1     -33.773  12.720  -2.652  0.00  0.00     0.001 A 
ATOM     32  C   LIG     1     -34.249  12.447  -1.369  0.00  0.00     0.008 A 
ENDBRANCH  26  27
ENDBRANCH  24  25
ENDBRANCH  23  24
ENDBRANCH   2  23
BRANCH   4  33
ATOM     33  O   LIG     1     -28.547   9.858   5.712  0.00  0.00    -0.386 OA
ATOM     34  H   LIG     1     -28.726   8.978   6.084  0.00  0.00     0.210 HD
ENDBRANCH   4  33
BRANCH   3  35
ATOM     35  O   LIG     1     -31.084  11.307   5.334  0.00  0.00    -0.384 OA
ATOM     36  H   LIG     1     -30.934  11.977   4.647  0.00  0.00     0.210 HD
ENDBRANCH   3  35
TORSDOF 13
ENDMDL
MODEL 8
REMARK VINA RESULT:      -8.0      2.425      4.819
REMARK  13 active torsions:
REMARK  status: ('A' for Active; 'I' for Inactive)
REMARK    1  A    between atoms: C_2  and  O_12 
REMARK    2  A    between atoms: C_3  and  O_10 
REMARK    3  A    between atoms: C_4  and  O_8 
REMARK    4  A    between atoms: C_5  and  O_6 
REMARK    5  A    between atoms: C_22  and  C_23 
REMARK    6  A    between atoms: O_12  and  C_13 
REMARK    7  A    between atoms: C_13  and  C_14 
REMARK    8  A    between atoms: C_15  and  C_16 
REMARK    9  A    between atoms: C_23  and  O_24 
REMARK   10  A    between atoms: O_24  and  C_25 
REMARK   11  A    between atoms: C_26  and  O_34 
REMARK   12  A    between atoms: C_27  and  O_32 
REMARK   13  A    between atoms: C_28  and  O_30 
ROOT
ATOM      1  O   LIG     1     -30.336   8.054   4.338  0.00  0.00    -0.341 OA
ATOM      2  C   LIG     1     -30.408   9.339   3.725  0.00  0.00     0.282 C 
ATOM      3  C   LIG     1     -29.039  10.019   3.743  0.00  0.00     0.201 C 
ATOM      4  C   LIG     1     -27.966   9.126   3.122  0.00  0.00     0.179 C 
ATOM      5  C   LIG     1     -28.025   7.710   3.693  0.00  0.00     0.177 C 
ATOM      6  C   LIG     1     -29.455   7.166   3.649  0.00  0.00     0.178 C 
ENDROOT
BRANCH   6   7
ATOM      7  C   LIG     1     -29.561   5.799   4.319  0.00  0.00     0.197 C 
BRANCH   7   8
ATOM      8  O   LIG     1     -28.454   5.636   5.187  0.00  0.00    -0.346 OA
BRANCH   8   9
ATOM      9  C   LIG     1     -28.343   4.297   5.655  0.00  0.00     0.281 C 
ATOM     10  O   LIG     1     -28.028   4.240   7.051  0.00  0.00    -0.346 OA
ATOM     11  C   LIG     1     -26.729   4.736   7.367  0.00  0.00     0.197 C 
ATOM     12  C   LIG     1     -25.656   3.921   6.656  0.00  0.00     0.171 C 
ATOM     13  C   LIG     1     -25.875   3.944   5.143  0.00  0.00     0.178 C 
ATOM     14  C   LIG     1     -27.313   3.531   4.812  0.00  0.00     0.201 C 
BRANCH  12  15
ATOM     15  O   LIG     1     -24.364   4.426   6.965  0.00  0.00    -0.387 OA
ATOM     16  H   LIG     1     -24.255   4.384   7.930  0.00  0.00     0.210 HD
ENDBRANCH  12  15
BRANCH  13  17
ATOM     17  O   LIG     1     -25.632   5.262   4.652  0.00  0.00    -0.386 OA
ATOM     18  H   LIG     1     -24.956   5.194   3.955  0.00  0.00     0.210 HD
ENDBRANCH  13  17
BRANCH  14  19
ATOM     19  O   LIG     1     -27.476   2.139   5.073  0.00  0.00    -0.384 OA
ATOM     20  H   LIG     1     -28.407   1.905   4.922  0.00  0.00     0.210 HD
ENDBRANCH  14  19
ENDBRANCH   8   9
ENDBRANCH   7   8
ENDBRANCH   6   7
BRANCH   5  21
ATOM     21  O   LIG     1     -27.173   6.858   2.931  0.00  0.00    -0.386 OA
ATOM     22  H   LIG     1     -26.257   7.016   3.219  0.00  0.00     0.210 HD
ENDBRANCH   5  21
BRANCH   2  23
ATOM     23  O   LIG     1     -31.321  10.166   4.444  0.00  0.00    -0.345 OA
BRANCH  23  24
ATOM     24  C   LIG     1     -32.610  10.151   3.853  0.00  0.00     0.190 C 
BRANCH  24  25
ATOM     25  C   LIG     1     -32.478  10.485   2.402  0.00  0.00     0.001 C 
ATOM     26  C   LIG     1     -33.304  11.327   1.761  0.00  0.00     0.006 C 
BRANCH  26  27
ATOM     27  C   LIG     1     -33.204  11.697   0.339  0.00  0.00    -0.025 A 
ATOM     28  C   LIG     1     -31.993  11.548  -0.318  0.00  0.00     0.008 A 
ATOM     29  C   LIG     1     -31.900  11.898  -1.665  0.00  0.00     0.001 A 
ATOM     30  C   LIG     1     -33.017  12.394  -2.337  0.00  0.00     0.000 A 
ATOM     31  C   LIG     1     -34.229  12.538  -1.663  0.00  0.00     0.001 A 
ATOM     32  C   LIG     1     -34.323  12.188  -0.315  0.00  0.00     0.008 A 
ENDBRANCH  26  27
ENDBRANCH  24  25
ENDBRANCH  23  24
ENDBRANCH   2  23
BRANCH   4  33
ATOM     33  O   LIG     1     -26.674   9.664   3.410  0.00  0.00    -0.386 OA
ATOM     34  H   LIG     1     -26.025   9.157   2.892  0.00  0.00     0.210 HD
ENDBRANCH   4  33
BRANCH   3  35
ATOM     35  O   LIG     1     -29.133  11.235   3.001  0.00  0.00    -0.384 OA
ATOM     36  H   LIG     1     -28.458  11.214   2.302  0.00  0.00     0.210 HD
ENDBRANCH   3  35
TORSDOF 13
ENDMDL
MODEL 9
REMARK VINA RESULT:      -8.0      2.634      4.158
REMARK  13 active torsions:
REMARK  status: ('A' for Active; 'I' for Inactive)
REMARK    1  A    between atoms: C_2  and  O_12 
REMARK    2  A    between atoms: C_3  and  O_10 
REMARK    3  A    between atoms: C_4  and  O_8 
REMARK    4  A    between atoms: C_5  and  O_6 
REMARK    5  A    between atoms: C_22  and  C_23 
REMARK    6  A    between atoms: O_12  and  C_13 
REMARK    7  A    between atoms: C_13  and  C_14 
REMARK    8  A    between atoms: C_15  and  C_16 
REMARK    9  A    between atoms: C_23  and  O_24 
REMARK   10  A    between atoms: O_24  and  C_25 
REMARK   11  A    between atoms: C_26  and  O_34 
REMARK   12  A    between atoms: C_27  and  O_32 
REMARK   13  A    between atoms: C_28  and  O_30 
ROOT
ATOM      1  O   LIG     1     -28.918   6.650   2.232  0.00  0.00    -0.341 OA
ATOM      2  C   LIG     1     -27.961   7.210   1.336  0.00  0.00     0.282 C 
ATOM      3  C   LIG     1     -27.450   8.550   1.867  0.00  0.00     0.201 C 
ATOM      4  C   LIG     1     -26.919   8.418   3.294  0.00  0.00     0.179 C 
ATOM      5  C   LIG     1     -27.908   7.670   4.186  0.00  0.00     0.177 C 
ATOM      6  C   LIG     1     -28.366   6.370   3.520  0.00  0.00     0.178 C 
ENDROOT
BRANCH   6   7
ATOM      7  C   LIG     1     -29.442   5.663   4.338  0.00  0.00     0.197 C 
BRANCH   7   8
ATOM      8  O   LIG     1     -28.808   4.848   5.308  0.00  0.00    -0.346 OA
BRANCH   8   9
ATOM      9  C   LIG     1     -28.332   3.630   4.745  0.00  0.00     0.281 C 
ATOM     10  O   LIG     1     -29.221   2.537   5.001  0.00  0.00    -0.346 OA
ATOM     11  C   LIG     1     -29.304   2.174   6.378  0.00  0.00     0.197 C 
ATOM     12  C   LIG     1     -27.941   1.744   6.902  0.00  0.00     0.171 C 
ATOM     13  C   LIG     1     -26.913   2.861   6.713  0.00  0.00     0.178 C 
ATOM     14  C   LIG     1     -26.914   3.337   5.256  0.00  0.00     0.201 C 
BRANCH  12  15
ATOM     15  O   LIG     1     -28.026   1.395   8.277  0.00  0.00    -0.387 OA
ATOM     16  H   LIG     1     -27.375   1.934   8.758  0.00  0.00     0.210 HD
ENDBRANCH  12  15
BRANCH  13  17
ATOM     17  O   LIG     1     -27.239   3.952   7.572  0.00  0.00    -0.386 OA
ATOM     18  H   LIG     1     -27.719   3.589   8.337  0.00  0.00     0.210 HD
ENDBRANCH  13  17
BRANCH  14  19
ATOM     19  O   LIG     1     -26.347   2.324   4.428  0.00  0.00    -0.384 OA
ATOM     20  H   LIG     1     -27.041   1.987   3.837  0.00  0.00     0.210 HD
ENDBRANCH  14  19
ENDBRANCH   8   9
ENDBRANCH   7   8
ENDBRANCH   6   7
BRANCH   5  21
ATOM     21  O   LIG     1     -27.285   7.367   5.432  0.00  0.00    -0.386 OA
ATOM     22  H   LIG     1     -26.570   6.730   5.262  0.00  0.00     0.210 HD
ENDBRANCH   5  21
BRANCH   2  23
ATOM     23  O   LIG     1     -28.567   7.441   0.066  0.00  0.00    -0.345 OA
BRANCH  23  24
ATOM     24  C   LIG     1     -29.956   7.158   0.097  0.00  0.00     0.190 C 
BRANCH  24  25
ATOM     25  C   LIG     1     -30.712   8.446   0.053  0.00  0.00     0.001 C 
ATOM     26  C   LIG     1     -31.914   8.577  -0.530  0.00  0.00     0.006 C 
BRANCH  26  27
ATOM     27  C   LIG     1     -32.701   9.821  -0.584  0.00  0.00    -0.025 A 
ATOM     28  C   LIG     1     -32.640  10.710   0.477  0.00  0.00     0.008 A 
ATOM     29  C   LIG     1     -33.385  11.888   0.425  0.00  0.00     0.001 A 
ATOM     30  C   LIG     1     -34.182  12.161  -0.687  0.00  0.00     0.000 A 
ATOM     31  C   LIG     1     -34.233  11.257  -1.747  0.00  0.00     0.001 A 
ATOM     32  C   LIG     1     -33.488  10.079  -1.695  0.00  0.00     0.008 A 
ENDBRANCH  26  27
ENDBRANCH  24  25
ENDBRANCH  23  24
ENDBRANCH   2  23
BRANCH   4  33
ATOM     33  O   LIG     1     -26.719   9.719   3.850  0.00  0.00    -0.386 OA
ATOM     34  H   LIG     1     -25.769   9.816   4.028  0.00  0.00     0.210 HD
ENDBRANCH   4  33
BRANCH   3  35
ATOM     35  O   LIG     1     -26.401   9.000   1.010  0.00  0.00    -0.384 OA
ATOM     36  H   LIG     1     -25.815   8.246   0.829  0.00  0.00     0.210 HD
ENDBRANCH   3  35
TORSDOF 13
ENDMDL
