REMARK VINA RESULT:      -5.2      2.361      3.936
REMARK  5 active torsions:
REMARK  status: ('A' for Active; 'I' for Inactive)
REMARK    1  A    between atoms: C_1  and  O_7 
REMARK    2  A    between atoms: C_2  and  O_13 
REMARK    3  A    between atoms: C_4  and  C_9 
REMARK    4  A    between atoms: C_6  and  O_15 
REMARK    5  A    between atoms: C_9  and  O_11 
ROOT
ATOM      1  C   UNL     1     186.967 184.649 175.457  0.00  0.00     0.201 A 
ATOM      2  C   UNL     1     186.804 183.899 174.292  0.00  0.00     0.163 A 
ATOM      3  C   UNL     1     185.728 184.155 173.442  0.00  0.00     0.064 A 
ATOM      4  C   UNL     1     184.813 185.160 173.758  0.00  0.00     0.066 A 
ATOM      5  C   UNL     1     184.976 185.909 174.923  0.00  0.00     0.064 A 
ATOM      6  C   UNL     1     186.051 185.654 175.773  0.00  0.00     0.163 A 
ENDROOT
BRANCH   4   7
ATOM      7  C   UNL     1     183.692 185.427 172.872  0.00  0.00     0.337 C 
ATOM      8  O   UNL     1     183.758 186.033 171.797  0.00  0.00    -0.245 OA
BRANCH   7   9
ATOM      9  O   UNL     1     182.519 184.931 173.352  0.00  0.00    -0.477 OA
ATOM     10  H   UNL     1     181.753 185.206 172.803  0.00  0.00     0.295 HD
ENDBRANCH   7   9
ENDBRANCH   4   7
BRANCH   2  11
ATOM     11  O   UNL     1     187.692 182.916 173.971  0.00  0.00    -0.503 OA
ATOM     12  H   UNL     1     187.296 182.362 173.277  0.00  0.00     0.292 HD
ENDBRANCH   2  11
BRANCH   6  13
ATOM     13  O   UNL     1     186.199 186.391 176.908  0.00  0.00    -0.503 OA
ATOM     14  H   UNL     1     186.829 185.942 177.499  0.00  0.00     0.292 HD
ENDBRANCH   6  13
BRANCH   1  15
ATOM     15  O   UNL     1     188.019 184.400 176.287  0.00  0.00    -0.501 OA
ATOM     16  H   UNL     1     187.891 184.908 177.107  0.00  0.00     0.292 HD
ENDBRANCH   1  15
TORSDOF 5
