REMARK VINA RESULT:      -5.4      1.512      1.624
REMARK  5 active torsions:
REMARK  status: ('A' for Active; 'I' for Inactive)
REMARK    1  A    between atoms: C_1  and  O_7 
REMARK    2  A    between atoms: C_2  and  O_13 
REMARK    3  A    between atoms: C_4  and  C_9 
REMARK    4  A    between atoms: C_6  and  O_15 
REMARK    5  A    between atoms: C_9  and  O_11 
ROOT
ATOM      1  C   UNL     1     185.724 185.121 175.159  0.00  0.00     0.201 A 
ATOM      2  C   UNL     1     185.089 186.047 174.330  0.00  0.00     0.163 A 
ATOM      3  C   UNL     1     185.775 186.600 173.249  0.00  0.00     0.064 A 
ATOM      4  C   UNL     1     187.097 186.230 172.997  0.00  0.00     0.066 A 
ATOM      5  C   UNL     1     187.731 185.305 173.826  0.00  0.00     0.064 A 
ATOM      6  C   UNL     1     187.046 184.751 174.907  0.00  0.00     0.163 A 
ENDROOT
BRANCH   4   7
ATOM      7  C   UNL     1     187.812 186.806 171.869  0.00  0.00     0.337 C 
ATOM      8  O   UNL     1     188.826 186.332 171.348  0.00  0.00    -0.245 OA
BRANCH   7   9
ATOM      9  O   UNL     1     187.240 187.958 171.425  0.00  0.00    -0.477 OA
ATOM     10  H   UNL     1     187.567 188.742 171.916  0.00  0.00     0.295 HD
ENDBRANCH   7   9
ENDBRANCH   4   7
BRANCH   2  11
ATOM     11  O   UNL     1     183.798 186.416 174.563  0.00  0.00    -0.503 OA
ATOM     12  H   UNL     1     183.565 187.123 173.938  0.00  0.00     0.292 HD
ENDBRANCH   2  11
BRANCH   6  13
ATOM     13  O   UNL     1     187.676 183.849 175.710  0.00  0.00    -0.503 OA
ATOM     14  H   UNL     1     187.830 183.030 175.208  0.00  0.00     0.292 HD
ENDBRANCH   6  13
BRANCH   1  15
ATOM     15  O   UNL     1     185.053 184.580 176.215  0.00  0.00    -0.501 OA
ATOM     16  H   UNL     1     184.120 184.848 176.156  0.00  0.00     0.292 HD
ENDBRANCH   1  15
TORSDOF 5
