REMARK VINA RESULT:      -5.6      0.009      2.402
REMARK  5 active torsions:
REMARK  status: ('A' for Active; 'I' for Inactive)
REMARK    1  A    between atoms: C_1  and  O_7 
REMARK    2  A    between atoms: C_2  and  O_13 
REMARK    3  A    between atoms: C_4  and  C_9 
REMARK    4  A    between atoms: C_6  and  O_15 
REMARK    5  A    between atoms: C_9  and  O_11 
ROOT
ATOM      1  C   UNL     1     185.056 184.096 175.214  0.00  0.00     0.201 A 
ATOM      2  C   UNL     1     186.025 183.375 174.515  0.00  0.00     0.163 A 
ATOM      3  C   UNL     1     186.994 184.049 173.772  0.00  0.00     0.064 A 
ATOM      4  C   UNL     1     186.993 185.444 173.726  0.00  0.00     0.066 A 
ATOM      5  C   UNL     1     186.024 186.163 174.424  0.00  0.00     0.064 A 
ATOM      6  C   UNL     1     185.055 185.490 175.168  0.00  0.00     0.163 A 
ENDROOT
BRANCH   4   7
ATOM      7  C   UNL     1     188.004 186.147 172.951  0.00  0.00     0.337 C 
ATOM      8  O   UNL     1     188.348 185.862 171.800  0.00  0.00    -0.245 OA
BRANCH   7   9
ATOM      9  O   UNL     1     188.555 187.185 173.637  0.00  0.00    -0.477 OA
ATOM     10  H   UNL     1     187.883 187.682 174.151  0.00  0.00     0.295 HD
ENDBRANCH   7   9
ENDBRANCH   4   7
BRANCH   2  11
ATOM     11  O   UNL     1     186.038 182.013 174.554  0.00  0.00    -0.503 OA
ATOM     12  H   UNL     1     185.205 181.711 174.954  0.00  0.00     0.292 HD
ENDBRANCH   2  11
BRANCH   6  13
ATOM     13  O   UNL     1     184.113 186.204 175.845  0.00  0.00    -0.503 OA
ATOM     14  H   UNL     1     184.439 186.388 176.743  0.00  0.00     0.292 HD
ENDBRANCH   6  13
BRANCH   1  15
ATOM     15  O   UNL     1     184.109 183.437 175.942  0.00  0.00    -0.501 OA
ATOM     16  H   UNL     1     183.820 184.018 176.666  0.00  0.00     0.292 HD
ENDBRANCH   1  15
TORSDOF 5
