REMARK VINA RESULT:      -5.5      1.706      4.279
REMARK  5 active torsions:
REMARK  status: ('A' for Active; 'I' for Inactive)
REMARK    1  A    between atoms: C_1  and  O_7 
REMARK    2  A    between atoms: C_2  and  O_13 
REMARK    3  A    between atoms: C_4  and  C_9 
REMARK    4  A    between atoms: C_6  and  O_15 
REMARK    5  A    between atoms: C_9  and  O_11 
ROOT
ATOM      1  C   UNL     1     186.831 184.789 174.748  0.00  0.00     0.201 A 
ATOM      2  C   UNL     1     185.690 185.399 175.271  0.00  0.00     0.163 A 
ATOM      3  C   UNL     1     184.540 184.645 175.503  0.00  0.00     0.064 A 
ATOM      4  C   UNL     1     184.529 183.280 175.211  0.00  0.00     0.066 A 
ATOM      5  C   UNL     1     185.669 182.671 174.689  0.00  0.00     0.064 A 
ATOM      6  C   UNL     1     186.820 183.424 174.457  0.00  0.00     0.163 A 
ENDROOT
BRANCH   4   7
ATOM      7  C   UNL     1     183.330 182.494 175.454  0.00  0.00     0.337 C 
ATOM      8  O   UNL     1     182.255 182.627 174.860  0.00  0.00    -0.245 OA
BRANCH   7   9
ATOM      9  O   UNL     1     183.506 181.565 176.432  0.00  0.00    -0.477 OA
ATOM     10  H   UNL     1     184.069 181.904 177.161  0.00  0.00     0.295 HD
ENDBRANCH   7   9
ENDBRANCH   4   7
BRANCH   2  11
ATOM     11  O   UNL     1     185.688 186.730 175.562  0.00  0.00    -0.503 OA
ATOM     12  H   UNL     1     186.094 186.852 176.437  0.00  0.00     0.292 HD
ENDBRANCH   2  11
BRANCH   6  13
ATOM     13  O   UNL     1     187.927 182.818 173.946  0.00  0.00    -0.503 OA
ATOM     14  H   UNL     1     188.557 183.500 173.656  0.00  0.00     0.292 HD
ENDBRANCH   6  13
BRANCH   1  15
ATOM     15  O   UNL     1     187.955 185.525 174.523  0.00  0.00    -0.501 OA
ATOM     16  H   UNL     1     188.603 184.963 174.062  0.00  0.00     0.292 HD
ENDBRANCH   1  15
TORSDOF 5
