REMARK VINA RESULT:      -5.5      1.707      4.904
REMARK  5 active torsions:
REMARK  status: ('A' for Active; 'I' for Inactive)
REMARK    1  A    between atoms: C_1  and  O_7 
REMARK    2  A    between atoms: C_2  and  O_13 
REMARK    3  A    between atoms: C_4  and  C_9 
REMARK    4  A    between atoms: C_6  and  O_15 
REMARK    5  A    between atoms: C_9  and  O_11 
ROOT
ATOM      1  C   UNL     1     186.828 184.781 174.746  0.00  0.00     0.201 A 
ATOM      2  C   UNL     1     186.818 183.416 174.457  0.00  0.00     0.163 A 
ATOM      3  C   UNL     1     185.668 182.662 174.689  0.00  0.00     0.064 A 
ATOM      4  C   UNL     1     184.526 183.273 175.210  0.00  0.00     0.066 A 
ATOM      5  C   UNL     1     184.537 184.638 175.498  0.00  0.00     0.064 A 
ATOM      6  C   UNL     1     185.687 185.391 175.267  0.00  0.00     0.163 A 
ENDROOT
BRANCH   4   7
ATOM      7  C   UNL     1     183.326 182.488 175.450  0.00  0.00     0.337 C 
ATOM      8  O   UNL     1     182.255 182.617 174.850  0.00  0.00    -0.245 OA
BRANCH   7   9
ATOM      9  O   UNL     1     183.498 181.563 176.434  0.00  0.00    -0.477 OA
ATOM     10  H   UNL     1     184.147 181.862 177.107  0.00  0.00     0.295 HD
ENDBRANCH   7   9
ENDBRANCH   4   7
BRANCH   2  11
ATOM     11  O   UNL     1     187.925 182.807 173.946  0.00  0.00    -0.503 OA
ATOM     12  H   UNL     1     188.275 182.196 174.617  0.00  0.00     0.292 HD
ENDBRANCH   2  11
BRANCH   6  13
ATOM     13  O   UNL     1     185.685 186.723 175.553  0.00  0.00    -0.503 OA
ATOM     14  H   UNL     1     185.011 187.164 175.007  0.00  0.00     0.292 HD
ENDBRANCH   6  13
BRANCH   1  15
ATOM     15  O   UNL     1     187.952 185.518 174.519  0.00  0.00    -0.501 OA
ATOM     16  H   UNL     1     188.355 185.214 173.687  0.00  0.00     0.292 HD
ENDBRANCH   1  15
TORSDOF 5
