REMARK VINA RESULT:      -6.5      3.726      7.412
REMARK  5 active torsions:
REMARK  status: ('A' for Active; 'I' for Inactive)
REMARK    1  A    between atoms: O_2  and  C_13 
REMARK    2  A    between atoms: O_4  and  C_16 
REMARK    3  A    between atoms: O_5  and  C_19 
REMARK    4  A    between atoms: O_6  and  C_21 
REMARK    5  A    between atoms: C_9  and  C_10 
ROOT
HETATM    1  O   UNK     0     183.885 186.219 171.569  0.00  0.00    -0.309 OA
HETATM    2  O   UNK     0     187.696 187.647 171.366  0.00  0.00    -0.287 OA
HETATM    3  C   UNK     0     185.472 187.768 170.577  0.00  0.00     0.081 A 
HETATM    4  C   UNK     0     184.191 187.234 170.698  0.00  0.00     0.095 A 
HETATM    5  C   UNK     0     184.900 185.698 172.358  0.00  0.00     0.090 A 
HETATM    6  C   UNK     0     186.549 187.224 171.418  0.00  0.00     0.190 A 
HETATM    7  C   UNK     0     186.170 186.131 172.338  0.00  0.00     0.094 A 
HETATM    8  C   UNK     0     185.724 188.801 169.672  0.00  0.00     0.085 A 
HETATM    9  C   UNK     0     183.151 187.732 169.913  0.00  0.00     0.075 A 
HETATM   10  C   UNK     0     183.398 188.765 169.008  0.00  0.00     0.071 A 
HETATM   11  C   UNK     0     184.682 189.297 168.888  0.00  0.00     0.074 A 
ENDROOT
BRANCH   5  12
HETATM   12  C   UNK     0     184.462 184.617 173.262  0.00  0.00     0.001 A 
HETATM   13  C   UNK     0     185.403 183.892 173.998  0.00  0.00     0.053 A 
HETATM   14  C   UNK     0     184.990 182.871 174.852  0.00  0.00     0.099 A 
HETATM   15  C   UNK     0     183.633 182.569 174.974  0.00  0.00     0.098 A 
HETATM   16  C   UNK     0     182.691 183.289 174.240  0.00  0.00     0.040 A 
HETATM   17  C   UNK     0     183.105 184.311 173.385  0.00  0.00     0.017 A 
BRANCH  14  18
HETATM   18  O   UNK     0     185.920 182.173 175.563  0.00  0.00    -0.358 OA
HETATM   19  H   UNK     0     185.510 181.348 175.875  0.00  0.00     0.217 HD
ENDBRANCH  14  18
BRANCH  15  20
HETATM   20  O   UNK     0     183.217 181.574 175.805  0.00  0.00    -0.358 OA
HETATM   21  H   UNK     0     183.246 180.728 175.326  0.00  0.00     0.217 HD
ENDBRANCH  15  20
ENDBRANCH   5  12
BRANCH   8  22
HETATM   22  O   UNK     0     186.958 189.356 169.517  0.00  0.00    -0.360 OA
HETATM   23  H   UNK     0     187.297 189.188 168.624  0.00  0.00     0.217 HD
ENDBRANCH   8  22
BRANCH  10  24
HETATM   24  O   UNK     0     182.385 189.254 168.241  0.00  0.00    -0.361 OA
HETATM   25  H   UNK     0     182.765 189.755 167.499  0.00  0.00     0.217 HD
ENDBRANCH  10  24
TORSDOF 5
