REMARK VINA RESULT:      -6.6      4.842      7.150
REMARK  5 active torsions:
REMARK  status: ('A' for Active; 'I' for Inactive)
REMARK    1  A    between atoms: O_2  and  C_13 
REMARK    2  A    between atoms: O_4  and  C_16 
REMARK    3  A    between atoms: O_5  and  C_19 
REMARK    4  A    between atoms: O_6  and  C_21 
REMARK    5  A    between atoms: C_9  and  C_10 
ROOT
HETATM    1  O   UNK     0     185.462 187.558 171.676  0.00  0.00    -0.309 OA
HETATM    2  O   UNK     0     181.986 186.105 170.124  0.00  0.00    -0.287 OA
HETATM    3  C   UNK     0     183.614 187.818 170.120  0.00  0.00     0.081 A 
HETATM    4  C   UNK     0     184.806 188.256 170.694  0.00  0.00     0.095 A 
HETATM    5  C   UNK     0     184.908 186.367 172.122  0.00  0.00     0.090 A 
HETATM    6  C   UNK     0     183.028 186.551 170.584  0.00  0.00     0.190 A 
HETATM    7  C   UNK     0     183.770 185.838 171.645  0.00  0.00     0.094 A 
HETATM    8  C   UNK     0     182.991 188.571 169.123  0.00  0.00     0.085 A 
HETATM    9  C   UNK     0     185.384 189.453 170.271  0.00  0.00     0.075 A 
HETATM   10  C   UNK     0     184.765 190.208 169.274  0.00  0.00     0.071 A 
HETATM   11  C   UNK     0     183.572 189.768 168.702  0.00  0.00     0.074 A 
ENDROOT
BRANCH   5  12
HETATM   12  C   UNK     0     185.695 185.696 173.174  0.00  0.00     0.001 A 
HETATM   13  C   UNK     0     185.636 186.150 174.494  0.00  0.00     0.053 A 
HETATM   14  C   UNK     0     186.381 185.516 175.488  0.00  0.00     0.099 A 
HETATM   15  C   UNK     0     187.186 184.423 175.166  0.00  0.00     0.098 A 
HETATM   16  C   UNK     0     187.248 183.967 173.850  0.00  0.00     0.040 A 
HETATM   17  C   UNK     0     186.504 184.602 172.855  0.00  0.00     0.017 A 
BRANCH  14  18
HETATM   18  O   UNK     0     186.313 185.971 176.770  0.00  0.00    -0.358 OA
HETATM   19  H   UNK     0     185.407 185.836 177.095  0.00  0.00     0.217 HD
ENDBRANCH  14  18
BRANCH  15  20
HETATM   20  O   UNK     0     187.917 183.794 176.128  0.00  0.00    -0.358 OA
HETATM   21  H   UNK     0     187.414 183.797 176.960  0.00  0.00     0.217 HD
ENDBRANCH  15  20
ENDBRANCH   5  12
BRANCH   8  22
HETATM   22  O   UNK     0     181.826 188.185 168.532  0.00  0.00    -0.360 OA
HETATM   23  H   UNK     0     181.099 188.768 168.801  0.00  0.00     0.217 HD
ENDBRANCH   8  22
BRANCH  10  24
HETATM   24  O   UNK     0     185.327 191.377 168.859  0.00  0.00    -0.361 OA
HETATM   25  H   UNK     0     186.150 191.179 168.380  0.00  0.00     0.217 HD
ENDBRANCH  10  24
TORSDOF 5
