REMARK VINA RESULT:      -6.5     13.193     15.304
REMARK  5 active torsions:
REMARK  status: ('A' for Active; 'I' for Inactive)
REMARK    1  A    between atoms: O_2  and  C_13 
REMARK    2  A    between atoms: O_4  and  C_16 
REMARK    3  A    between atoms: O_5  and  C_19 
REMARK    4  A    between atoms: O_6  and  C_21 
REMARK    5  A    between atoms: C_9  and  C_10 
ROOT
HETATM    1  O   UNK     0     176.679 170.679 175.341  0.00  0.00    -0.309 OA
HETATM    2  O   UNK     0     174.359 167.571 174.095  0.00  0.00    -0.287 OA
HETATM    3  C   UNK     0     175.394 169.628 173.568  0.00  0.00     0.081 A 
HETATM    4  C   UNK     0     176.193 170.659 174.058  0.00  0.00     0.095 A 
HETATM    5  C   UNK     0     176.353 169.630 176.187  0.00  0.00     0.090 A 
HETATM    6  C   UNK     0     175.053 168.509 174.460  0.00  0.00     0.190 A 
HETATM    7  C   UNK     0     175.598 168.579 175.831  0.00  0.00     0.094 A 
HETATM    8  C   UNK     0     174.928 169.661 172.252  0.00  0.00     0.085 A 
HETATM    9  C   UNK     0     176.532 171.731 173.233  0.00  0.00     0.075 A 
HETATM   10  C   UNK     0     176.069 171.767 171.917  0.00  0.00     0.071 A 
HETATM   11  C   UNK     0     175.268 170.735 171.428  0.00  0.00     0.074 A 
ENDROOT
BRANCH   5  12
HETATM   12  C   UNK     0     176.932 169.748 177.540  0.00  0.00     0.001 A 
HETATM   13  C   UNK     0     177.983 168.915 177.930  0.00  0.00     0.053 A 
HETATM   14  C   UNK     0     178.530 169.027 179.208  0.00  0.00     0.099 A 
HETATM   15  C   UNK     0     178.027 169.973 180.101  0.00  0.00     0.098 A 
HETATM   16  C   UNK     0     176.976 170.806 179.717  0.00  0.00     0.040 A 
HETATM   17  C   UNK     0     176.430 170.694 178.438  0.00  0.00     0.017 A 
BRANCH  14  18
HETATM   18  O   UNK     0     179.555 168.207 179.573  0.00  0.00    -0.358 OA
HETATM   19  H   UNK     0     180.355 168.748 179.683  0.00  0.00     0.217 HD
ENDBRANCH  14  18
BRANCH  15  20
HETATM   20  O   UNK     0     178.553 170.092 181.352  0.00  0.00    -0.358 OA
HETATM   21  H   UNK     0     178.088 170.804 181.824  0.00  0.00     0.217 HD
ENDBRANCH  15  20
ENDBRANCH   5  12
BRANCH   8  22
HETATM   22  O   UNK     0     174.144 168.678 171.726  0.00  0.00    -0.360 OA
HETATM   23  H   UNK     0     173.560 169.039 171.041  0.00  0.00     0.217 HD
ENDBRANCH   8  22
BRANCH  10  24
HETATM   24  O   UNK     0     176.399 172.812 171.109  0.00  0.00    -0.361 OA
HETATM   25  H   UNK     0     175.615 173.374 170.983  0.00  0.00     0.217 HD
ENDBRANCH  10  24
TORSDOF 5
