MODEL 1
REMARK VINA RESULT:      -7.9      0.000      0.000
REMARK  5 active torsions:
REMARK  status: ('A' for Active; 'I' for Inactive)
REMARK    1  A    between atoms: O_2  and  C_13 
REMARK    2  A    between atoms: O_4  and  C_16 
REMARK    3  A    between atoms: O_5  and  C_19 
REMARK    4  A    between atoms: O_6  and  C_21 
REMARK    5  A    between atoms: C_9  and  C_10 
ROOT
HETATM    1  O   UNK     0     171.060 174.100 169.471  0.00  0.00    -0.309 OA
HETATM    2  O   UNK     0     167.143 172.979 169.427  0.00  0.00    -0.287 OA
HETATM    3  C   UNK     0     168.866 174.175 170.513  0.00  0.00     0.081 A 
HETATM    4  C   UNK     0     170.215 174.522 170.466  0.00  0.00     0.095 A 
HETATM    5  C   UNK     0     170.548 173.285 168.472  0.00  0.00     0.090 A 
HETATM    6  C   UNK     0     168.317 173.319 169.450  0.00  0.00     0.190 A 
HETATM    7  C   UNK     0     169.267 172.888 168.403  0.00  0.00     0.094 A 
HETATM    8  C   UNK     0     168.054 174.636 171.551  0.00  0.00     0.085 A 
HETATM    9  C   UNK     0     170.761 175.334 171.460  0.00  0.00     0.075 A 
HETATM   10  C   UNK     0     169.953 175.797 172.499  0.00  0.00     0.071 A 
HETATM   11  C   UNK     0     168.603 175.448 172.544  0.00  0.00     0.074 A 
ENDROOT
BRANCH   5  12
HETATM   12  C   UNK     0     171.538 172.893 167.450  0.00  0.00     0.001 A 
HETATM   13  C   UNK     0     172.741 172.295 167.831  0.00  0.00     0.053 A 
HETATM   14  C   UNK     0     173.677 171.925 166.865  0.00  0.00     0.099 A 
HETATM   15  C   UNK     0     173.412 172.152 165.514  0.00  0.00     0.098 A 
HETATM   16  C   UNK     0     172.213 172.750 165.130  0.00  0.00     0.040 A 
HETATM   17  C   UNK     0     171.277 173.120 166.096  0.00  0.00     0.017 A 
BRANCH  14  18
HETATM   18  O   UNK     0     174.847 171.343 167.253  0.00  0.00    -0.358 OA
HETATM   19  H   UNK     0     174.964 170.524 166.741  0.00  0.00     0.217 HD
ENDBRANCH  14  18
BRANCH  15  20
HETATM   20  O   UNK     0     174.318 171.794 164.562  0.00  0.00    -0.358 OA
HETATM   21  H   UNK     0     173.844 171.568 163.744  0.00  0.00     0.217 HD
ENDBRANCH  15  20
ENDBRANCH   5  12
BRANCH   8  22
HETATM   22  O   UNK     0     166.731 174.325 171.640  0.00  0.00    -0.360 OA
HETATM   23  H   UNK     0     166.409 173.964 170.800  0.00  0.00     0.217 HD
ENDBRANCH   8  22
BRANCH  10  24
HETATM   24  O   UNK     0     170.482 176.590 173.471  0.00  0.00    -0.361 OA
HETATM   25  H   UNK     0     170.366 177.521 173.217  0.00  0.00     0.217 HD
ENDBRANCH  10  24
TORSDOF 5
ENDMDL
MODEL 2
REMARK VINA RESULT:      -7.8      1.461      3.023
REMARK  5 active torsions:
REMARK  status: ('A' for Active; 'I' for Inactive)
REMARK    1  A    between atoms: O_2  and  C_13 
REMARK    2  A    between atoms: O_4  and  C_16 
REMARK    3  A    between atoms: O_5  and  C_19 
REMARK    4  A    between atoms: O_6  and  C_21 
REMARK    5  A    between atoms: C_9  and  C_10 
ROOT
HETATM    1  O   UNK     0     169.979 172.952 168.569  0.00  0.00    -0.309 OA
HETATM    2  O   UNK     0     171.944 174.638 171.714  0.00  0.00    -0.287 OA
HETATM    3  C   UNK     0     169.879 174.019 170.749  0.00  0.00     0.081 A 
HETATM    4  C   UNK     0     169.271 173.430 169.642  0.00  0.00     0.095 A 
HETATM    5  C   UNK     0     171.361 173.068 168.585  0.00  0.00     0.090 A 
HETATM    6  C   UNK     0     171.345 174.136 170.774  0.00  0.00     0.190 A 
HETATM    7  C   UNK     0     172.062 173.609 169.594  0.00  0.00     0.094 A 
HETATM    8  C   UNK     0     169.106 174.487 171.813  0.00  0.00     0.085 A 
HETATM    9  C   UNK     0     167.882 173.305 169.593  0.00  0.00     0.075 A 
HETATM   10  C   UNK     0     167.107 173.772 170.655  0.00  0.00     0.071 A 
HETATM   11  C   UNK     0     167.717 174.361 171.762  0.00  0.00     0.074 A 
ENDROOT
BRANCH   5  12
HETATM   12  C   UNK     0     172.024 172.518 167.387  0.00  0.00     0.001 A 
HETATM   13  C   UNK     0     171.267 171.909 166.383  0.00  0.00     0.053 A 
HETATM   14  C   UNK     0     171.894 171.389 165.250  0.00  0.00     0.099 A 
HETATM   15  C   UNK     0     173.280 171.477 165.117  0.00  0.00     0.098 A 
HETATM   16  C   UNK     0     174.039 172.084 166.118  0.00  0.00     0.040 A 
HETATM   17  C   UNK     0     173.412 172.604 167.251  0.00  0.00     0.017 A 
BRANCH  14  18
HETATM   18  O   UNK     0     171.142 170.797 164.280  0.00  0.00    -0.358 OA
HETATM   19  H   UNK     0     170.822 171.489 163.677  0.00  0.00     0.217 HD
ENDBRANCH  14  18
BRANCH  15  20
HETATM   20  O   UNK     0     173.903 170.974 164.016  0.00  0.00    -0.358 OA
HETATM   21  H   UNK     0     174.591 170.349 164.299  0.00  0.00     0.217 HD
ENDBRANCH  15  20
ENDBRANCH   5  12
BRANCH   8  22
HETATM   22  O   UNK     0     169.653 175.069 172.917  0.00  0.00    -0.360 OA
HETATM   23  H   UNK     0     168.984 175.179 173.610  0.00  0.00     0.217 HD
ENDBRANCH   8  22
BRANCH  10  24
HETATM   24  O   UNK     0     165.751 173.651 170.611  0.00  0.00    -0.361 OA
HETATM   25  H   UNK     0     165.519 172.897 170.042  0.00  0.00     0.217 HD
ENDBRANCH  10  24
TORSDOF 5
ENDMDL
MODEL 3
REMARK VINA RESULT:      -7.7      1.451      2.976
REMARK  5 active torsions:
REMARK  status: ('A' for Active; 'I' for Inactive)
REMARK    1  A    between atoms: O_2  and  C_13 
REMARK    2  A    between atoms: O_4  and  C_16 
REMARK    3  A    between atoms: O_5  and  C_19 
REMARK    4  A    between atoms: O_6  and  C_21 
REMARK    5  A    between atoms: C_9  and  C_10 
ROOT
HETATM    1  O   UNK     0     169.238 172.798 167.953  0.00  0.00    -0.309 OA
HETATM    2  O   UNK     0     170.273 174.322 171.587  0.00  0.00    -0.287 OA
HETATM    3  C   UNK     0     168.546 173.686 170.106  0.00  0.00     0.081 A 
HETATM    4  C   UNK     0     168.262 173.158 168.848  0.00  0.00     0.095 A 
HETATM    5  C   UNK     0     170.564 172.976 168.316  0.00  0.00     0.090 A 
HETATM    6  C   UNK     0     169.952 173.867 170.498  0.00  0.00     0.190 A 
HETATM    7  C   UNK     0     170.965 173.468 169.499  0.00  0.00     0.094 A 
HETATM    8  C   UNK     0     167.510 174.034 170.976  0.00  0.00     0.085 A 
HETATM    9  C   UNK     0     166.938 172.974 168.452  0.00  0.00     0.075 A 
HETATM   10  C   UNK     0     165.900 173.320 169.318  0.00  0.00     0.071 A 
HETATM   11  C   UNK     0     166.186 173.849 170.577  0.00  0.00     0.074 A 
ENDROOT
BRANCH   5  12
HETATM   12  C   UNK     0     171.531 172.552 167.284  0.00  0.00     0.001 A 
HETATM   13  C   UNK     0     172.806 172.116 167.653  0.00  0.00     0.053 A 
HETATM   14  C   UNK     0     173.719 171.716 166.678  0.00  0.00     0.099 A 
HETATM   15  C   UNK     0     173.360 171.749 165.330  0.00  0.00     0.098 A 
HETATM   16  C   UNK     0     172.089 172.184 164.958  0.00  0.00     0.040 A 
HETATM   17  C   UNK     0     171.175 172.585 165.934  0.00  0.00     0.017 A 
BRANCH  14  18
HETATM   18  O   UNK     0     174.959 171.294 167.053  0.00  0.00    -0.358 OA
HETATM   19  H   UNK     0     174.871 170.772 167.869  0.00  0.00     0.217 HD
ENDBRANCH  14  18
BRANCH  15  20
HETATM   20  O   UNK     0     174.243 171.360 164.369  0.00  0.00    -0.358 OA
HETATM   21  H   UNK     0     175.006 171.962 164.377  0.00  0.00     0.217 HD
ENDBRANCH  15  20
ENDBRANCH   5  12
BRANCH   8  22
HETATM   22  O   UNK     0     167.736 174.553 172.215  0.00  0.00    -0.360 OA
HETATM   23  H   UNK     0     168.655 174.399 172.486  0.00  0.00     0.217 HD
ENDBRANCH   8  22
BRANCH  10  24
HETATM   24  O   UNK     0     164.605 173.141 168.935  0.00  0.00    -0.361 OA
HETATM   25  H   UNK     0     164.588 172.858 168.005  0.00  0.00     0.217 HD
ENDBRANCH  10  24
TORSDOF 5
ENDMDL
MODEL 4
REMARK VINA RESULT:      -7.6      1.784      2.039
REMARK  5 active torsions:
REMARK  status: ('A' for Active; 'I' for Inactive)
REMARK    1  A    between atoms: O_2  and  C_13 
REMARK    2  A    between atoms: O_4  and  C_16 
REMARK    3  A    between atoms: O_5  and  C_19 
REMARK    4  A    between atoms: O_6  and  C_21 
REMARK    5  A    between atoms: C_9  and  C_10 
ROOT
HETATM    1  O   UNK     0     170.225 172.949 169.103  0.00  0.00    -0.309 OA
HETATM    2  O   UNK     0     166.723 174.693 167.967  0.00  0.00    -0.287 OA
HETATM    3  C   UNK     0     168.094 173.932 169.733  0.00  0.00     0.081 A 
HETATM    4  C   UNK     0     169.311 173.331 170.052  0.00  0.00     0.095 A 
HETATM    5  C   UNK     0     169.919 173.163 167.767  0.00  0.00     0.090 A 
HETATM    6  C   UNK     0     167.770 174.169 168.318  0.00  0.00     0.190 A 
HETATM    7  C   UNK     0     168.785 173.737 167.335  0.00  0.00     0.094 A 
HETATM    8  C   UNK     0     167.203 174.300 170.742  0.00  0.00     0.085 A 
HETATM    9  C   UNK     0     169.644 173.096 171.386  0.00  0.00     0.075 A 
HETATM   10  C   UNK     0     168.756 173.464 172.397  0.00  0.00     0.071 A 
HETATM   11  C   UNK     0     167.538 174.064 172.076  0.00  0.00     0.074 A 
ENDROOT
BRANCH   5  12
HETATM   12  C   UNK     0     170.971 172.721 166.832  0.00  0.00     0.001 A 
HETATM   13  C   UNK     0     171.707 173.661 166.106  0.00  0.00     0.053 A 
HETATM   14  C   UNK     0     172.701 173.243 165.222  0.00  0.00     0.099 A 
HETATM   15  C   UNK     0     172.964 171.882 165.061  0.00  0.00     0.098 A 
HETATM   16  C   UNK     0     172.232 170.941 165.783  0.00  0.00     0.040 A 
HETATM   17  C   UNK     0     171.237 171.359 166.667  0.00  0.00     0.017 A 
BRANCH  14  18
HETATM   18  O   UNK     0     173.409 174.172 164.521  0.00  0.00    -0.358 OA
HETATM   19  H   UNK     0     173.260 175.042 164.929  0.00  0.00     0.217 HD
ENDBRANCH  14  18
BRANCH  15  20
HETATM   20  O   UNK     0     173.933 171.462 164.202  0.00  0.00    -0.358 OA
HETATM   21  H   UNK     0     174.552 172.194 164.040  0.00  0.00     0.217 HD
ENDBRANCH  15  20
ENDBRANCH   5  12
BRANCH   8  22
HETATM   22  O   UNK     0     166.002 174.889 170.482  0.00  0.00    -0.360 OA
HETATM   23  H   UNK     0     165.312 174.521 171.054  0.00  0.00     0.217 HD
ENDBRANCH   8  22
BRANCH  10  24
HETATM   24  O   UNK     0     169.078 173.236 173.701  0.00  0.00    -0.361 OA
HETATM   25  H   UNK     0     169.789 172.574 173.739  0.00  0.00     0.217 HD
ENDBRANCH  10  24
TORSDOF 5
ENDMDL
MODEL 5
REMARK VINA RESULT:      -7.6      2.108      3.591
REMARK  5 active torsions:
REMARK  status: ('A' for Active; 'I' for Inactive)
REMARK    1  A    between atoms: O_2  and  C_13 
REMARK    2  A    between atoms: O_4  and  C_16 
REMARK    3  A    between atoms: O_5  and  C_19 
REMARK    4  A    between atoms: O_6  and  C_21 
REMARK    5  A    between atoms: C_9  and  C_10 
ROOT
HETATM    1  O   UNK     0     168.456 173.534 167.383  0.00  0.00    -0.309 OA
HETATM    2  O   UNK     0     168.291 174.390 171.362  0.00  0.00    -0.287 OA
HETATM    3  C   UNK     0     167.147 174.248 169.300  0.00  0.00     0.081 A 
HETATM    4  C   UNK     0     167.273 173.938 167.947  0.00  0.00     0.095 A 
HETATM    5  C   UNK     0     169.576 173.437 168.195  0.00  0.00     0.090 A 
HETATM    6  C   UNK     0     168.331 174.137 170.167  0.00  0.00     0.190 A 
HETATM    7  C   UNK     0     169.581 173.701 169.511  0.00  0.00     0.094 A 
HETATM    8  C   UNK     0     165.916 174.654 169.820  0.00  0.00     0.085 A 
HETATM    9  C   UNK     0     166.167 174.033 167.104  0.00  0.00     0.075 A 
HETATM   10  C   UNK     0     164.935 174.438 167.619  0.00  0.00     0.071 A 
HETATM   11  C   UNK     0     164.810 174.748 168.974  0.00  0.00     0.074 A 
ENDROOT
BRANCH   5  12
HETATM   12  C   UNK     0     170.793 172.989 167.489  0.00  0.00     0.001 A 
HETATM   13  C   UNK     0     171.766 172.250 168.166  0.00  0.00     0.053 A 
HETATM   14  C   UNK     0     172.915 171.827 167.499  0.00  0.00     0.099 A 
HETATM   15  C   UNK     0     173.095 172.141 166.151  0.00  0.00     0.098 A 
HETATM   16  C   UNK     0     172.127 172.880 165.472  0.00  0.00     0.040 A 
HETATM   17  C   UNK     0     170.977 173.303 166.140  0.00  0.00     0.017 A 
BRANCH  14  18
HETATM   18  O   UNK     0     173.855 171.107 168.173  0.00  0.00    -0.358 OA
HETATM   19  H   UNK     0     174.310 170.527 167.538  0.00  0.00     0.217 HD
ENDBRANCH  14  18
BRANCH  15  20
HETATM   20  O   UNK     0     174.213 171.733 165.489  0.00  0.00    -0.358 OA
HETATM   21  H   UNK     0     174.606 172.495 165.031  0.00  0.00     0.217 HD
ENDBRANCH  15  20
ENDBRANCH   5  12
BRANCH   8  22
HETATM   22  O   UNK     0     165.741 174.967 171.134  0.00  0.00    -0.360 OA
HETATM   23  H   UNK     0     165.787 175.927 171.264  0.00  0.00     0.217 HD
ENDBRANCH   8  22
BRANCH  10  24
HETATM   24  O   UNK     0     163.852 174.531 166.799  0.00  0.00    -0.361 OA
HETATM   25  H   UNK     0     164.081 174.159 165.930  0.00  0.00     0.217 HD
ENDBRANCH  10  24
TORSDOF 5
ENDMDL
MODEL 6
REMARK VINA RESULT:      -7.5     16.463     18.984
REMARK  5 active torsions:
REMARK  status: ('A' for Active; 'I' for Inactive)
REMARK    1  A    between atoms: O_2  and  C_13 
REMARK    2  A    between atoms: O_4  and  C_16 
REMARK    3  A    between atoms: O_5  and  C_19 
REMARK    4  A    between atoms: O_6  and  C_21 
REMARK    5  A    between atoms: C_9  and  C_10 
ROOT
HETATM    1  O   UNK     0     155.000 177.198 160.450  0.00  0.00    -0.309 OA
HETATM    2  O   UNK     0     154.412 181.151 161.242  0.00  0.00    -0.287 OA
HETATM    3  C   UNK     0     154.586 179.443 159.619  0.00  0.00     0.081 A 
HETATM    4  C   UNK     0     154.792 178.080 159.419  0.00  0.00     0.095 A 
HETATM    5  C   UNK     0     155.012 177.690 161.746  0.00  0.00     0.090 A 
HETATM    6  C   UNK     0     154.589 179.967 160.994  0.00  0.00     0.190 A 
HETATM    7  C   UNK     0     154.820 178.979 162.068  0.00  0.00     0.094 A 
HETATM    8  C   UNK     0     154.379 180.293 158.531  0.00  0.00     0.085 A 
HETATM    9  C   UNK     0     154.793 177.557 158.126  0.00  0.00     0.075 A 
HETATM   10  C   UNK     0     154.586 178.403 157.036  0.00  0.00     0.071 A 
HETATM   11  C   UNK     0     154.380 179.767 157.238  0.00  0.00     0.074 A 
ENDROOT
BRANCH   5  12
HETATM   12  C   UNK     0     155.238 176.658 162.777  0.00  0.00     0.001 A 
HETATM   13  C   UNK     0     155.498 177.029 164.099  0.00  0.00     0.053 A 
HETATM   14  C   UNK     0     155.711 176.054 165.072  0.00  0.00     0.099 A 
HETATM   15  C   UNK     0     155.665 174.703 164.729  0.00  0.00     0.098 A 
HETATM   16  C   UNK     0     155.406 174.328 163.411  0.00  0.00     0.040 A 
HETATM   17  C   UNK     0     155.193 175.303 162.436  0.00  0.00     0.017 A 
BRANCH  14  18
HETATM   18  O   UNK     0     155.965 176.433 166.357  0.00  0.00    -0.358 OA
HETATM   19  H   UNK     0     155.208 176.168 166.908  0.00  0.00     0.217 HD
ENDBRANCH  14  18
BRANCH  15  20
HETATM   20  O   UNK     0     155.870 173.742 165.671  0.00  0.00    -0.358 OA
HETATM   21  H   UNK     0     156.272 172.964 165.248  0.00  0.00     0.217 HD
ENDBRANCH  15  20
ENDBRANCH   5  12
BRANCH   8  22
HETATM   22  O   UNK     0     154.172 181.632 158.674  0.00  0.00    -0.360 OA
HETATM   23  H   UNK     0     154.987 182.124 158.486  0.00  0.00     0.217 HD
ENDBRANCH   8  22
BRANCH  10  24
HETATM   24  O   UNK     0     154.585 177.895 155.772  0.00  0.00    -0.361 OA
HETATM   25  H   UNK     0     154.470 178.625 155.139  0.00  0.00     0.217 HD
ENDBRANCH  10  24
TORSDOF 5
ENDMDL
MODEL 7
REMARK VINA RESULT:      -7.5     16.423     18.798
REMARK  5 active torsions:
REMARK  status: ('A' for Active; 'I' for Inactive)
REMARK    1  A    between atoms: O_2  and  C_13 
REMARK    2  A    between atoms: O_4  and  C_16 
REMARK    3  A    between atoms: O_5  and  C_19 
REMARK    4  A    between atoms: O_6  and  C_21 
REMARK    5  A    between atoms: C_9  and  C_10 
ROOT
HETATM    1  O   UNK     0     154.842 178.198 161.806  0.00  0.00    -0.309 OA
HETATM    2  O   UNK     0     153.677 176.673 158.212  0.00  0.00    -0.287 OA
HETATM    3  C   UNK     0     154.156 178.589 159.509  0.00  0.00     0.081 A 
HETATM    4  C   UNK     0     154.560 179.043 160.763  0.00  0.00     0.095 A 
HETATM    5  C   UNK     0     154.710 176.832 161.604  0.00  0.00     0.090 A 
HETATM    6  C   UNK     0     154.024 177.140 159.287  0.00  0.00     0.190 A 
HETATM    7  C   UNK     0     154.336 176.273 160.442  0.00  0.00     0.094 A 
HETATM    8  C   UNK     0     153.883 179.497 158.484  0.00  0.00     0.085 A 
HETATM    9  C   UNK     0     154.694 180.411 160.999  0.00  0.00     0.075 A 
HETATM   10  C   UNK     0     154.423 181.321 159.977  0.00  0.00     0.071 A 
HETATM   11  C   UNK     0     154.018 180.865 158.723  0.00  0.00     0.074 A 
ENDROOT
BRANCH   5  12
HETATM   12  C   UNK     0     155.043 176.015 162.787  0.00  0.00     0.001 A 
HETATM   13  C   UNK     0     155.367 176.632 163.998  0.00  0.00     0.053 A 
HETATM   14  C   UNK     0     155.681 175.859 165.116  0.00  0.00     0.099 A 
HETATM   15  C   UNK     0     155.672 174.467 165.027  0.00  0.00     0.098 A 
HETATM   16  C   UNK     0     155.350 173.848 163.820  0.00  0.00     0.040 A 
HETATM   17  C   UNK     0     155.036 174.620 162.702  0.00  0.00     0.017 A 
BRANCH  14  18
HETATM   18  O   UNK     0     155.996 176.476 166.290  0.00  0.00    -0.358 OA
HETATM   19  H   UNK     0     156.882 176.182 166.562  0.00  0.00     0.217 HD
ENDBRANCH  14  18
BRANCH  15  20
HETATM   20  O   UNK     0     155.976 173.702 166.112  0.00  0.00    -0.358 OA
HETATM   21  H   UNK     0     155.282 173.814 166.783  0.00  0.00     0.217 HD
ENDBRANCH  15  20
ENDBRANCH   5  12
BRANCH   8  22
HETATM   22  O   UNK     0     153.485 179.103 157.242  0.00  0.00    -0.360 OA
HETATM   23  H   UNK     0     153.694 179.786 156.586  0.00  0.00     0.217 HD
ENDBRANCH   8  22
BRANCH  10  24
HETATM   24  O   UNK     0     154.553 182.657 160.205  0.00  0.00    -0.361 OA
HETATM   25  H   UNK     0     154.202 182.863 161.088  0.00  0.00     0.217 HD
ENDBRANCH  10  24
TORSDOF 5
ENDMDL
MODEL 8
REMARK VINA RESULT:      -7.5      2.132      7.166
REMARK  5 active torsions:
REMARK  status: ('A' for Active; 'I' for Inactive)
REMARK    1  A    between atoms: O_2  and  C_13 
REMARK    2  A    between atoms: O_4  and  C_16 
REMARK    3  A    between atoms: O_5  and  C_19 
REMARK    4  A    between atoms: O_6  and  C_21 
REMARK    5  A    between atoms: C_9  and  C_10 
ROOT
HETATM    1  O   UNK     0     170.142 172.353 167.601  0.00  0.00    -0.309 OA
HETATM    2  O   UNK     0     173.276 173.640 169.863  0.00  0.00    -0.287 OA
HETATM    3  C   UNK     0     172.543 172.590 167.878  0.00  0.00     0.081 A 
HETATM    4  C   UNK     0     171.427 172.175 167.155  0.00  0.00     0.095 A 
HETATM    5  C   UNK     0     169.948 172.965 168.830  0.00  0.00     0.090 A 
HETATM    6  C   UNK     0     172.342 173.249 169.178  0.00  0.00     0.190 A 
HETATM    7  C   UNK     0     170.940 173.413 169.616  0.00  0.00     0.094 A 
HETATM    8  C   UNK     0     173.828 172.384 167.372  0.00  0.00     0.085 A 
HETATM    9  C   UNK     0     171.589 171.550 165.919  0.00  0.00     0.075 A 
HETATM   10  C   UNK     0     172.872 171.342 165.410  0.00  0.00     0.071 A 
HETATM   11  C   UNK     0     173.988 171.758 166.135  0.00  0.00     0.074 A 
ENDROOT
BRANCH   5  12
HETATM   12  C   UNK     0     168.530 173.110 169.212  0.00  0.00     0.001 A 
HETATM   13  C   UNK     0     167.521 172.840 168.284  0.00  0.00     0.053 A 
HETATM   14  C   UNK     0     166.181 172.977 168.645  0.00  0.00     0.099 A 
HETATM   15  C   UNK     0     165.844 173.386 169.936  0.00  0.00     0.098 A 
HETATM   16  C   UNK     0     166.848 173.658 170.865  0.00  0.00     0.040 A 
HETATM   17  C   UNK     0     168.189 173.520 170.504  0.00  0.00     0.017 A 
BRANCH  14  18
HETATM   18  O   UNK     0     165.209 172.710 167.728  0.00  0.00    -0.358 OA
HETATM   19  H   UNK     0     165.325 171.796 167.417  0.00  0.00     0.217 HD
ENDBRANCH  14  18
BRANCH  15  20
HETATM   20  O   UNK     0     164.539 173.523 170.300  0.00  0.00    -0.358 OA
HETATM   21  H   UNK     0     164.498 173.934 171.180  0.00  0.00     0.217 HD
ENDBRANCH  15  20
ENDBRANCH   5  12
BRANCH   8  22
HETATM   22  O   UNK     0     174.950 172.771 168.040  0.00  0.00    -0.360 OA
HETATM   23  H   UNK     0     175.143 173.706 167.869  0.00  0.00     0.217 HD
ENDBRANCH   8  22
BRANCH  10  24
HETATM   24  O   UNK     0     173.034 170.732 164.203  0.00  0.00    -0.361 OA
HETATM   25  H   UNK     0     172.462 171.169 163.549  0.00  0.00     0.217 HD
ENDBRANCH  10  24
TORSDOF 5
ENDMDL
MODEL 9
REMARK VINA RESULT:      -7.3      1.778      6.844
REMARK  5 active torsions:
REMARK  status: ('A' for Active; 'I' for Inactive)
REMARK    1  A    between atoms: O_2  and  C_13 
REMARK    2  A    between atoms: O_4  and  C_16 
REMARK    3  A    between atoms: O_5  and  C_19 
REMARK    4  A    between atoms: O_6  and  C_21 
REMARK    5  A    between atoms: C_9  and  C_10 
ROOT
HETATM    1  O   UNK     0     171.384 173.604 169.828  0.00  0.00    -0.309 OA
HETATM    2  O   UNK     0     169.048 174.017 166.516  0.00  0.00    -0.287 OA
HETATM    3  C   UNK     0     170.996 173.096 167.484  0.00  0.00     0.081 A 
HETATM    4  C   UNK     0     171.748 172.996 168.653  0.00  0.00     0.095 A 
HETATM    5  C   UNK     0     170.221 174.359 169.848  0.00  0.00     0.090 A 
HETATM    6  C   UNK     0     169.757 173.889 167.503  0.00  0.00     0.190 A 
HETATM    7  C   UNK     0     169.410 174.526 168.791  0.00  0.00     0.094 A 
HETATM    8  C   UNK     0     171.416 172.455 166.317  0.00  0.00     0.085 A 
HETATM    9  C   UNK     0     172.926 172.249 168.662  0.00  0.00     0.075 A 
HETATM   10  C   UNK     0     173.349 171.606 167.498  0.00  0.00     0.071 A 
HETATM   11  C   UNK     0     172.596 171.709 166.329  0.00  0.00     0.074 A 
ENDROOT
BRANCH   5  12
HETATM   12  C   UNK     0     169.921 174.963 171.160  0.00  0.00     0.001 A 
HETATM   13  C   UNK     0     170.434 176.221 171.488  0.00  0.00     0.053 A 
HETATM   14  C   UNK     0     170.150 176.792 172.728  0.00  0.00     0.099 A 
HETATM   15  C   UNK     0     169.351 176.108 173.645  0.00  0.00     0.098 A 
HETATM   16  C   UNK     0     168.838 174.852 173.322  0.00  0.00     0.040 A 
HETATM   17  C   UNK     0     169.122 174.281 172.081  0.00  0.00     0.017 A 
BRANCH  14  18
HETATM   18  O   UNK     0     170.658 178.019 173.034  0.00  0.00    -0.358 OA
HETATM   19  H   UNK     0     170.963 178.437 172.211  0.00  0.00     0.217 HD
ENDBRANCH  14  18
BRANCH  15  20
HETATM   20  O   UNK     0     169.066 176.656 174.859  0.00  0.00    -0.358 OA
HETATM   21  H   UNK     0     169.699 177.371 175.040  0.00  0.00     0.217 HD
ENDBRANCH  15  20
ENDBRANCH   5  12
BRANCH   8  22
HETATM   22  O   UNK     0     170.717 172.523 165.150  0.00  0.00    -0.360 OA
HETATM   23  H   UNK     0     171.301 172.774 164.418  0.00  0.00     0.217 HD
ENDBRANCH   8  22
BRANCH  10  24
HETATM   24  O   UNK     0     174.499 170.876 167.504  0.00  0.00    -0.361 OA
HETATM   25  H   UNK     0     174.274 169.933 167.441  0.00  0.00     0.217 HD
ENDBRANCH  10  24
TORSDOF 5
ENDMDL
MODEL 10
REMARK VINA RESULT:      -7.3      4.823      8.726
REMARK  5 active torsions:
REMARK  status: ('A' for Active; 'I' for Inactive)
REMARK    1  A    between atoms: O_2  and  C_13 
REMARK    2  A    between atoms: O_4  and  C_16 
REMARK    3  A    between atoms: O_5  and  C_19 
REMARK    4  A    between atoms: O_6  and  C_21 
REMARK    5  A    between atoms: C_9  and  C_10 
ROOT
HETATM    1  O   UNK     0     165.078 173.557 168.833  0.00  0.00    -0.309 OA
HETATM    2  O   UNK     0     166.256 174.848 172.513  0.00  0.00    -0.287 OA
HETATM    3  C   UNK     0     166.869 173.898 170.439  0.00  0.00     0.081 A 
HETATM    4  C   UNK     0     166.399 173.476 169.197  0.00  0.00     0.095 A 
HETATM    5  C   UNK     0     164.172 174.074 169.747  0.00  0.00     0.090 A 
HETATM    6  C   UNK     0     165.912 174.456 171.407  0.00  0.00     0.190 A 
HETATM    7  C   UNK     0     164.503 174.519 170.970  0.00  0.00     0.094 A 
HETATM    8  C   UNK     0     168.225 173.792 170.754  0.00  0.00     0.085 A 
HETATM    9  C   UNK     0     167.284 172.945 168.260  0.00  0.00     0.075 A 
HETATM   10  C   UNK     0     168.640 172.838 168.570  0.00  0.00     0.071 A 
HETATM   11  C   UNK     0     169.109 173.260 169.814  0.00  0.00     0.074 A 
ENDROOT
BRANCH   5  12
HETATM   12  C   UNK     0     162.782 174.121 169.253  0.00  0.00     0.001 A 
HETATM   13  C   UNK     0     161.782 174.716 170.025  0.00  0.00     0.053 A 
HETATM   14  C   UNK     0     160.468 174.760 169.559  0.00  0.00     0.099 A 
HETATM   15  C   UNK     0     160.150 174.209 168.317  0.00  0.00     0.098 A 
HETATM   16  C   UNK     0     161.146 173.613 167.543  0.00  0.00     0.040 A 
HETATM   17  C   UNK     0     162.460 173.569 168.010  0.00  0.00     0.017 A 
BRANCH  14  18
HETATM   18  O   UNK     0     159.503 175.344 170.324  0.00  0.00    -0.358 OA
HETATM   19  H   UNK     0     159.527 176.303 170.166  0.00  0.00     0.217 HD
ENDBRANCH  14  18
BRANCH  15  20
HETATM   20  O   UNK     0     158.872 174.247 167.850  0.00  0.00    -0.358 OA
HETATM   21  H   UNK     0     158.512 175.140 167.983  0.00  0.00     0.217 HD
ENDBRANCH  15  20
ENDBRANCH   5  12
BRANCH   8  22
HETATM   22  O   UNK     0     168.733 174.191 171.953  0.00  0.00    -0.360 OA
HETATM   23  H   UNK     0     169.702 174.137 171.947  0.00  0.00     0.217 HD
ENDBRANCH   8  22
BRANCH  10  24
HETATM   24  O   UNK     0     169.508 172.320 167.657  0.00  0.00    -0.361 OA
HETATM   25  H   UNK     0     170.416 172.428 167.988  0.00  0.00     0.217 HD
ENDBRANCH  10  24
TORSDOF 5
ENDMDL
