REMARK  16 active torsions:
REMARK  status: ('A' for Active; 'I' for Inactive)
REMARK    1  A    between atoms: C_2  and  O_4 
REMARK    2  A    between atoms: N_3  and  C_5 
REMARK    3  A    between atoms: O_4  and  O_22 
REMARK    4  A    between atoms: C_8  and  O_23 
REMARK    5  A    between atoms: C_9  and  O_22 
REMARK    6  A    between atoms: C_10  and  C_19 
REMARK    7  A    between atoms: C_13  and  C_24 
REMARK    8  A    between atoms: C_16  and  C_61 
REMARK    9  A    between atoms: C_17  and  O_25 
REMARK   10  A    between atoms: C_24  and  C_28 
REMARK   11  A    between atoms: C_41  and  C_45 
REMARK   12  A    between atoms: C_45  and  C_52 
REMARK   13  A    between atoms: O_46  and  C_53 
REMARK   14  A    between atoms: O_47  and  C_54 
REMARK   15  A    between atoms: C_50  and  C_55 
REMARK   16  A    between atoms: O_51  and  C_56 
ROOT
HETATM    1  C   UNL     1       1.379   3.777   0.657  1.00  0.00     0.088 C 
HETATM    2  C   UNL     1       0.972   2.459   0.462  1.00  0.00     0.019 C 
HETATM    3  C   UNL     1      -0.244   2.176  -0.202  1.00  0.00    -0.029 C 
HETATM    4  C   UNL     1      -1.161   3.275  -0.361  1.00  0.00    -0.014 C 
HETATM    5  C   UNL     1      -0.718   4.628  -0.218  1.00  0.00     0.022 C 
HETATM    6  C   UNL     1       0.593   4.874   0.309  1.00  0.00     0.013 C 
HETATM    7  C   UNL     1      -2.546   3.095  -0.583  1.00  0.00     0.020 C 
HETATM    8  C   UNL     1      -3.467   4.139  -0.785  1.00  0.00    -0.047 C 
HETATM    9  C   UNL     1      -3.001   5.455  -0.870  1.00  0.00     0.017 C 
HETATM   10  C   UNL     1      -1.632   5.669  -0.602  1.00  0.00     0.089 C 
HETATM   11  C   UNL     1      -4.925   3.784  -0.963  1.00  0.00     0.049 C 
ENDROOT
BRANCH   9  12
HETATM   12  C   UNL     1      -3.920   6.575  -1.197  1.00  0.00     0.017 A 
HETATM   13  C   UNL     1      -4.478   6.720  -2.492  1.00  0.00     0.089 A 
HETATM   14  C   UNL     1      -5.387   7.769  -2.865  1.00  0.00     0.022 A 
HETATM   15  C   UNL     1      -6.056   7.859  -4.135  1.00  0.00     0.015 A 
HETATM   16  C   UNL     1      -5.641   8.785  -1.892  1.00  0.00    -0.012 A 
HETATM   17  C   UNL     1      -6.916   8.929  -4.382  1.00  0.00     0.110 A 
HETATM   18  C   UNL     1      -7.085   9.953  -3.462  1.00  0.00     0.107 A 
HETATM   19  C   UNL     1      -6.437   9.935  -2.223  1.00  0.00    -0.007 A 
HETATM   20  C   UNL     1      -5.099   8.600  -0.596  1.00  0.00     0.020 A 
HETATM   21  C   UNL     1      -4.290   7.513  -0.225  1.00  0.00    -0.047 A 
HETATM   22  C   UNL     1      -3.824   7.433   1.207  1.00  0.00     0.049 C 
BRANCH  13  23
HETATM   23  O   UNL     1      -4.131   5.791  -3.453  1.00  0.00    -0.359 OA
HETATM   24  H   UNL     1      -3.262   5.410  -3.249  1.00  0.00     0.217 HD
ENDBRANCH  13  23
BRANCH  15  25
HETATM   25  C   UNL     1      -5.838   6.852  -5.200  1.00  0.00     0.038 C 
BRANCH  25  26
HETATM   26  C   UNL     1      -6.658   5.855  -5.591  1.00  0.00     0.101 C 
HETATM   27  C   UNL     1      -8.053   5.692  -5.122  1.00  0.00     0.265 C 
HETATM   28  O   UNL     1      -8.731   6.613  -4.680  1.00  0.00    -0.267 OA
HETATM   29  N   UNL     1      -8.583   4.447  -5.307  1.00  0.00    -0.275 N 
HETATM   30  C   UNL     1      -8.100   3.500  -6.155  1.00  0.00     0.329 C 
HETATM   31  H   UNL     1      -9.531   4.304  -4.984  1.00  0.00     0.173 HD
HETATM   32  O   UNL     1      -8.701   2.450  -6.357  1.00  0.00    -0.246 OA
HETATM   33  N   UNL     1      -6.916   3.772  -6.768  1.00  0.00    -0.275 N 
HETATM   34  C   UNL     1      -6.088   4.826  -6.500  1.00  0.00     0.265 C 
HETATM   35  H   UNL     1      -6.550   3.051  -7.373  1.00  0.00     0.173 HD
HETATM   36  O   UNL     1      -4.945   4.860  -6.943  1.00  0.00    -0.267 OA
ENDBRANCH  25  26
ENDBRANCH  15  25
BRANCH  17  37
HETATM   37  O   UNL     1      -7.692   8.990  -5.514  1.00  0.00    -0.357 OA
HETATM   38  H   UNL     1      -8.326   8.247  -5.394  1.00  0.00     0.217 HD
ENDBRANCH  17  37
BRANCH  18  39
HETATM   39  O   UNL     1      -7.947  10.962  -3.795  1.00  0.00    -0.357 OA
HETATM   40  H   UNL     1      -8.224  10.777  -4.715  1.00  0.00     0.217 HD
ENDBRANCH  18  39
BRANCH  19  41
HETATM   41  C   UNL     1      -6.608  11.116  -1.258  1.00  0.00     0.014 C 
HETATM   42  C   UNL     1      -6.378  12.498  -1.891  1.00  0.00     0.015 C 
HETATM   43  C   UNL     1      -7.958  11.054  -0.541  1.00  0.00     0.015 C 
ENDBRANCH  19  41
ENDBRANCH   9  12
BRANCH  10  44
HETATM   44  O   UNL     1      -1.110   6.939  -0.755  1.00  0.00    -0.359 OA
HETATM   45  H   UNL     1      -1.797   7.561  -1.063  1.00  0.00     0.217 HD
ENDBRANCH  10  44
BRANCH   6  46
HETATM   46  C   UNL     1       0.999   6.246   0.710  1.00  0.00     0.038 C 
BRANCH  46  47
HETATM   47  C   UNL     1       1.972   7.042   0.220  1.00  0.00     0.101 C 
HETATM   48  C   UNL     1       2.001   8.455   0.678  1.00  0.00     0.265 C 
HETATM   49  N   UNL     1       2.836   9.271  -0.029  1.00  0.00    -0.275 N 
HETATM   50  O   UNL     1       1.356   8.848   1.642  1.00  0.00    -0.267 OA
HETATM   51  C   UNL     1       3.701   8.890  -1.010  1.00  0.00     0.329 C 
HETATM   52  H   UNL     1       2.909  10.232   0.282  1.00  0.00     0.173 HD
HETATM   53  N   UNL     1       3.637   7.590  -1.418  1.00  0.00    -0.275 N 
HETATM   54  O   UNL     1       4.548   9.652  -1.459  1.00  0.00    -0.246 OA
HETATM   55  C   UNL     1       2.989   6.595  -0.752  1.00  0.00     0.265 C 
HETATM   56  H   UNL     1       4.371   7.327  -2.064  1.00  0.00     0.173 HD
HETATM   57  O   UNL     1       3.311   5.409  -0.829  1.00  0.00    -0.267 OA
ENDBRANCH  46  47
ENDBRANCH   6  46
BRANCH   3  58
HETATM   58  C   UNL     1      -0.399   0.811  -0.923  1.00  0.00     0.012 C 
HETATM   59  C   UNL     1      -1.694   0.405  -1.640  1.00  0.00     0.015 C 
HETATM   60  C   UNL     1       0.722   0.677  -1.982  1.00  0.00     0.015 C 
ENDBRANCH   3  58
BRANCH   1  61
HETATM   61  O   UNL     1       2.642   3.860   1.209  1.00  0.00    -0.359 OA
HETATM   62  H   UNL     1       3.038   4.717   0.898  1.00  0.00     0.217 HD
ENDBRANCH   1  61
BRANCH   2  63
HETATM   63  O   UNL     1       1.862   1.569   1.040  1.00  0.00     0.000 OA
HETATM   64  H   UNL     1       2.785   1.971   1.057  1.00  0.00     0.000 HD
BRANCH  63  65
HETATM   65  O   UNL     1       1.719   0.187   0.824  1.00  0.00    -0.177 OA
BRANCH  65  66
HETATM   66  C   UNL     1       1.192  -0.476   1.800  1.00  0.00     0.153 C 
HETATM   67  N   UNL     1       1.043  -1.823   1.684  1.00  0.00    -0.359 N 
HETATM   68  C   UNL     1       0.295  -2.347   2.812  1.00  0.00     0.125 C 
HETATM   69  C   UNL     1       0.463  -1.270   3.877  1.00  0.00     0.028 C 
HETATM   70  C   UNL     1       0.631   0.026   3.090  1.00  0.00     0.088 C 
BRANCH  67  71
HETATM   71  C   UNL     1       1.379  -2.635   0.508  1.00  0.00     0.077 C 
HETATM   72  C   UNL     1       2.388  -3.726   0.859  1.00  0.00     0.032 C 
HETATM   73  C   UNL     1       0.134  -3.224  -0.152  1.00  0.00     0.032 C 
ENDBRANCH  67  71
ENDBRANCH  65  66
ENDBRANCH  63  65
ENDBRANCH   2  63
TORSDOF 16
