REMARK  23 active torsions:
REMARK  status: ('A' for Active; 'I' for Inactive)
REMARK    1  A    between atoms: C_3  and  O_7 
REMARK    2  A    between atoms: N_4  and  C_6 
REMARK    3  A    between atoms: C_6  and  C_9 
REMARK    4  A    between atoms: O_7  and  O_42 
REMARK    5  A    between atoms: C_12  and  O_42 
REMARK    6  A    between atoms: C_13  and  C_44 
REMARK    7  A    between atoms: C_19  and  C_21 
REMARK    8  A    between atoms: C_20  and  O_40 
REMARK    9  A    between atoms: C_26  and  O_37 
REMARK   10  A    between atoms: C_27  and  C_33 
REMARK   11  A    between atoms: C_28  and  O_32 
REMARK   12  A    between atoms: C_38  and  N_47 
REMARK   13  A    between atoms: C_43  and  N_48 
REMARK   14  A    between atoms: N_47  and  C_50 
REMARK   15  A    between atoms: N_48  and  C_65 
REMARK   16  A    between atoms: C_50  and  C_51 
REMARK   17  A    between atoms: C_51  and  S_52 
REMARK   18  A    between atoms: S_52  and  O_53 
REMARK   19  A    between atoms: O_53  and  O_56 
REMARK   20  A    between atoms: O_59  and  O_62 
REMARK   21  A    between atoms: O_62  and  S_63 
REMARK   22  A    between atoms: S_63  and  C_64 
REMARK   23  A    between atoms: C_64  and  C_65 
ROOT
HETATM    1  C   UNL     1       1.727  -1.743   1.459  1.00  0.00     0.196 C 
HETATM    2  C   UNL     1       2.906  -1.262   0.711  1.00  0.00     0.037 C 
HETATM    3  C   UNL     1       3.750  -2.128   0.074  1.00  0.00    -0.028 C 
HETATM    4  C   UNL     1       3.467  -3.628   0.166  1.00  0.00    -0.014 A 
HETATM    5  C   UNL     1       2.314  -4.149   0.828  1.00  0.00     0.024 A 
HETATM    6  C   UNL     1       1.291  -3.165   1.383  1.00  0.00     0.044 C 
HETATM    7  C   UNL     1       4.366  -4.541  -0.425  1.00  0.00     0.020 A 
HETATM    8  C   UNL     1       4.181  -5.922  -0.404  1.00  0.00    -0.047 A 
HETATM    9  C   UNL     1       3.077  -6.466   0.284  1.00  0.00     0.017 A 
HETATM   10  C   UNL     1       2.168  -5.575   0.926  1.00  0.00     0.089 A 
HETATM   11  C   UNL     1       5.169  -6.765  -1.181  1.00  0.00     0.049 C 
HETATM   12  O   UNL     1       1.105  -0.917   2.105  1.00  0.00    -0.287 OA
HETATM   13  C   UNL     1      -0.002  -3.537   1.678  1.00  0.00     0.099 C 
ENDROOT
BRANCH   9  14
HETATM   14  C   UNL     1       2.813  -7.957   0.291  1.00  0.00     0.017 C 
HETATM   15  C   UNL     1       1.578  -8.466  -0.176  1.00  0.00    -0.047 C 
HETATM   16  C   UNL     1       1.299  -9.826  -0.055  1.00  0.00     0.020 C 
HETATM   17  C   UNL     1       0.495  -7.613  -0.805  1.00  0.00     0.049 C 
HETATM   18  C   UNL     1       2.228 -10.765   0.445  1.00  0.00    -0.012 C 
HETATM   19  C   UNL     1       3.519 -10.283   0.802  1.00  0.00     0.025 C 
HETATM   20  C   UNL     1       1.821 -12.235   0.652  1.00  0.00    -0.006 C 
HETATM   21  C   UNL     1       3.766  -8.868   0.802  1.00  0.00     0.089 C 
HETATM   22  C   UNL     1       4.545 -11.296   1.219  1.00  0.00     0.046 C 
HETATM   23  C   UNL     1       4.038 -12.581   1.735  1.00  0.00     0.217 C 
HETATM   24  C   UNL     1       5.894 -11.215   1.009  1.00  0.00     0.099 C 
HETATM   25  C   UNL     1       2.693 -13.053   1.346  1.00  0.00     0.124 C 
HETATM   26  O   UNL     1       4.785 -13.351   2.325  1.00  0.00    -0.284 OA
BRANCH  21  27
HETATM   27  O   UNL     1       4.865  -8.343   1.389  1.00  0.00    -0.359 OA
HETATM   28  H   UNL     1       5.471  -8.837   1.955  1.00  0.00     0.217 HD
ENDBRANCH  21  27
BRANCH  25  29
HETATM   29  O   UNL     1       2.476 -14.346   1.698  1.00  0.00    -0.356 OA
HETATM   30  H   UNL     1       1.719 -14.914   1.588  1.00  0.00     0.218 HD
ENDBRANCH  25  29
BRANCH  24  31
HETATM   31  N   UNL     1       6.528 -10.207   0.228  1.00  0.00    -0.397 N 
HETATM   32  H   UNL     1       5.953  -9.565  -0.325  1.00  0.00     0.158 HD
BRANCH  31  33
HETATM   33  C   UNL     1       7.955 -10.186  -0.035  1.00  0.00     0.136 C 
BRANCH  33  34
HETATM   34  C   UNL     1       8.795  -9.784   1.184  1.00  0.00     0.192 C 
BRANCH  34  35
HETATM   35  S   UNL     1       8.870 -11.057   2.486  1.00  0.00     0.295 S 
HETATM   36  O   UNL     1      10.073 -10.847   3.419  1.00  0.00    -0.196 OA
HETATM   37  O   UNL     1       7.715 -10.920   3.490  1.00  0.00    -0.196 OA
BRANCH  35  38
HETATM   38  O   UNL     1       8.906 -12.727   2.073  1.00  0.00    -0.074 OA
BRANCH  38  39
HETATM   39  O   UNL     1      10.091 -12.921   1.532  1.00  0.00    -0.018 OA
HETATM   40 NA   UNL     1       9.733 -13.142  -0.461  1.00  0.00     0.000 Na
ENDBRANCH  38  39
ENDBRANCH  35  38
ENDBRANCH  34  35
ENDBRANCH  33  34
ENDBRANCH  31  33
ENDBRANCH  24  31
BRANCH  20  41
HETATM   41  C   UNL     1       0.410 -12.650   0.122  1.00  0.00     0.014 C 
HETATM   42  C   UNL     1       0.418 -12.627  -1.423  1.00  0.00     0.015 C 
HETATM   43  C   UNL     1      -0.229 -13.981   0.540  1.00  0.00     0.015 C 
ENDBRANCH  20  41
ENDBRANCH   9  14
BRANCH  10  44
HETATM   44  O   UNL     1       1.173  -6.094   1.679  1.00  0.00    -0.359 OA
HETATM   45  H   UNL     1       1.058  -7.028   1.897  1.00  0.00     0.217 HD
ENDBRANCH  10  44
BRANCH   3  46
HETATM   46  C   UNL     1       4.977  -1.656  -0.773  1.00  0.00     0.012 C 
HETATM   47  C   UNL     1       4.692  -1.881  -2.273  1.00  0.00     0.015 C 
HETATM   48  C   UNL     1       5.499  -0.216  -0.622  1.00  0.00     0.015 C 
ENDBRANCH   3  46
BRANCH  13  49
HETATM   49  N   UNL     1      -1.067  -2.670   2.086  1.00  0.00    -0.397 N 
HETATM   50  H   UNL     1      -0.943  -1.671   2.265  1.00  0.00     0.158 HD
BRANCH  49  51
HETATM   51  C   UNL     1      -2.418  -3.193   2.165  1.00  0.00     0.136 C 
BRANCH  51  52
HETATM   52  C   UNL     1      -3.418  -2.090   2.523  1.00  0.00     0.192 C 
BRANCH  52  53
HETATM   53  S   UNL     1      -5.131  -2.713   2.514  1.00  0.00     0.295 S 
HETATM   54  O   UNL     1      -5.225  -4.214   2.191  1.00  0.00    -0.196 OA
HETATM   55  O   UNL     1      -5.761  -2.642   3.914  1.00  0.00    -0.196 OA
BRANCH  53  56
HETATM   56  O   UNL     1      -6.249  -1.936   1.458  1.00  0.00    -0.074 OA
BRANCH  56  57
HETATM   57  O   UNL     1      -7.422  -2.471   1.728  1.00  0.00    -0.018 OA
HETATM   58 NA   UNL     1      -8.283  -1.173   3.038  1.00  0.00     0.000 Na
ENDBRANCH  56  57
ENDBRANCH  53  56
ENDBRANCH  52  53
ENDBRANCH  51  52
ENDBRANCH  49  51
ENDBRANCH  13  49
BRANCH   2  59
HETATM   59  O   UNL     1       3.081   0.088   0.658  1.00  0.00     0.000 OA
HETATM   60  H   UNL     1       3.829   0.438   1.157  1.00  0.00     0.000 HD
BRANCH  59  61
HETATM   61  O   UNL     1       2.182   0.946   0.320  1.00  0.00    -0.177 OA
BRANCH  61  62
HETATM   62  C   UNL     1       1.245   0.795  -0.478  1.00  0.00     0.153 C 
HETATM   63  C   UNL     1       0.881  -0.451  -1.241  1.00  0.00     0.088 C 
HETATM   64  C   UNL     1       0.002   0.136  -2.333  1.00  0.00     0.028 C 
HETATM   65  C   UNL     1      -0.654   1.337  -1.668  1.00  0.00     0.125 C 
HETATM   66  N   UNL     1       0.365   1.794  -0.754  1.00  0.00    -0.359 N 
BRANCH  66  67
HETATM   67  C   UNL     1       0.369   3.138  -0.188  1.00  0.00     0.081 C 
HETATM   68  C   UNL     1       0.187   3.085   1.337  1.00  0.00     0.032 C 
BRANCH  67  69
HETATM   69  C   UNL     1       1.649   3.885  -0.628  1.00  0.00     0.020 C 
HETATM   70  C   UNL     1       1.658   5.362  -0.237  1.00  0.00     0.007 C 
ENDBRANCH  67  69
ENDBRANCH  66  67
ENDBRANCH  61  62
ENDBRANCH  59  61
ENDBRANCH   2  59
TORSDOF 23
