MODEL 1
REMARK VINA RESULT:      -3.5      0.000      0.000
REMARK  10 active torsions:
REMARK  status: ('A' for Active; 'I' for Inactive)
REMARK    1  A    between atoms: C_1  and  C_16 
REMARK    2  A    between atoms: C_1  and  C_2 
REMARK    3  A    between atoms: C_2  and  C_5 
REMARK    4  A    between atoms: C_4  and  C_10 
REMARK    5  A    between atoms: C_6  and  O_12 
REMARK    6  A    between atoms: C_7  and  O_14 
REMARK    7  A    between atoms: C_16  and  C_18 
REMARK    8  A    between atoms: C_19  and  C_20 
REMARK    9  A    between atoms: C_23  and  O_28 
REMARK   10  A    between atoms: C_24  and  O_26 
ROOT
ATOM      1  C   UNL     1      -4.051  14.302   9.201  0.00  0.00     0.158 C 
ENDROOT
BRANCH   1   2
ATOM      2  C   UNL     1      -4.830  14.147   7.909  0.00  0.00     0.164 C 
ATOM      3  O   UNL     1      -6.005  14.490   7.801  0.00  0.00    -0.292 OA
BRANCH   2   4
ATOM      4  C   UNL     1      -4.066  13.591   6.754  0.00  0.00     0.047 C 
ATOM      5  C   UNL     1      -4.175  12.295   6.428  0.00  0.00     0.011 C 
BRANCH   5   6
ATOM      6  C   UNL     1      -3.457  11.648   5.316  0.00  0.00    -0.021 A 
ATOM      7  C   UNL     1      -4.112  10.703   4.544  0.00  0.00     0.057 A 
ATOM      8  C   UNL     1      -3.432  10.089   3.491  0.00  0.00     0.162 A 
ATOM      9  C   UNL     1      -2.106  10.430   3.227  0.00  0.00     0.158 A 
ATOM     10  C   UNL     1      -1.459  11.384   4.013  0.00  0.00     0.050 A 
ATOM     11  C   UNL     1      -2.139  11.997   5.065  0.00  0.00     0.012 A 
BRANCH   8  12
ATOM     12  O   UNL     1      -4.074   9.161   2.729  0.00  0.00    -0.491 OA
ATOM     13  C   UNL     1      -4.062   7.814   3.200  0.00  0.00     0.277 C 
ENDBRANCH   8  12
BRANCH   9  14
ATOM     14  O   UNL     1      -1.431   9.840   2.201  0.00  0.00    -0.503 OA
ATOM     15  H   UNL     1      -0.584   9.498   2.534  0.00  0.00     0.292 HD
ENDBRANCH   9  14
ENDBRANCH   5   6
ENDBRANCH   2   4
ENDBRANCH   1   2
BRANCH   1  16
ATOM     16  C   UNL     1      -4.629  13.575  10.399  0.00  0.00     0.164 C 
ATOM     17  O   UNL     1      -4.851  14.136  11.468  0.00  0.00    -0.292 OA
BRANCH  16  18
ATOM     18  C   UNL     1      -4.960  12.134  10.184  0.00  0.00     0.047 C 
ATOM     19  C   UNL     1      -4.014  11.274   9.784  0.00  0.00     0.011 C 
BRANCH  19  20
ATOM     20  C   UNL     1      -4.239   9.839   9.534  0.00  0.00    -0.021 A 
ATOM     21  C   UNL     1      -3.738   9.265   8.376  0.00  0.00     0.057 A 
ATOM     22  C   UNL     1      -3.953   7.907   8.140  0.00  0.00     0.162 A 
ATOM     23  C   UNL     1      -4.664   7.143   9.063  0.00  0.00     0.158 A 
ATOM     24  C   UNL     1      -5.161   7.734  10.224  0.00  0.00     0.050 A 
ATOM     25  C   UNL     1      -4.947   9.092  10.461  0.00  0.00     0.012 A 
BRANCH  22  26
ATOM     26  O   UNL     1      -3.462   7.340   7.002  0.00  0.00    -0.491 OA
ATOM     27  C   UNL     1      -2.321   7.958   6.409  0.00  0.00     0.277 C 
ENDBRANCH  22  26
BRANCH  23  28
ATOM     28  O   UNL     1      -4.878   5.815   8.844  0.00  0.00    -0.503 OA
ATOM     29  H   UNL     1      -4.030   5.403   8.607  0.00  0.00     0.292 HD
ENDBRANCH  23  28
ENDBRANCH  19  20
ENDBRANCH  16  18
ENDBRANCH   1  16
TORSDOF 10
ENDMDL
MODEL 2
REMARK VINA RESULT:      -3.5     12.696     15.578
REMARK  10 active torsions:
REMARK  status: ('A' for Active; 'I' for Inactive)
REMARK    1  A    between atoms: C_1  and  C_16 
REMARK    2  A    between atoms: C_1  and  C_2 
REMARK    3  A    between atoms: C_2  and  C_5 
REMARK    4  A    between atoms: C_4  and  C_10 
REMARK    5  A    between atoms: C_6  and  O_12 
REMARK    6  A    between atoms: C_7  and  O_14 
REMARK    7  A    between atoms: C_16  and  C_18 
REMARK    8  A    between atoms: C_19  and  C_20 
REMARK    9  A    between atoms: C_23  and  O_28 
REMARK   10  A    between atoms: C_24  and  O_26 
ROOT
ATOM      1  C   UNL     1     -18.161   9.366  18.053  0.00  0.00     0.158 C 
ENDROOT
BRANCH   1   2
ATOM      2  C   UNL     1     -16.687   9.372  18.406  0.00  0.00     0.164 C 
ATOM      3  O   UNL     1     -16.155   8.463  19.038  0.00  0.00    -0.292 OA
BRANCH   2   4
ATOM      4  C   UNL     1     -15.903  10.536  17.897  0.00  0.00     0.047 C 
ATOM      5  C   UNL     1     -16.488  11.464  17.126  0.00  0.00     0.011 C 
BRANCH   5   6
ATOM      6  C   UNL     1     -15.802  12.641  16.566  0.00  0.00    -0.021 A 
ATOM      7  C   UNL     1     -15.594  12.719  15.199  0.00  0.00     0.057 A 
ATOM      8  C   UNL     1     -14.944  13.834  14.669  0.00  0.00     0.162 A 
ATOM      9  C   UNL     1     -14.511  14.855  15.514  0.00  0.00     0.158 A 
ATOM     10  C   UNL     1     -14.727  14.762  16.889  0.00  0.00     0.050 A 
ATOM     11  C   UNL     1     -15.377  13.648  17.419  0.00  0.00     0.012 A 
BRANCH   8  12
ATOM     12  O   UNL     1     -14.739  13.914  13.324  0.00  0.00    -0.491 OA
ATOM     13  C   UNL     1     -15.851  14.305  12.521  0.00  0.00     0.277 C 
ENDBRANCH   8  12
BRANCH   9  14
ATOM     14  O   UNL     1     -13.876  15.950  15.009  0.00  0.00    -0.503 OA
ATOM     15  H   UNL     1     -14.477  16.411  14.399  0.00  0.00     0.292 HD
ENDBRANCH   9  14
ENDBRANCH   5   6
ENDBRANCH   2   4
ENDBRANCH   1   2
BRANCH   1  16
ATOM     16  C   UNL     1     -18.561   8.407  16.950  0.00  0.00     0.164 C 
ATOM     17  O   UNL     1     -18.977   7.275  17.177  0.00  0.00    -0.292 OA
BRANCH  16  18
ATOM     18  C   UNL     1     -18.462   8.942  15.559  0.00  0.00     0.047 C 
ATOM     19  C   UNL     1     -17.302   8.882  14.891  0.00  0.00     0.011 C 
BRANCH  19  20
ATOM     20  C   UNL     1     -17.097   9.391  13.522  0.00  0.00    -0.021 A 
ATOM     21  C   UNL     1     -16.213   8.736  12.680  0.00  0.00     0.057 A 
ATOM     22  C   UNL     1     -16.019   9.218  11.386  0.00  0.00     0.162 A 
ATOM     23  C   UNL     1     -16.711  10.348  10.952  0.00  0.00     0.158 A 
ATOM     24  C   UNL     1     -17.598  10.996  11.811  0.00  0.00     0.050 A 
ATOM     25  C   UNL     1     -17.792  10.514  13.106  0.00  0.00     0.012 A 
BRANCH  22  26
ATOM     26  O   UNL     1     -15.150   8.576  10.555  0.00  0.00    -0.491 OA
ATOM     27  C   UNL     1     -15.654   7.458   9.828  0.00  0.00     0.277 C 
ENDBRANCH  22  26
BRANCH  23  28
ATOM     28  O   UNL     1     -16.531  10.827   9.689  0.00  0.00    -0.503 OA
ATOM     29  H   UNL     1     -17.268  11.426   9.481  0.00  0.00     0.292 HD
ENDBRANCH  23  28
ENDBRANCH  19  20
ENDBRANCH  16  18
ENDBRANCH   1  16
TORSDOF 10
ENDMDL
MODEL 3
REMARK VINA RESULT:      -3.5     12.728     15.126
REMARK  10 active torsions:
REMARK  status: ('A' for Active; 'I' for Inactive)
REMARK    1  A    between atoms: C_1  and  C_16 
REMARK    2  A    between atoms: C_1  and  C_2 
REMARK    3  A    between atoms: C_2  and  C_5 
REMARK    4  A    between atoms: C_4  and  C_10 
REMARK    5  A    between atoms: C_6  and  O_12 
REMARK    6  A    between atoms: C_7  and  O_14 
REMARK    7  A    between atoms: C_16  and  C_18 
REMARK    8  A    between atoms: C_19  and  C_20 
REMARK    9  A    between atoms: C_23  and  O_28 
REMARK   10  A    between atoms: C_24  and  O_26 
ROOT
ATOM      1  C   UNL     1     -16.701   9.157  18.166  0.00  0.00     0.158 C 
ENDROOT
BRANCH   1   2
ATOM      2  C   UNL     1     -16.177   8.093  17.221  0.00  0.00     0.164 C 
ATOM      3  O   UNL     1     -15.961   6.938  17.581  0.00  0.00    -0.292 OA
BRANCH   2   4
ATOM      4  C   UNL     1     -15.982   8.522  15.805  0.00  0.00     0.047 C 
ATOM      5  C   UNL     1     -16.971   9.135  15.138  0.00  0.00     0.011 C 
BRANCH   5   6
ATOM      6  C   UNL     1     -16.883   9.587  13.739  0.00  0.00    -0.021 A 
ATOM      7  C   UNL     1     -16.052   8.914  12.859  0.00  0.00     0.057 A 
ATOM      8  C   UNL     1     -15.968   9.343  11.534  0.00  0.00     0.162 A 
ATOM      9  C   UNL     1     -16.717  10.440  11.109  0.00  0.00     0.158 A 
ATOM     10  C   UNL     1     -17.549  11.109  12.007  0.00  0.00     0.050 A 
ATOM     11  C   UNL     1     -17.633  10.680  13.332  0.00  0.00     0.012 A 
BRANCH   8  12
ATOM     12  O   UNL     1     -15.154   8.682  10.666  0.00  0.00    -0.491 OA
ATOM     13  C   UNL     1     -15.651   7.468  10.106  0.00  0.00     0.277 C 
ENDBRANCH   8  12
BRANCH   9  14
ATOM     14  O   UNL     1     -16.646  10.869   9.817  0.00  0.00    -0.503 OA
ATOM     15  H   UNL     1     -15.719  10.840   9.525  0.00  0.00     0.292 HD
ENDBRANCH   9  14
ENDBRANCH   5   6
ENDBRANCH   2   4
ENDBRANCH   1   2
BRANCH   1  16
ATOM     16  C   UNL     1     -15.643  10.034  18.806  0.00  0.00     0.164 C 
ATOM     17  O   UNL     1     -15.232   9.846  19.948  0.00  0.00    -0.292 OA
BRANCH  16  18
ATOM     18  C   UNL     1     -15.093  11.120  17.941  0.00  0.00     0.047 C 
ATOM     19  C   UNL     1     -15.742  12.285  17.821  0.00  0.00     0.011 C 
BRANCH  19  20
ATOM     20  C   UNL     1     -15.290  13.413  16.987  0.00  0.00    -0.021 A 
ATOM     21  C   UNL     1     -15.139  13.229  15.622  0.00  0.00     0.057 A 
ATOM     22  C   UNL     1     -14.710  14.297  14.833  0.00  0.00     0.162 A 
ATOM     23  C   UNL     1     -14.438  15.532  15.420  0.00  0.00     0.158 A 
ATOM     24  C   UNL     1     -14.595  15.702  16.795  0.00  0.00     0.050 A 
ATOM     25  C   UNL     1     -15.024  14.634  17.584  0.00  0.00     0.012 A 
BRANCH  22  26
ATOM     26  O   UNL     1     -14.560  14.120  13.490  0.00  0.00    -0.491 OA
ATOM     27  C   UNL     1     -15.741  14.174  12.693  0.00  0.00     0.277 C 
ENDBRANCH  22  26
BRANCH  23  28
ATOM     28  O   UNL     1     -14.020  16.583  14.659  0.00  0.00    -0.503 OA
ATOM     29  H   UNL     1     -14.642  16.692  13.919  0.00  0.00     0.292 HD
ENDBRANCH  23  28
ENDBRANCH  19  20
ENDBRANCH  16  18
ENDBRANCH   1  16
TORSDOF 10
ENDMDL
MODEL 4
REMARK VINA RESULT:      -3.4      3.447      7.295
REMARK  10 active torsions:
REMARK  status: ('A' for Active; 'I' for Inactive)
REMARK    1  A    between atoms: C_1  and  C_16 
REMARK    2  A    between atoms: C_1  and  C_2 
REMARK    3  A    between atoms: C_2  and  C_5 
REMARK    4  A    between atoms: C_4  and  C_10 
REMARK    5  A    between atoms: C_6  and  O_12 
REMARK    6  A    between atoms: C_7  and  O_14 
REMARK    7  A    between atoms: C_16  and  C_18 
REMARK    8  A    between atoms: C_19  and  C_20 
REMARK    9  A    between atoms: C_23  and  O_28 
REMARK   10  A    between atoms: C_24  and  O_26 
ROOT
ATOM      1  C   UNL     1      -4.071   8.521  15.588  0.00  0.00     0.158 C 
ENDROOT
BRANCH   1   2
ATOM      2  C   UNL     1      -3.263   7.420  14.927  0.00  0.00     0.164 C 
ATOM      3  O   UNL     1      -2.149   7.089  15.324  0.00  0.00    -0.292 OA
BRANCH   2   4
ATOM      4  C   UNL     1      -3.928   6.725  13.785  0.00  0.00     0.047 C 
ATOM      5  C   UNL     1      -3.427   6.825  12.546  0.00  0.00     0.011 C 
BRANCH   5   6
ATOM      6  C   UNL     1      -4.012   6.189  11.353  0.00  0.00    -0.021 A 
ATOM      7  C   UNL     1      -5.343   5.806  11.371  0.00  0.00     0.057 A 
ATOM      8  C   UNL     1      -5.897   5.202  10.242  0.00  0.00     0.162 A 
ATOM      9  C   UNL     1      -5.111   4.990   9.110  0.00  0.00     0.158 A 
ATOM     10  C   UNL     1      -3.771   5.381   9.106  0.00  0.00     0.050 A 
ATOM     11  C   UNL     1      -3.218   5.985  10.235  0.00  0.00     0.012 A 
BRANCH   8  12
ATOM     12  O   UNL     1      -7.205   4.826  10.257  0.00  0.00    -0.491 OA
ATOM     13  C   UNL     1      -7.688   4.202  11.445  0.00  0.00     0.277 C 
ENDBRANCH   8  12
BRANCH   9  14
ATOM     14  O   UNL     1      -5.639   4.404   7.999  0.00  0.00    -0.503 OA
ATOM     15  H   UNL     1      -6.607   4.488   8.027  0.00  0.00     0.292 HD
ENDBRANCH   9  14
ENDBRANCH   5   6
ENDBRANCH   2   4
ENDBRANCH   1   2
BRANCH   1  16
ATOM     16  C   UNL     1      -3.802   9.921  15.074  0.00  0.00     0.164 C 
ATOM     17  O   UNL     1      -3.244  10.778  15.753  0.00  0.00    -0.292 OA
BRANCH  16  18
ATOM     18  C   UNL     1      -4.219  10.184  13.664  0.00  0.00     0.047 C 
ATOM     19  C   UNL     1      -3.298  10.393  12.713  0.00  0.00     0.011 C 
BRANCH  19  20
ATOM     20  C   UNL     1      -3.604  10.671  11.298  0.00  0.00    -0.021 A 
ATOM     21  C   UNL     1      -4.285  11.832  10.967  0.00  0.00     0.057 A 
ATOM     22  C   UNL     1      -4.575  12.094   9.628  0.00  0.00     0.162 A 
ATOM     23  C   UNL     1      -4.182  11.193   8.640  0.00  0.00     0.158 A 
ATOM     24  C   UNL     1      -3.498  10.029   8.989  0.00  0.00     0.050 A 
ATOM     25  C   UNL     1      -3.207   9.766  10.328  0.00  0.00     0.012 A 
BRANCH  22  26
ATOM     26  O   UNL     1      -5.243  13.235   9.299  0.00  0.00    -0.491 OA
ATOM     27  C   UNL     1      -4.526  14.462   9.409  0.00  0.00     0.277 C 
ENDBRANCH  22  26
BRANCH  23  28
ATOM     28  O   UNL     1      -4.458  11.439   7.329  0.00  0.00    -0.503 OA
ATOM     29  H   UNL     1      -3.634  11.351   6.820  0.00  0.00     0.292 HD
ENDBRANCH  23  28
ENDBRANCH  19  20
ENDBRANCH  16  18
ENDBRANCH   1  16
TORSDOF 10
ENDMDL
MODEL 5
REMARK VINA RESULT:      -3.4      1.671      5.817
REMARK  10 active torsions:
REMARK  status: ('A' for Active; 'I' for Inactive)
REMARK    1  A    between atoms: C_1  and  C_16 
REMARK    2  A    between atoms: C_1  and  C_2 
REMARK    3  A    between atoms: C_2  and  C_5 
REMARK    4  A    between atoms: C_4  and  C_10 
REMARK    5  A    between atoms: C_6  and  O_12 
REMARK    6  A    between atoms: C_7  and  O_14 
REMARK    7  A    between atoms: C_16  and  C_18 
REMARK    8  A    between atoms: C_19  and  C_20 
REMARK    9  A    between atoms: C_23  and  O_28 
REMARK   10  A    between atoms: C_24  and  O_26 
ROOT
ATOM      1  C   UNL     1      -2.235   8.772   3.751  0.00  0.00     0.158 C 
ENDROOT
BRANCH   1   2
ATOM      2  C   UNL     1      -3.468   9.549   3.332  0.00  0.00     0.164 C 
ATOM      3  O   UNL     1      -4.022   9.376   2.249  0.00  0.00    -0.292 OA
BRANCH   2   4
ATOM      4  C   UNL     1      -4.002  10.511   4.341  0.00  0.00     0.047 C 
ATOM      5  C   UNL     1      -3.313  10.772   5.461  0.00  0.00     0.011 C 
BRANCH   5   6
ATOM      6  C   UNL     1      -3.756  11.695   6.520  0.00  0.00    -0.021 A 
ATOM      7  C   UNL     1      -4.243  12.944   6.173  0.00  0.00     0.057 A 
ATOM      8  C   UNL     1      -4.662  13.818   7.176  0.00  0.00     0.162 A 
ATOM      9  C   UNL     1      -4.588  13.430   8.514  0.00  0.00     0.158 A 
ATOM     10  C   UNL     1      -4.094  12.168   8.849  0.00  0.00     0.050 A 
ATOM     11  C   UNL     1      -3.676  11.295   7.845  0.00  0.00     0.012 A 
BRANCH   8  12
ATOM     12  O   UNL     1      -5.143  15.046   6.838  0.00  0.00    -0.491 OA
ATOM     13  C   UNL     1      -6.512  15.121   6.445  0.00  0.00     0.277 C 
ENDBRANCH   8  12
BRANCH   9  14
ATOM     14  O   UNL     1      -4.995  14.273   9.504  0.00  0.00    -0.503 OA
ATOM     15  H   UNL     1      -5.038  13.780  10.341  0.00  0.00     0.292 HD
ENDBRANCH   9  14
ENDBRANCH   5   6
ENDBRANCH   2   4
ENDBRANCH   1   2
BRANCH   1  16
ATOM     16  C   UNL     1      -2.479   7.328   4.141  0.00  0.00     0.164 C 
ATOM     17  O   UNL     1      -1.908   6.390   3.592  0.00  0.00    -0.292 OA
BRANCH  16  18
ATOM     18  C   UNL     1      -3.428   7.115   5.275  0.00  0.00     0.047 C 
ATOM     19  C   UNL     1      -2.972   7.022   6.532  0.00  0.00     0.011 C 
BRANCH  19  20
ATOM     20  C   UNL     1      -3.821   6.802   7.716  0.00  0.00    -0.021 A 
ATOM     21  C   UNL     1      -4.182   7.884   8.503  0.00  0.00     0.057 A 
ATOM     22  C   UNL     1      -4.985   7.675   9.624  0.00  0.00     0.162 A 
ATOM     23  C   UNL     1      -5.415   6.388   9.943  0.00  0.00     0.158 A 
ATOM     24  C   UNL     1      -5.043   5.308   9.142  0.00  0.00     0.050 A 
ATOM     25  C   UNL     1      -4.240   5.517   8.020  0.00  0.00     0.012 A 
BRANCH  22  26
ATOM     26  O   UNL     1      -5.342   8.737  10.400  0.00  0.00    -0.491 OA
ATOM     27  C   UNL     1      -4.354   9.250  11.291  0.00  0.00     0.277 C 
ENDBRANCH  22  26
BRANCH  23  28
ATOM     28  O   UNL     1      -6.201   6.171  11.035  0.00  0.00    -0.503 OA
ATOM     29  H   UNL     1      -5.681   6.375  11.831  0.00  0.00     0.292 HD
ENDBRANCH  23  28
ENDBRANCH  19  20
ENDBRANCH  16  18
ENDBRANCH   1  16
TORSDOF 10
ENDMDL
MODEL 6
REMARK VINA RESULT:      -3.4      0.380      5.460
REMARK  10 active torsions:
REMARK  status: ('A' for Active; 'I' for Inactive)
REMARK    1  A    between atoms: C_1  and  C_16 
REMARK    2  A    between atoms: C_1  and  C_2 
REMARK    3  A    between atoms: C_2  and  C_5 
REMARK    4  A    between atoms: C_4  and  C_10 
REMARK    5  A    between atoms: C_6  and  O_12 
REMARK    6  A    between atoms: C_7  and  O_14 
REMARK    7  A    between atoms: C_16  and  C_18 
REMARK    8  A    between atoms: C_19  and  C_20 
REMARK    9  A    between atoms: C_23  and  O_28 
REMARK   10  A    between atoms: C_24  and  O_26 
ROOT
ATOM      1  C   UNL     1      -3.987  14.325   9.163  0.00  0.00     0.158 C 
ENDROOT
BRANCH   1   2
ATOM      2  C   UNL     1      -4.575  13.612  10.365  0.00  0.00     0.164 C 
ATOM      3  O   UNL     1      -4.784  14.181  11.434  0.00  0.00    -0.292 OA
BRANCH   2   4
ATOM      4  C   UNL     1      -4.929  12.177  10.158  0.00  0.00     0.047 C 
ATOM      5  C   UNL     1      -3.994  11.294   9.780  0.00  0.00     0.011 C 
BRANCH   5   6
ATOM      6  C   UNL     1      -4.243   9.862   9.539  0.00  0.00    -0.021 A 
ATOM      7  C   UNL     1      -3.793   9.283   8.365  0.00  0.00     0.057 A 
ATOM      8  C   UNL     1      -4.030   7.927   8.137  0.00  0.00     0.162 A 
ATOM      9  C   UNL     1      -4.714   7.170   9.087  0.00  0.00     0.158 A 
ATOM     10  C   UNL     1      -5.162   7.767  10.265  0.00  0.00     0.050 A 
ATOM     11  C   UNL     1      -4.925   9.123  10.493  0.00  0.00     0.012 A 
BRANCH   8  12
ATOM     12  O   UNL     1      -3.587   7.354   6.983  0.00  0.00    -0.491 OA
ATOM     13  C   UNL     1      -2.212   6.977   6.933  0.00  0.00     0.277 C 
ENDBRANCH   8  12
BRANCH   9  14
ATOM     14  O   UNL     1      -4.950   5.844   8.878  0.00  0.00    -0.503 OA
ATOM     15  H   UNL     1      -5.159   5.704   7.939  0.00  0.00     0.292 HD
ENDBRANCH   9  14
ENDBRANCH   5   6
ENDBRANCH   2   4
ENDBRANCH   1   2
BRANCH   1  16
ATOM     16  C   UNL     1      -4.803  14.232   7.890  0.00  0.00     0.164 C 
ATOM     17  O   UNL     1      -5.979  14.582   7.831  0.00  0.00    -0.292 OA
BRANCH  16  18
ATOM     18  C   UNL     1      -4.074  13.727   6.688  0.00  0.00     0.047 C 
ATOM     19  C   UNL     1      -4.303  12.491   6.225  0.00  0.00     0.011 C 
BRANCH  19  20
ATOM     20  C   UNL     1      -3.629  11.896   5.057  0.00  0.00    -0.021 A 
ATOM     21  C   UNL     1      -4.157  10.753   4.479  0.00  0.00     0.057 A 
ATOM     22  C   UNL     1      -3.519  10.191   3.373  0.00  0.00     0.162 A 
ATOM     23  C   UNL     1      -2.361  10.777   2.863  0.00  0.00     0.158 A 
ATOM     24  C   UNL     1      -1.842  11.928   3.456  0.00  0.00     0.050 A 
ATOM     25  C   UNL     1      -2.481  12.491   4.562  0.00  0.00     0.012 A 
BRANCH  22  26
ATOM     26  O   UNL     1      -4.035   9.067   2.802  0.00  0.00    -0.491 OA
ATOM     27  C   UNL     1      -3.906   7.849   3.533  0.00  0.00     0.277 C 
ENDBRANCH  22  26
BRANCH  23  28
ATOM     28  O   UNL     1      -1.730  10.237   1.784  0.00  0.00    -0.503 OA
ATOM     29  H   UNL     1      -0.932   9.776   2.095  0.00  0.00     0.292 HD
ENDBRANCH  23  28
ENDBRANCH  19  20
ENDBRANCH  16  18
ENDBRANCH   1  16
TORSDOF 10
ENDMDL
MODEL 7
REMARK VINA RESULT:      -3.4      4.621      8.537
REMARK  10 active torsions:
REMARK  status: ('A' for Active; 'I' for Inactive)
REMARK    1  A    between atoms: C_1  and  C_16 
REMARK    2  A    between atoms: C_1  and  C_2 
REMARK    3  A    between atoms: C_2  and  C_5 
REMARK    4  A    between atoms: C_4  and  C_10 
REMARK    5  A    between atoms: C_6  and  O_12 
REMARK    6  A    between atoms: C_7  and  O_14 
REMARK    7  A    between atoms: C_16  and  C_18 
REMARK    8  A    between atoms: C_19  and  C_20 
REMARK    9  A    between atoms: C_23  and  O_28 
REMARK   10  A    between atoms: C_24  and  O_26 
ROOT
ATOM      1  C   UNL     1      -4.517  18.393  13.594  0.00  0.00     0.158 C 
ENDROOT
BRANCH   1   2
ATOM      2  C   UNL     1      -4.861  16.965  13.972  0.00  0.00     0.164 C 
ATOM      3  O   UNL     1      -5.015  16.609  15.137  0.00  0.00    -0.292 OA
BRANCH   2   4
ATOM      4  C   UNL     1      -5.049  16.021  12.832  0.00  0.00     0.047 C 
ATOM      5  C   UNL     1      -4.371  16.192  11.688  0.00  0.00     0.011 C 
BRANCH   5   6
ATOM      6  C   UNL     1      -4.492  15.325  10.504  0.00  0.00    -0.021 A 
ATOM      7  C   UNL     1      -4.451  13.949  10.663  0.00  0.00     0.057 A 
ATOM      8  C   UNL     1      -4.565  13.128   9.541  0.00  0.00     0.162 A 
ATOM      9  C   UNL     1      -4.719  13.694   8.276  0.00  0.00     0.158 A 
ATOM     10  C   UNL     1      -4.758  15.081   8.132  0.00  0.00     0.050 A 
ATOM     11  C   UNL     1      -4.644  15.902   9.253  0.00  0.00     0.012 A 
BRANCH   8  12
ATOM     12  O   UNL     1      -4.526  11.775   9.694  0.00  0.00    -0.491 OA
ATOM     13  C   UNL     1      -4.977  11.250  10.942  0.00  0.00     0.277 C 
ENDBRANCH   8  12
BRANCH   9  14
ATOM     14  O   UNL     1      -4.834  12.903   7.172  0.00  0.00    -0.503 OA
ATOM     15  H   UNL     1      -4.242  13.240   6.479  0.00  0.00     0.292 HD
ENDBRANCH   9  14
ENDBRANCH   5   6
ENDBRANCH   2   4
ENDBRANCH   1   2
BRANCH   1  16
ATOM     16  C   UNL     1      -5.693  19.348  13.524  0.00  0.00     0.164 C 
ATOM     17  O   UNL     1      -5.672  20.460  14.042  0.00  0.00    -0.292 OA
BRANCH  16  18
ATOM     18  C   UNL     1      -6.870  18.868  12.740  0.00  0.00     0.047 C 
ATOM     19  C   UNL     1      -6.857  18.914  11.401  0.00  0.00     0.011 C 
BRANCH  19  20
ATOM     20  C   UNL     1      -7.969  18.476  10.537  0.00  0.00    -0.021 A 
ATOM     21  C   UNL     1      -7.705  18.101   9.230  0.00  0.00     0.057 A 
ATOM     22  C   UNL     1      -8.758  17.688   8.413  0.00  0.00     0.162 A 
ATOM     23  C   UNL     1     -10.059  17.658   8.914  0.00  0.00     0.158 A 
ATOM     24  C   UNL     1     -10.308  18.039  10.232  0.00  0.00     0.050 A 
ATOM     25  C   UNL     1      -9.255  18.451  11.050  0.00  0.00     0.012 A 
BRANCH  22  26
ATOM     26  O   UNL     1      -8.502  17.318   7.127  0.00  0.00    -0.491 OA
ATOM     27  C   UNL     1      -7.163  17.475   6.661  0.00  0.00     0.277 C 
ENDBRANCH  22  26
BRANCH  23  28
ATOM     28  O   UNL     1     -11.094  17.255   8.126  0.00  0.00    -0.503 OA
ATOM     29  H   UNL     1     -11.859  17.069   8.697  0.00  0.00     0.292 HD
ENDBRANCH  23  28
ENDBRANCH  19  20
ENDBRANCH  16  18
ENDBRANCH   1  16
TORSDOF 10
ENDMDL
MODEL 8
REMARK VINA RESULT:      -3.3     11.161     13.130
REMARK  10 active torsions:
REMARK  status: ('A' for Active; 'I' for Inactive)
REMARK    1  A    between atoms: C_1  and  C_16 
REMARK    2  A    between atoms: C_1  and  C_2 
REMARK    3  A    between atoms: C_2  and  C_5 
REMARK    4  A    between atoms: C_4  and  C_10 
REMARK    5  A    between atoms: C_6  and  O_12 
REMARK    6  A    between atoms: C_7  and  O_14 
REMARK    7  A    between atoms: C_16  and  C_18 
REMARK    8  A    between atoms: C_19  and  C_20 
REMARK    9  A    between atoms: C_23  and  O_28 
REMARK   10  A    between atoms: C_24  and  O_26 
ROOT
ATOM      1  C   UNL     1     -18.327   6.651   4.685  0.00  0.00     0.158 C 
ENDROOT
BRANCH   1   2
ATOM      2  C   UNL     1     -17.218   5.936   3.939  0.00  0.00     0.164 C 
ATOM      3  O   UNL     1     -17.380   5.448   2.823  0.00  0.00    -0.292 OA
BRANCH   2   4
ATOM      4  C   UNL     1     -15.893   5.899   4.626  0.00  0.00     0.047 C 
ATOM      5  C   UNL     1     -15.653   5.000   5.590  0.00  0.00     0.011 C 
BRANCH   5   6
ATOM      6  C   UNL     1     -14.387   4.888   6.335  0.00  0.00    -0.021 A 
ATOM      7  C   UNL     1     -13.191   5.137   5.682  0.00  0.00     0.057 A 
ATOM      8  C   UNL     1     -11.992   5.030   6.387  0.00  0.00     0.162 A 
ATOM      9  C   UNL     1     -12.007   4.675   7.736  0.00  0.00     0.158 A 
ATOM     10  C   UNL     1     -13.219   4.427   8.380  0.00  0.00     0.050 A 
ATOM     11  C   UNL     1     -14.418   4.534   7.675  0.00  0.00     0.012 A 
BRANCH   8  12
ATOM     12  O   UNL     1     -10.815   5.276   5.748  0.00  0.00    -0.491 OA
ATOM     13  C   UNL     1     -10.434   4.367   4.717  0.00  0.00     0.277 C 
ENDBRANCH   8  12
BRANCH   9  14
ATOM     14  O   UNL     1     -10.843   4.570   8.437  0.00  0.00    -0.503 OA
ATOM     15  H   UNL     1     -10.529   3.651   8.391  0.00  0.00     0.292 HD
ENDBRANCH   9  14
ENDBRANCH   5   6
ENDBRANCH   2   4
ENDBRANCH   1   2
BRANCH   1  16
ATOM     16  C   UNL     1     -18.178   8.156   4.784  0.00  0.00     0.164 C 
ATOM     17  O   UNL     1     -18.545   8.916   3.892  0.00  0.00    -0.292 OA
BRANCH  16  18
ATOM     18  C   UNL     1     -17.596   8.667   6.061  0.00  0.00     0.047 C 
ATOM     19  C   UNL     1     -17.555   7.884   7.147  0.00  0.00     0.011 C 
BRANCH  19  20
ATOM     20  C   UNL     1     -17.013   8.295   8.455  0.00  0.00    -0.021 A 
ATOM     21  C   UNL     1     -16.045   7.512   9.065  0.00  0.00     0.057 A 
ATOM     22  C   UNL     1     -15.533   7.902  10.303  0.00  0.00     0.162 A 
ATOM     23  C   UNL     1     -15.997   9.066  10.914  0.00  0.00     0.158 A 
ATOM     24  C   UNL     1     -16.971   9.843  10.288  0.00  0.00     0.050 A 
ATOM     25  C   UNL     1     -17.483   9.454   9.050  0.00  0.00     0.012 A 
BRANCH  22  26
ATOM     26  O   UNL     1     -14.581   7.135  10.905  0.00  0.00    -0.491 OA
ATOM     27  C   UNL     1     -14.991   5.863  11.401  0.00  0.00     0.277 C 
ENDBRANCH  22  26
BRANCH  23  28
ATOM     28  O   UNL     1     -15.503   9.457  12.122  0.00  0.00    -0.503 OA
ATOM     29  H   UNL     1     -14.654   9.908  11.975  0.00  0.00     0.292 HD
ENDBRANCH  23  28
ENDBRANCH  19  20
ENDBRANCH  16  18
ENDBRANCH   1  16
TORSDOF 10
ENDMDL
MODEL 9
REMARK VINA RESULT:      -3.3     10.956     14.447
REMARK  10 active torsions:
REMARK  status: ('A' for Active; 'I' for Inactive)
REMARK    1  A    between atoms: C_1  and  C_16 
REMARK    2  A    between atoms: C_1  and  C_2 
REMARK    3  A    between atoms: C_2  and  C_5 
REMARK    4  A    between atoms: C_4  and  C_10 
REMARK    5  A    between atoms: C_6  and  O_12 
REMARK    6  A    between atoms: C_7  and  O_14 
REMARK    7  A    between atoms: C_16  and  C_18 
REMARK    8  A    between atoms: C_19  and  C_20 
REMARK    9  A    between atoms: C_23  and  O_28 
REMARK   10  A    between atoms: C_24  and  O_26 
ROOT
ATOM      1  C   UNL     1     -16.714  -0.035   7.665  0.00  0.00     0.158 C 
ENDROOT
BRANCH   1   2
ATOM      2  C   UNL     1     -17.692   0.784   8.484  0.00  0.00     0.164 C 
ATOM      3  O   UNL     1     -18.681   0.290   9.020  0.00  0.00    -0.292 OA
BRANCH   2   4
ATOM      4  C   UNL     1     -17.356   2.230   8.641  0.00  0.00     0.047 C 
ATOM      5  C   UNL     1     -16.290   2.605   9.364  0.00  0.00     0.011 C 
BRANCH   5   6
ATOM      6  C   UNL     1     -15.880   4.002   9.587  0.00  0.00    -0.021 A 
ATOM      7  C   UNL     1     -15.114   4.315  10.699  0.00  0.00     0.057 A 
ATOM      8  C   UNL     1     -14.727   5.638  10.911  0.00  0.00     0.162 A 
ATOM      9  C   UNL     1     -15.109   6.629  10.008  0.00  0.00     0.158 A 
ATOM     10  C   UNL     1     -15.880   6.299   8.894  0.00  0.00     0.050 A 
ATOM     11  C   UNL     1     -16.268   4.976   8.681  0.00  0.00     0.012 A 
BRANCH   8  12
ATOM     12  O   UNL     1     -13.973   5.948  12.002  0.00  0.00    -0.491 OA
ATOM     13  C   UNL     1     -13.007   4.985  12.419  0.00  0.00     0.277 C 
ENDBRANCH   8  12
BRANCH   9  14
ATOM     14  O   UNL     1     -14.735   7.925  10.203  0.00  0.00    -0.503 OA
ATOM     15  H   UNL     1     -15.472   8.508   9.952  0.00  0.00     0.292 HD
ENDBRANCH   9  14
ENDBRANCH   5   6
ENDBRANCH   2   4
ENDBRANCH   1   2
BRANCH   1  16
ATOM     16  C   UNL     1     -16.411   0.507   6.282  0.00  0.00     0.164 C 
ATOM     17  O   UNL     1     -17.204   0.413   5.349  0.00  0.00    -0.292 OA
BRANCH  16  18
ATOM     18  C   UNL     1     -15.101   1.208   6.133  0.00  0.00     0.047 C 
ATOM     19  C   UNL     1     -15.055   2.543   6.036  0.00  0.00     0.011 C 
BRANCH  19  20
ATOM     20  C   UNL     1     -13.818   3.329   5.875  0.00  0.00    -0.021 A 
ATOM     21  C   UNL     1     -13.146   3.773   7.002  0.00  0.00     0.057 A 
ATOM     22  C   UNL     1     -11.975   4.517   6.849  0.00  0.00     0.162 A 
ATOM     23  C   UNL     1     -11.494   4.806   5.573  0.00  0.00     0.158 A 
ATOM     24  C   UNL     1     -12.182   4.351   4.448  0.00  0.00     0.050 A 
ATOM     25  C   UNL     1     -13.353   3.607   4.600  0.00  0.00     0.012 A 
BRANCH  22  26
ATOM     26  O   UNL     1     -11.311   4.955   7.955  0.00  0.00    -0.491 OA
ATOM     27  C   UNL     1     -11.199   4.046   9.048  0.00  0.00     0.277 C 
ENDBRANCH  22  26
BRANCH  23  28
ATOM     28  O   UNL     1     -10.352   5.530   5.411  0.00  0.00    -0.503 OA
ATOM     29  H   UNL     1     -10.000   5.748   6.292  0.00  0.00     0.292 HD
ENDBRANCH  23  28
ENDBRANCH  19  20
ENDBRANCH  16  18
ENDBRANCH   1  16
TORSDOF 10
ENDMDL
MODEL 10
REMARK VINA RESULT:      -3.3     13.330     14.992
REMARK  10 active torsions:
REMARK  status: ('A' for Active; 'I' for Inactive)
REMARK    1  A    between atoms: C_1  and  C_16 
REMARK    2  A    between atoms: C_1  and  C_2 
REMARK    3  A    between atoms: C_2  and  C_5 
REMARK    4  A    between atoms: C_4  and  C_10 
REMARK    5  A    between atoms: C_6  and  O_12 
REMARK    6  A    between atoms: C_7  and  O_14 
REMARK    7  A    between atoms: C_16  and  C_18 
REMARK    8  A    between atoms: C_19  and  C_20 
REMARK    9  A    between atoms: C_23  and  O_28 
REMARK   10  A    between atoms: C_24  and  O_26 
ROOT
ATOM      1  C   UNL     1     -17.705   9.807  11.976  0.00  0.00     0.158 C 
ENDROOT
BRANCH   1   2
ATOM      2  C   UNL     1     -17.937  11.303  12.065  0.00  0.00     0.164 C 
ATOM      3  O   UNL     1     -18.540  11.930  11.197  0.00  0.00    -0.292 OA
BRANCH   2   4
ATOM      4  C   UNL     1     -17.427  11.965  13.301  0.00  0.00     0.047 C 
ATOM      5  C   UNL     1     -16.286  12.669  13.273  0.00  0.00     0.011 C 
BRANCH   5   6
ATOM      6  C   UNL     1     -15.693  13.350  14.437  0.00  0.00    -0.021 A 
ATOM      7  C   UNL     1     -15.030  14.552  14.255  0.00  0.00     0.057 A 
ATOM      8  C   UNL     1     -14.468  15.196  15.357  0.00  0.00     0.162 A 
ATOM      9  C   UNL     1     -14.577  14.629  16.626  0.00  0.00     0.158 A 
ATOM     10  C   UNL     1     -15.248  13.417  16.794  0.00  0.00     0.050 A 
ATOM     11  C   UNL     1     -15.810  12.773  15.692  0.00  0.00     0.012 A 
BRANCH   8  12
ATOM     12  O   UNL     1     -13.816  16.379  15.182  0.00  0.00    -0.491 OA
ATOM     13  C   UNL     1     -14.615  17.521  14.876  0.00  0.00     0.277 C 
ENDBRANCH   8  12
BRANCH   9  14
ATOM     14  O   UNL     1     -14.035  15.249  17.712  0.00  0.00    -0.503 OA
ATOM     15  H   UNL     1     -13.437  15.953  17.408  0.00  0.00     0.292 HD
ENDBRANCH   9  14
ENDBRANCH   5   6
ENDBRANCH   2   4
ENDBRANCH   1   2
BRANCH   1  16
ATOM     16  C   UNL     1     -16.255   9.370  12.032  0.00  0.00     0.164 C 
ATOM     17  O   UNL     1     -15.455   9.620  11.134  0.00  0.00    -0.292 OA
BRANCH  16  18
ATOM     18  C   UNL     1     -15.842   8.653  13.275  0.00  0.00     0.047 C 
ATOM     19  C   UNL     1     -15.136   9.288  14.220  0.00  0.00     0.011 C 
BRANCH  19  20
ATOM     20  C   UNL     1     -14.671   8.670  15.475  0.00  0.00    -0.021 A 
ATOM     21  C   UNL     1     -14.640   9.428  16.635  0.00  0.00     0.057 A 
ATOM     22  C   UNL     1     -14.200   8.842  17.821  0.00  0.00     0.162 A 
ATOM     23  C   UNL     1     -13.795   7.508  17.832  0.00  0.00     0.158 A 
ATOM     24  C   UNL     1     -13.832   6.758  16.657  0.00  0.00     0.050 A 
ATOM     25  C   UNL     1     -14.273   7.343  15.470  0.00  0.00     0.012 A 
BRANCH  22  26
ATOM     26  O   UNL     1     -14.168   9.585  18.963  0.00  0.00    -0.491 OA
ATOM     27  C   UNL     1     -13.425  10.802  18.926  0.00  0.00     0.277 C 
ENDBRANCH  22  26
BRANCH  23  28
ATOM     28  O   UNL     1     -13.364   6.925  18.985  0.00  0.00    -0.503 OA
ATOM     29  H   UNL     1     -13.220   5.979  18.815  0.00  0.00     0.292 HD
ENDBRANCH  23  28
ENDBRANCH  19  20
ENDBRANCH  16  18
ENDBRANCH   1  16
TORSDOF 10
ENDMDL
