MODEL 1
REMARK VINA RESULT:      -6.2      0.000      0.000
REMARK  12 active torsions:
REMARK  status: ('A' for Active; 'I' for Inactive)
REMARK    1  A    between atoms: C_4  and  O_25 
REMARK    2  A    between atoms: C_6  and  O_23 
REMARK    3  A    between atoms: C_9  and  O_27 
REMARK    4  A    between atoms: C_10  and  C_11 
REMARK    5  A    between atoms: C_13  and  O_21 
REMARK    6  A    between atoms: C_14  and  O_19 
REMARK    7  A    between atoms: C_15  and  O_17 
REMARK    8  A    between atoms: O_27  and  C_28 
REMARK    9  A    between atoms: C_28  and  C_30 
REMARK   10  A    between atoms: C_32  and  O_40 
REMARK   11  A    between atoms: C_33  and  O_38 
REMARK   12  A    between atoms: C_34  and  O_36 
ROOT
ATOM      1  O   UNL     1      -3.504  -2.968   2.730  0.00  0.00    -0.480 OA
ATOM      2  C   UNL     1      -4.102  -2.283   3.756  0.00  0.00     0.132 A 
ATOM      3  C   UNL     1      -5.237  -2.877   4.312  0.00  0.00     0.091 A 
ATOM      4  C   UNL     1      -5.907  -2.254   5.364  0.00  0.00     0.124 A 
ATOM      5  C   UNL     1      -5.440  -1.042   5.866  0.00  0.00     0.091 A 
ATOM      6  C   UNL     1      -4.297  -0.455   5.321  0.00  0.00     0.127 A 
ATOM      7  C   UNL     1      -3.610  -1.077   4.270  0.00  0.00     0.039 A 
ATOM      8  C   UNL     1      -2.375  -0.430   3.702  0.00  0.00     0.091 C 
ATOM      9  C   UNL     1      -1.597  -1.409   2.825  0.00  0.00     0.226 C 
ATOM     10  C   UNL     1      -2.578  -2.198   1.946  0.00  0.00     0.245 C 
ENDROOT
BRANCH   9  11
ATOM     11  O   UNL     1      -0.860  -2.304   3.660  0.00  0.00    -0.453 OA
BRANCH  11  12
ATOM     12  C   UNL     1       0.477  -2.078   3.732  0.00  0.00     0.340 C 
ATOM     13  O   UNL     1       1.017  -1.019   4.014  0.00  0.00    -0.245 OA
BRANCH  12  14
ATOM     14  C   UNL     1       1.231  -3.316   3.412  0.00  0.00     0.066 A 
ATOM     15  C   UNL     1       2.611  -3.284   3.441  0.00  0.00     0.064 A 
ATOM     16  C   UNL     1       3.319  -4.448   3.140  0.00  0.00     0.163 A 
ATOM     17  C   UNL     1       2.632  -5.619   2.819  0.00  0.00     0.201 A 
ATOM     18  C   UNL     1       1.237  -5.626   2.798  0.00  0.00     0.163 A 
ATOM     19  C   UNL     1       0.530  -4.462   3.096  0.00  0.00     0.064 A 
BRANCH  16  20
ATOM     20  O   UNL     1       4.681  -4.429   3.167  0.00  0.00    -0.503 OA
ATOM     21  H   UNL     1       4.994  -5.072   3.828  0.00  0.00     0.292 HD
ENDBRANCH  16  20
BRANCH  17  22
ATOM     22  O   UNL     1       3.324  -6.757   2.527  0.00  0.00    -0.501 OA
ATOM     23  H   UNL     1       2.684  -7.472   2.365  0.00  0.00     0.292 HD
ENDBRANCH  17  22
BRANCH  18  24
ATOM     24  O   UNL     1       0.555  -6.763   2.485  0.00  0.00    -0.503 OA
ATOM     25  H   UNL     1      -0.334  -6.523   2.173  0.00  0.00     0.292 HD
ENDBRANCH  18  24
ENDBRANCH  12  14
ENDBRANCH  11  12
ENDBRANCH   9  11
BRANCH  10  26
ATOM     26  C   UNL     1      -1.854  -3.109   0.973  0.00  0.00     0.003 A 
ATOM     27  C   UNL     1      -2.181  -4.463   0.914  0.00  0.00     0.056 A 
ATOM     28  C   UNL     1      -1.515  -5.301   0.020  0.00  0.00     0.162 A 
ATOM     29  C   UNL     1      -0.522  -4.785  -0.814  0.00  0.00     0.201 A 
ATOM     30  C   UNL     1      -0.196  -3.430  -0.753  0.00  0.00     0.162 A 
ATOM     31  C   UNL     1      -0.862  -2.591   0.141  0.00  0.00     0.056 A 
BRANCH  28  32
ATOM     32  O   UNL     1      -1.843  -6.623  -0.031  0.00  0.00    -0.503 OA
ATOM     33  H   UNL     1      -2.336  -6.795  -0.851  0.00  0.00     0.292 HD
ENDBRANCH  28  32
BRANCH  29  34
ATOM     34  O   UNL     1       0.127  -5.604  -1.689  0.00  0.00    -0.501 OA
ATOM     35  H   UNL     1       0.414  -6.401  -1.208  0.00  0.00     0.292 HD
ENDBRANCH  29  34
BRANCH  30  36
ATOM     36  O   UNL     1       0.771  -2.913  -1.561  0.00  0.00    -0.503 OA
ATOM     37  H   UNL     1       1.279  -2.249  -1.064  0.00  0.00     0.292 HD
ENDBRANCH  30  36
ENDBRANCH  10  26
BRANCH   6  38
ATOM     38  O   UNL     1      -3.866   0.734   5.834  0.00  0.00    -0.506 OA
ATOM     39  H   UNL     1      -3.530   0.590   6.735  0.00  0.00     0.292 HD
ENDBRANCH   6  38
BRANCH   4  40
ATOM     40  O   UNL     1      -7.019  -2.830   5.898  0.00  0.00    -0.507 OA
ATOM     41  H   UNL     1      -7.111  -3.730   5.541  0.00  0.00     0.292 HD
ENDBRANCH   4  40
TORSDOF 12
ENDMDL
MODEL 2
REMARK VINA RESULT:      -6.2      0.023      1.448
REMARK  12 active torsions:
REMARK  status: ('A' for Active; 'I' for Inactive)
REMARK    1  A    between atoms: C_4  and  O_25 
REMARK    2  A    between atoms: C_6  and  O_23 
REMARK    3  A    between atoms: C_9  and  O_27 
REMARK    4  A    between atoms: C_10  and  C_11 
REMARK    5  A    between atoms: C_13  and  O_21 
REMARK    6  A    between atoms: C_14  and  O_19 
REMARK    7  A    between atoms: C_15  and  O_17 
REMARK    8  A    between atoms: O_27  and  C_28 
REMARK    9  A    between atoms: C_28  and  C_30 
REMARK   10  A    between atoms: C_32  and  O_40 
REMARK   11  A    between atoms: C_33  and  O_38 
REMARK   12  A    between atoms: C_34  and  O_36 
ROOT
ATOM      1  O   UNL     1      -3.490  -2.955   2.745  0.00  0.00    -0.480 OA
ATOM      2  C   UNL     1      -4.085  -2.274   3.775  0.00  0.00     0.132 A 
ATOM      3  C   UNL     1      -5.219  -2.869   4.333  0.00  0.00     0.091 A 
ATOM      4  C   UNL     1      -5.885  -2.248   5.389  0.00  0.00     0.124 A 
ATOM      5  C   UNL     1      -5.417  -1.037   5.892  0.00  0.00     0.091 A 
ATOM      6  C   UNL     1      -4.275  -0.449   5.345  0.00  0.00     0.127 A 
ATOM      7  C   UNL     1      -3.591  -1.069   4.291  0.00  0.00     0.039 A 
ATOM      8  C   UNL     1      -2.358  -0.421   3.720  0.00  0.00     0.091 C 
ATOM      9  C   UNL     1      -1.583  -1.397   2.838  0.00  0.00     0.226 C 
ATOM     10  C   UNL     1      -2.567  -2.184   1.961  0.00  0.00     0.245 C 
ENDROOT
BRANCH   9  11
ATOM     11  O   UNL     1      -0.844  -2.294   3.669  0.00  0.00    -0.453 OA
BRANCH  11  12
ATOM     12  C   UNL     1       0.495  -2.071   3.732  0.00  0.00     0.340 C 
ATOM     13  O   UNL     1       1.039  -1.013   4.006  0.00  0.00    -0.245 OA
BRANCH  12  14
ATOM     14  C   UNL     1       1.243  -3.314   3.415  0.00  0.00     0.066 A 
ATOM     15  C   UNL     1       0.536  -4.458   3.102  0.00  0.00     0.064 A 
ATOM     16  C   UNL     1       1.240  -5.625   2.805  0.00  0.00     0.163 A 
ATOM     17  C   UNL     1       2.635  -5.623   2.826  0.00  0.00     0.201 A 
ATOM     18  C   UNL     1       3.326  -4.454   3.144  0.00  0.00     0.163 A 
ATOM     19  C   UNL     1       2.623  -3.288   3.443  0.00  0.00     0.064 A 
BRANCH  16  20
ATOM     20  O   UNL     1       0.553  -6.760   2.493  0.00  0.00    -0.503 OA
ATOM     21  H   UNL     1       1.000  -7.208   1.754  0.00  0.00     0.292 HD
ENDBRANCH  16  20
BRANCH  17  22
ATOM     22  O   UNL     1       3.322  -6.764   2.534  0.00  0.00    -0.501 OA
ATOM     23  H   UNL     1       4.064  -6.843   3.159  0.00  0.00     0.292 HD
ENDBRANCH  17  22
BRANCH  18  24
ATOM     24  O   UNL     1       4.688  -4.440   3.169  0.00  0.00    -0.503 OA
ATOM     25  H   UNL     1       5.016  -4.065   2.333  0.00  0.00     0.292 HD
ENDBRANCH  18  24
ENDBRANCH  12  14
ENDBRANCH  11  12
ENDBRANCH   9  11
BRANCH  10  26
ATOM     26  C   UNL     1      -1.846  -3.093   0.983  0.00  0.00     0.003 A 
ATOM     27  C   UNL     1      -2.176  -4.446   0.919  0.00  0.00     0.056 A 
ATOM     28  C   UNL     1      -1.513  -5.282   0.020  0.00  0.00     0.162 A 
ATOM     29  C   UNL     1      -0.521  -4.764  -0.813  0.00  0.00     0.201 A 
ATOM     30  C   UNL     1      -0.192  -3.410  -0.747  0.00  0.00     0.162 A 
ATOM     31  C   UNL     1      -0.855  -2.574   0.151  0.00  0.00     0.056 A 
BRANCH  28  32
ATOM     32  O   UNL     1      -1.844  -6.602  -0.035  0.00  0.00    -0.503 OA
ATOM     33  H   UNL     1      -1.761  -6.911  -0.953  0.00  0.00     0.292 HD
ENDBRANCH  28  32
BRANCH  29  34
ATOM     34  O   UNL     1       0.125  -5.581  -1.691  0.00  0.00    -0.501 OA
ATOM     35  H   UNL     1       0.464  -5.037  -2.425  0.00  0.00     0.292 HD
ENDBRANCH  29  34
BRANCH  30  36
ATOM     36  O   UNL     1       0.776  -2.892  -1.554  0.00  0.00    -0.503 OA
ATOM     37  H   UNL     1       0.938  -3.508  -2.290  0.00  0.00     0.292 HD
ENDBRANCH  30  36
ENDBRANCH  10  26
BRANCH   6  38
ATOM     38  O   UNL     1      -3.842   0.738   5.860  0.00  0.00    -0.506 OA
ATOM     39  H   UNL     1      -3.251   1.168   5.218  0.00  0.00     0.292 HD
ENDBRANCH   6  38
BRANCH   4  40
ATOM     40  O   UNL     1      -6.995  -2.825   5.926  0.00  0.00    -0.507 OA
ATOM     41  H   UNL     1      -7.742  -2.703   5.315  0.00  0.00     0.292 HD
ENDBRANCH   4  40
TORSDOF 12
ENDMDL
MODEL 3
REMARK VINA RESULT:      -6.1      2.343      4.685
REMARK  12 active torsions:
REMARK  status: ('A' for Active; 'I' for Inactive)
REMARK    1  A    between atoms: C_4  and  O_25 
REMARK    2  A    between atoms: C_6  and  O_23 
REMARK    3  A    between atoms: C_9  and  O_27 
REMARK    4  A    between atoms: C_10  and  C_11 
REMARK    5  A    between atoms: C_13  and  O_21 
REMARK    6  A    between atoms: C_14  and  O_19 
REMARK    7  A    between atoms: C_15  and  O_17 
REMARK    8  A    between atoms: O_27  and  C_28 
REMARK    9  A    between atoms: C_28  and  C_30 
REMARK   10  A    between atoms: C_32  and  O_40 
REMARK   11  A    between atoms: C_33  and  O_38 
REMARK   12  A    between atoms: C_34  and  O_36 
ROOT
ATOM      1  O   UNL     1      -0.962  -0.995   1.943  0.00  0.00    -0.480 OA
ATOM      2  C   UNL     1      -1.954  -1.171   2.873  0.00  0.00     0.132 A 
ATOM      3  C   UNL     1      -3.051  -0.313   2.772  0.00  0.00     0.091 A 
ATOM      4  C   UNL     1      -4.110  -0.424   3.673  0.00  0.00     0.124 A 
ATOM      5  C   UNL     1      -4.076  -1.395   4.670  0.00  0.00     0.091 A 
ATOM      6  C   UNL     1      -2.987  -2.263   4.763  0.00  0.00     0.127 A 
ATOM      7  C   UNL     1      -1.922  -2.168   3.857  0.00  0.00     0.039 A 
ATOM      8  C   UNL     1      -0.761  -3.118   3.970  0.00  0.00     0.091 C 
ATOM      9  C   UNL     1       0.106  -3.078   2.713  0.00  0.00     0.226 C 
ATOM     10  C   UNL     1       0.290  -1.622   2.266  0.00  0.00     0.245 C 
ENDROOT
BRANCH   9  11
ATOM     11  O   UNL     1      -0.532  -3.830   1.679  0.00  0.00    -0.453 OA
BRANCH  11  12
ATOM     12  C   UNL     1      -0.136  -5.125   1.562  0.00  0.00     0.340 C 
ATOM     13  O   UNL     1       0.378  -5.805   2.435  0.00  0.00    -0.245 OA
BRANCH  12  14
ATOM     14  C   UNL     1      -0.413  -5.629   0.193  0.00  0.00     0.066 A 
ATOM     15  C   UNL     1      -1.166  -4.853  -0.665  0.00  0.00     0.064 A 
ATOM     16  C   UNL     1      -1.426  -5.328  -1.951  0.00  0.00     0.163 A 
ATOM     17  C   UNL     1      -0.926  -6.567  -2.352  0.00  0.00     0.201 A 
ATOM     18  C   UNL     1      -0.166  -7.332  -1.467  0.00  0.00     0.163 A 
ATOM     19  C   UNL     1       0.092  -6.858  -0.180  0.00  0.00     0.064 A 
BRANCH  16  20
ATOM     20  O   UNL     1      -2.167  -4.570  -2.808  0.00  0.00    -0.503 OA
ATOM     21  H   UNL     1      -1.611  -3.853  -3.158  0.00  0.00     0.292 HD
ENDBRANCH  16  20
BRANCH  17  22
ATOM     22  O   UNL     1      -1.179  -7.030  -3.609  0.00  0.00    -0.501 OA
ATOM     23  H   UNL     1      -1.983  -7.578  -3.578  0.00  0.00     0.292 HD
ENDBRANCH  17  22
BRANCH  18  24
ATOM     24  O   UNL     1       0.327  -8.544  -1.846  0.00  0.00    -0.503 OA
ATOM     25  H   UNL     1       1.298  -8.496  -1.875  0.00  0.00     0.292 HD
ENDBRANCH  18  24
ENDBRANCH  12  14
ENDBRANCH  11  12
ENDBRANCH   9  11
BRANCH  10  26
ATOM     26  C   UNL     1       1.234  -1.510   1.083  0.00  0.00     0.003 A 
ATOM     27  C   UNL     1       2.559  -1.925   1.210  0.00  0.00     0.056 A 
ATOM     28  C   UNL     1       3.427  -1.822   0.124  0.00  0.00     0.162 A 
ATOM     29  C   UNL     1       2.970  -1.304  -1.089  0.00  0.00     0.201 A 
ATOM     30  C   UNL     1       1.644  -0.888  -1.213  0.00  0.00     0.162 A 
ATOM     31  C   UNL     1       0.776  -0.991  -0.127  0.00  0.00     0.056 A 
BRANCH  28  32
ATOM     32  O   UNL     1       4.720  -2.232   0.257  0.00  0.00    -0.503 OA
ATOM     33  H   UNL     1       5.204  -2.026  -0.560  0.00  0.00     0.292 HD
ENDBRANCH  28  32
BRANCH  29  34
ATOM     34  O   UNL     1       3.819  -1.204  -2.150  0.00  0.00    -0.501 OA
ATOM     35  H   UNL     1       4.728  -1.123  -1.811  0.00  0.00     0.292 HD
ENDBRANCH  29  34
BRANCH  30  36
ATOM     36  O   UNL     1       1.185  -0.380  -2.391  0.00  0.00    -0.503 OA
ATOM     37  H   UNL     1       1.179   0.592  -2.336  0.00  0.00     0.292 HD
ENDBRANCH  30  36
ENDBRANCH  10  26
BRANCH   6  38
ATOM     38  O   UNL     1      -2.983  -3.203   5.752  0.00  0.00    -0.506 OA
ATOM     39  H   UNL     1      -3.879  -3.571   5.846  0.00  0.00     0.292 HD
ENDBRANCH   6  38
BRANCH   4  40
ATOM     40  O   UNL     1      -5.174   0.419   3.578  0.00  0.00    -0.507 OA
ATOM     41  H   UNL     1      -5.992  -0.087   3.726  0.00  0.00     0.292 HD
ENDBRANCH   4  40
TORSDOF 12
ENDMDL
MODEL 4
REMARK VINA RESULT:      -6.1      2.310      4.590
REMARK  12 active torsions:
REMARK  status: ('A' for Active; 'I' for Inactive)
REMARK    1  A    between atoms: C_4  and  O_25 
REMARK    2  A    between atoms: C_6  and  O_23 
REMARK    3  A    between atoms: C_9  and  O_27 
REMARK    4  A    between atoms: C_10  and  C_11 
REMARK    5  A    between atoms: C_13  and  O_21 
REMARK    6  A    between atoms: C_14  and  O_19 
REMARK    7  A    between atoms: C_15  and  O_17 
REMARK    8  A    between atoms: O_27  and  C_28 
REMARK    9  A    between atoms: C_28  and  C_30 
REMARK   10  A    between atoms: C_32  and  O_40 
REMARK   11  A    between atoms: C_33  and  O_38 
REMARK   12  A    between atoms: C_34  and  O_36 
ROOT
ATOM      1  O   UNL     1      -1.123  -1.058   1.966  0.00  0.00    -0.480 OA
ATOM      2  C   UNL     1      -2.128  -1.233   2.882  0.00  0.00     0.132 A 
ATOM      3  C   UNL     1      -3.248  -0.413   2.731  0.00  0.00     0.091 A 
ATOM      4  C   UNL     1      -4.321  -0.526   3.615  0.00  0.00     0.124 A 
ATOM      5  C   UNL     1      -4.279  -1.462   4.645  0.00  0.00     0.091 A 
ATOM      6  C   UNL     1      -3.166  -2.293   4.787  0.00  0.00     0.127 A 
ATOM      7  C   UNL     1      -2.086  -2.195   3.899  0.00  0.00     0.039 A 
ATOM      8  C   UNL     1      -0.900  -3.106   4.067  0.00  0.00     0.091 C 
ATOM      9  C   UNL     1      -0.010  -3.081   2.826  0.00  0.00     0.226 C 
ATOM     10  C   UNL     1       0.140  -1.635   2.334  0.00  0.00     0.245 C 
ENDROOT
BRANCH   9  11
ATOM     11  O   UNL     1      -0.604  -3.886   1.806  0.00  0.00    -0.453 OA
BRANCH  11  12
ATOM     12  C   UNL     1      -0.025  -5.098   1.600  0.00  0.00     0.340 C 
ATOM     13  O   UNL     1       0.660  -5.717   2.398  0.00  0.00    -0.245 OA
BRANCH  12  14
ATOM     14  C   UNL     1      -0.337  -5.595   0.236  0.00  0.00     0.066 A 
ATOM     15  C   UNL     1       0.120  -6.843  -0.140  0.00  0.00     0.064 A 
ATOM     16  C   UNL     1      -0.172  -7.310  -1.421  0.00  0.00     0.163 A 
ATOM     17  C   UNL     1      -0.917  -6.521  -2.299  0.00  0.00     0.201 A 
ATOM     18  C   UNL     1      -1.368  -5.264  -1.895  0.00  0.00     0.163 A 
ATOM     19  C   UNL     1      -1.074  -4.796  -0.614  0.00  0.00     0.064 A 
BRANCH  16  20
ATOM     20  O   UNL     1       0.272  -8.540  -1.804  0.00  0.00    -0.503 OA
ATOM     21  H   UNL     1       0.128  -9.170  -1.076  0.00  0.00     0.292 HD
ENDBRANCH  16  20
BRANCH  17  22
ATOM     22  O   UNL     1      -1.204  -6.978  -3.551  0.00  0.00    -0.501 OA
ATOM     23  H   UNL     1      -0.595  -7.709  -3.758  0.00  0.00     0.292 HD
ENDBRANCH  17  22
BRANCH  18  24
ATOM     24  O   UNL     1      -2.096  -4.484  -2.742  0.00  0.00    -0.503 OA
ATOM     25  H   UNL     1      -2.280  -3.632  -2.310  0.00  0.00     0.292 HD
ENDBRANCH  18  24
ENDBRANCH  12  14
ENDBRANCH  11  12
ENDBRANCH   9  11
BRANCH  10  26
ATOM     26  C   UNL     1       1.104  -1.534   1.167  0.00  0.00     0.003 A 
ATOM     27  C   UNL     1       2.427  -1.947   1.320  0.00  0.00     0.056 A 
ATOM     28  C   UNL     1       3.314  -1.854   0.248  0.00  0.00     0.162 A 
ATOM     29  C   UNL     1       2.877  -1.347  -0.977  0.00  0.00     0.201 A 
ATOM     30  C   UNL     1       1.553  -0.934  -1.128  0.00  0.00     0.162 A 
ATOM     31  C   UNL     1       0.666  -1.027  -0.056  0.00  0.00     0.056 A 
BRANCH  28  32
ATOM     32  O   UNL     1       4.604  -2.262   0.407  0.00  0.00    -0.503 OA
ATOM     33  H   UNL     1       5.131  -1.519   0.747  0.00  0.00     0.292 HD
ENDBRANCH  28  32
BRANCH  29  34
ATOM     34  O   UNL     1       3.744  -1.258  -2.025  0.00  0.00    -0.501 OA
ATOM     35  H   UNL     1       4.202  -0.400  -1.972  0.00  0.00     0.292 HD
ENDBRANCH  29  34
BRANCH  30  36
ATOM     36  O   UNL     1       1.114  -0.436  -2.318  0.00  0.00    -0.503 OA
ATOM     37  H   UNL     1       1.107   0.536  -2.272  0.00  0.00     0.292 HD
ENDBRANCH  30  36
ENDBRANCH  10  26
BRANCH   6  38
ATOM     38  O   UNL     1      -3.155  -3.199   5.808  0.00  0.00    -0.506 OA
ATOM     39  H   UNL     1      -2.642  -2.837   6.550  0.00  0.00     0.292 HD
ENDBRANCH   6  38
BRANCH   4  40
ATOM     40  O   UNL     1      -5.407   0.281   3.471  0.00  0.00    -0.507 OA
ATOM     41  H   UNL     1      -6.213  -0.244   3.620  0.00  0.00     0.292 HD
ENDBRANCH   4  40
TORSDOF 12
ENDMDL
MODEL 5
REMARK VINA RESULT:      -6.1      1.094      2.307
REMARK  12 active torsions:
REMARK  status: ('A' for Active; 'I' for Inactive)
REMARK    1  A    between atoms: C_4  and  O_25 
REMARK    2  A    between atoms: C_6  and  O_23 
REMARK    3  A    between atoms: C_9  and  O_27 
REMARK    4  A    between atoms: C_10  and  C_11 
REMARK    5  A    between atoms: C_13  and  O_21 
REMARK    6  A    between atoms: C_14  and  O_19 
REMARK    7  A    between atoms: C_15  and  O_17 
REMARK    8  A    between atoms: O_27  and  C_28 
REMARK    9  A    between atoms: C_28  and  C_30 
REMARK   10  A    between atoms: C_32  and  O_40 
REMARK   11  A    between atoms: C_33  and  O_38 
REMARK   12  A    between atoms: C_34  and  O_36 
ROOT
ATOM      1  O   UNL     1      -3.700  -1.930   2.264  0.00  0.00    -0.480 OA
ATOM      2  C   UNL     1      -4.381  -1.197   3.201  0.00  0.00     0.132 A 
ATOM      3  C   UNL     1      -5.761  -1.404   3.260  0.00  0.00     0.091 A 
ATOM      4  C   UNL     1      -6.533  -0.705   4.187  0.00  0.00     0.124 A 
ATOM      5  C   UNL     1      -5.927   0.195   5.059  0.00  0.00     0.091 A 
ATOM      6  C   UNL     1      -4.547   0.392   5.011  0.00  0.00     0.127 A 
ATOM      7  C   UNL     1      -3.759  -0.312   4.091  0.00  0.00     0.039 A 
ATOM      8  C   UNL     1      -2.271  -0.091   4.061  0.00  0.00     0.091 C 
ATOM      9  C   UNL     1      -1.570  -1.178   3.249  0.00  0.00     0.226 C 
ATOM     10  C   UNL     1      -2.374  -1.460   1.972  0.00  0.00     0.245 C 
ENDROOT
BRANCH   9  11
ATOM     11  O   UNL     1      -1.474  -2.364   4.038  0.00  0.00    -0.453 OA
BRANCH  11  12
ATOM     12  C   UNL     1      -0.325  -2.508   4.749  0.00  0.00     0.340 C 
ATOM     13  O   UNL     1      -0.064  -1.974   5.815  0.00  0.00    -0.245 OA
BRANCH  12  14
ATOM     14  C   UNL     1       0.609  -3.424   4.046  0.00  0.00     0.066 A 
ATOM     15  C   UNL     1       0.114  -4.590   3.498  0.00  0.00     0.064 A 
ATOM     16  C   UNL     1       0.992  -5.450   2.838  0.00  0.00     0.163 A 
ATOM     17  C   UNL     1       2.345  -5.126   2.740  0.00  0.00     0.201 A 
ATOM     18  C   UNL     1       2.821  -3.941   3.302  0.00  0.00     0.163 A 
ATOM     19  C   UNL     1       1.943  -3.081   3.963  0.00  0.00     0.064 A 
BRANCH  16  20
ATOM     20  O   UNL     1       0.515  -6.603   2.291  0.00  0.00    -0.503 OA
ATOM     21  H   UNL     1       0.899  -7.362   2.764  0.00  0.00     0.292 HD
ENDBRANCH  16  20
BRANCH  17  22
ATOM     22  O   UNL     1       3.203  -5.966   2.094  0.00  0.00    -0.501 OA
ATOM     23  H   UNL     1       3.763  -6.404   2.759  0.00  0.00     0.292 HD
ENDBRANCH  17  22
BRANCH  18  24
ATOM     24  O   UNL     1       4.140  -3.613   3.213  0.00  0.00    -0.503 OA
ATOM     25  H   UNL     1       4.675  -4.365   3.520  0.00  0.00     0.292 HD
ENDBRANCH  18  24
ENDBRANCH  12  14
ENDBRANCH  11  12
ENDBRANCH   9  11
BRANCH  10  26
ATOM     26  C   UNL     1      -1.668  -2.454   1.069  0.00  0.00     0.003 A 
ATOM     27  C   UNL     1      -0.510  -2.078   0.392  0.00  0.00     0.056 A 
ATOM     28  C   UNL     1       0.139  -2.992  -0.438  0.00  0.00     0.162 A 
ATOM     29  C   UNL     1      -0.372  -4.281  -0.591  0.00  0.00     0.201 A 
ATOM     30  C   UNL     1      -1.533  -4.655   0.087  0.00  0.00     0.162 A 
ATOM     31  C   UNL     1      -2.181  -3.742   0.918  0.00  0.00     0.056 A 
BRANCH  28  32
ATOM     32  O   UNL     1       1.271  -2.614  -1.095  0.00  0.00    -0.503 OA
ATOM     33  H   UNL     1       1.056  -2.447  -2.028  0.00  0.00     0.292 HD
ENDBRANCH  28  32
BRANCH  29  34
ATOM     34  O   UNL     1       0.262  -5.174  -1.402  0.00  0.00    -0.501 OA
ATOM     35  H   UNL     1      -0.365  -5.882  -1.629  0.00  0.00     0.292 HD
ENDBRANCH  29  34
BRANCH  30  36
ATOM     36  O   UNL     1      -2.043  -5.911  -0.054  0.00  0.00    -0.503 OA
ATOM     37  H   UNL     1      -1.668  -6.317  -0.854  0.00  0.00     0.292 HD
ENDBRANCH  30  36
ENDBRANCH  10  26
BRANCH   6  38
ATOM     38  O   UNL     1      -3.984   1.282   5.879  0.00  0.00    -0.506 OA
ATOM     39  H   UNL     1      -3.016   1.256   5.781  0.00  0.00     0.292 HD
ENDBRANCH   6  38
BRANCH   4  40
ATOM     40  O   UNL     1      -7.879  -0.902   4.237  0.00  0.00    -0.507 OA
ATOM     41  H   UNL     1      -8.287  -0.172   4.734  0.00  0.00     0.292 HD
ENDBRANCH   4  40
TORSDOF 12
ENDMDL
MODEL 6
REMARK VINA RESULT:      -6.0      2.861      5.090
REMARK  12 active torsions:
REMARK  status: ('A' for Active; 'I' for Inactive)
REMARK    1  A    between atoms: C_4  and  O_25 
REMARK    2  A    between atoms: C_6  and  O_23 
REMARK    3  A    between atoms: C_9  and  O_27 
REMARK    4  A    between atoms: C_10  and  C_11 
REMARK    5  A    between atoms: C_13  and  O_21 
REMARK    6  A    between atoms: C_14  and  O_19 
REMARK    7  A    between atoms: C_15  and  O_17 
REMARK    8  A    between atoms: O_27  and  C_28 
REMARK    9  A    between atoms: C_28  and  C_30 
REMARK   10  A    between atoms: C_32  and  O_40 
REMARK   11  A    between atoms: C_33  and  O_38 
REMARK   12  A    between atoms: C_34  and  O_36 
ROOT
ATOM      1  O   UNL     1      -0.615  -2.883   5.016  0.00  0.00    -0.480 OA
ATOM      2  C   UNL     1      -0.825  -3.610   6.158  0.00  0.00     0.132 A 
ATOM      3  C   UNL     1      -1.942  -3.254   6.918  0.00  0.00     0.091 A 
ATOM      4  C   UNL     1      -2.236  -3.944   8.093  0.00  0.00     0.124 A 
ATOM      5  C   UNL     1      -1.420  -4.993   8.508  0.00  0.00     0.091 A 
ATOM      6  C   UNL     1      -0.312  -5.359   7.742  0.00  0.00     0.127 A 
ATOM      7  C   UNL     1      -0.012  -4.680   6.553  0.00  0.00     0.039 A 
ATOM      8  C   UNL     1       1.183  -5.096   5.739  0.00  0.00     0.091 C 
ATOM      9  C   UNL     1       1.138  -4.479   4.343  0.00  0.00     0.226 C 
ATOM     10  C   UNL     1       0.698  -3.012   4.447  0.00  0.00     0.245 C 
ENDROOT
BRANCH   9  11
ATOM     11  O   UNL     1       0.214  -5.210   3.536  0.00  0.00    -0.453 OA
BRANCH  11  12
ATOM     12  C   UNL     1       0.754  -5.894   2.494  0.00  0.00     0.340 C 
ATOM     13  O   UNL     1       1.680  -6.687   2.552  0.00  0.00    -0.245 OA
BRANCH  12  14
ATOM     14  C   UNL     1       0.058  -5.547   1.229  0.00  0.00     0.066 A 
ATOM     15  C   UNL     1       0.355  -6.261   0.085  0.00  0.00     0.064 A 
ATOM     16  C   UNL     1      -0.299  -5.935  -1.103  0.00  0.00     0.163 A 
ATOM     17  C   UNL     1      -1.237  -4.902  -1.122  0.00  0.00     0.201 A 
ATOM     18  C   UNL     1      -1.521  -4.196   0.047  0.00  0.00     0.163 A 
ATOM     19  C   UNL     1      -0.865  -4.521   1.235  0.00  0.00     0.064 A 
BRANCH  16  20
ATOM     20  O   UNL     1      -0.015  -6.633  -2.238  0.00  0.00    -0.503 OA
ATOM     21  H   UNL     1       0.705  -6.185  -2.715  0.00  0.00     0.292 HD
ENDBRANCH  16  20
BRANCH  17  22
ATOM     22  O   UNL     1      -1.877  -4.584  -2.283  0.00  0.00    -0.501 OA
ATOM     23  H   UNL     1      -1.826  -3.619  -2.407  0.00  0.00     0.292 HD
ENDBRANCH  17  22
BRANCH  18  24
ATOM     24  O   UNL     1      -2.434  -3.185   0.041  0.00  0.00    -0.503 OA
ATOM     25  H   UNL     1      -2.802  -3.085   0.936  0.00  0.00     0.292 HD
ENDBRANCH  18  24
ENDBRANCH  12  14
ENDBRANCH  11  12
ENDBRANCH   9  11
BRANCH  10  26
ATOM     26  C   UNL     1       0.741  -2.313   3.101  0.00  0.00     0.003 A 
ATOM     27  C   UNL     1      -0.370  -1.604   2.650  0.00  0.00     0.056 A 
ATOM     28  C   UNL     1      -0.332  -0.963   1.412  0.00  0.00     0.162 A 
ATOM     29  C   UNL     1       0.819  -1.032   0.626  0.00  0.00     0.201 A 
ATOM     30  C   UNL     1       1.931  -1.743   1.079  0.00  0.00     0.162 A 
ATOM     31  C   UNL     1       1.892  -2.384   2.317  0.00  0.00     0.056 A 
BRANCH  28  32
ATOM     32  O   UNL     1      -1.423  -0.271   0.981  0.00  0.00    -0.503 OA
ATOM     33  H   UNL     1      -2.225  -0.777   1.198  0.00  0.00     0.292 HD
ENDBRANCH  28  32
BRANCH  29  34
ATOM     34  O   UNL     1       0.857  -0.404  -0.582  0.00  0.00    -0.501 OA
ATOM     35  H   UNL     1       1.189   0.502  -0.448  0.00  0.00     0.292 HD
ENDBRANCH  29  34
BRANCH  30  36
ATOM     36  O   UNL     1       3.061  -1.819   0.322  0.00  0.00    -0.503 OA
ATOM     37  H   UNL     1       3.102  -2.695  -0.099  0.00  0.00     0.292 HD
ENDBRANCH  30  36
ENDBRANCH  10  26
BRANCH   6  38
ATOM     38  O   UNL     1       0.469  -6.391   8.176  0.00  0.00    -0.506 OA
ATOM     39  H   UNL     1       0.827  -6.866   7.406  0.00  0.00     0.292 HD
ENDBRANCH   6  38
BRANCH   4  40
ATOM     40  O   UNL     1      -3.320  -3.589   8.836  0.00  0.00    -0.507 OA
ATOM     41  H   UNL     1      -3.823  -2.909   8.357  0.00  0.00     0.292 HD
ENDBRANCH   4  40
TORSDOF 12
ENDMDL
MODEL 7
REMARK VINA RESULT:      -6.0      2.859      5.157
REMARK  12 active torsions:
REMARK  status: ('A' for Active; 'I' for Inactive)
REMARK    1  A    between atoms: C_4  and  O_25 
REMARK    2  A    between atoms: C_6  and  O_23 
REMARK    3  A    between atoms: C_9  and  O_27 
REMARK    4  A    between atoms: C_10  and  C_11 
REMARK    5  A    between atoms: C_13  and  O_21 
REMARK    6  A    between atoms: C_14  and  O_19 
REMARK    7  A    between atoms: C_15  and  O_17 
REMARK    8  A    between atoms: O_27  and  C_28 
REMARK    9  A    between atoms: C_28  and  C_30 
REMARK   10  A    between atoms: C_32  and  O_40 
REMARK   11  A    between atoms: C_33  and  O_38 
REMARK   12  A    between atoms: C_34  and  O_36 
ROOT
ATOM      1  O   UNL     1      -0.624  -2.897   5.010  0.00  0.00    -0.480 OA
ATOM      2  C   UNL     1      -0.834  -3.627   6.151  0.00  0.00     0.132 A 
ATOM      3  C   UNL     1      -1.953  -3.275   6.910  0.00  0.00     0.091 A 
ATOM      4  C   UNL     1      -2.247  -3.967   8.084  0.00  0.00     0.124 A 
ATOM      5  C   UNL     1      -1.428  -5.015   8.497  0.00  0.00     0.091 A 
ATOM      6  C   UNL     1      -0.318  -5.377   7.733  0.00  0.00     0.127 A 
ATOM      7  C   UNL     1      -0.018  -4.696   6.546  0.00  0.00     0.039 A 
ATOM      8  C   UNL     1       1.179  -5.107   5.732  0.00  0.00     0.091 C 
ATOM      9  C   UNL     1       1.134  -4.488   4.337  0.00  0.00     0.226 C 
ATOM     10  C   UNL     1       0.690  -3.022   4.444  0.00  0.00     0.245 C 
ENDROOT
BRANCH   9  11
ATOM     11  O   UNL     1       0.213  -5.220   3.528  0.00  0.00    -0.453 OA
BRANCH  11  12
ATOM     12  C   UNL     1       0.756  -5.899   2.484  0.00  0.00     0.340 C 
ATOM     13  O   UNL     1       1.686  -6.688   2.540  0.00  0.00    -0.245 OA
BRANCH  12  14
ATOM     14  C   UNL     1       0.059  -5.551   1.220  0.00  0.00     0.066 A 
ATOM     15  C   UNL     1      -0.867  -4.527   1.228  0.00  0.00     0.064 A 
ATOM     16  C   UNL     1      -1.522  -4.201   0.041  0.00  0.00     0.163 A 
ATOM     17  C   UNL     1      -1.237  -4.904  -1.130  0.00  0.00     0.201 A 
ATOM     18  C   UNL     1      -0.296  -5.934  -1.113  0.00  0.00     0.163 A 
ATOM     19  C   UNL     1       0.358  -6.261   0.075  0.00  0.00     0.064 A 
BRANCH  16  20
ATOM     20  O   UNL     1      -2.437  -3.191   0.036  0.00  0.00    -0.503 OA
ATOM     21  H   UNL     1      -3.316  -3.558   0.235  0.00  0.00     0.292 HD
ENDBRANCH  16  20
BRANCH  17  22
ATOM     22  O   UNL     1      -1.876  -4.584  -2.291  0.00  0.00    -0.501 OA
ATOM     23  H   UNL     1      -1.805  -5.341  -2.899  0.00  0.00     0.292 HD
ENDBRANCH  17  22
BRANCH  18  24
ATOM     24  O   UNL     1      -0.009  -6.628  -2.249  0.00  0.00    -0.503 OA
ATOM     25  H   UNL     1      -0.754  -6.545  -2.868  0.00  0.00     0.292 HD
ENDBRANCH  18  24
ENDBRANCH  12  14
ENDBRANCH  11  12
ENDBRANCH   9  11
BRANCH  10  26
ATOM     26  C   UNL     1       0.734  -2.321   3.099  0.00  0.00     0.003 A 
ATOM     27  C   UNL     1       1.885  -2.389   2.316  0.00  0.00     0.056 A 
ATOM     28  C   UNL     1       1.925  -1.744   1.080  0.00  0.00     0.162 A 
ATOM     29  C   UNL     1       0.814  -1.032   0.628  0.00  0.00     0.201 A 
ATOM     30  C   UNL     1      -0.338  -0.965   1.413  0.00  0.00     0.162 A 
ATOM     31  C   UNL     1      -0.378  -1.610   2.649  0.00  0.00     0.056 A 
BRANCH  28  32
ATOM     32  O   UNL     1       3.055  -1.817   0.322  0.00  0.00    -0.503 OA
ATOM     33  H   UNL     1       3.062  -1.077  -0.308  0.00  0.00     0.292 HD
ENDBRANCH  28  32
BRANCH  29  34
ATOM     34  O   UNL     1       0.853  -0.403  -0.581  0.00  0.00    -0.501 OA
ATOM     35  H   UNL     1      -0.031  -0.037  -0.765  0.00  0.00     0.292 HD
ENDBRANCH  29  34
BRANCH  30  36
ATOM     36  O   UNL     1      -1.430  -0.272   0.984  0.00  0.00    -0.503 OA
ATOM     37  H   UNL     1      -1.984  -0.859   0.440  0.00  0.00     0.292 HD
ENDBRANCH  30  36
ENDBRANCH  10  26
BRANCH   6  38
ATOM     38  O   UNL     1       0.465  -6.407   8.166  0.00  0.00    -0.506 OA
ATOM     39  H   UNL     1       1.384  -6.100   8.242  0.00  0.00     0.292 HD
ENDBRANCH   6  38
BRANCH   4  40
ATOM     40  O   UNL     1      -3.332  -3.617   8.826  0.00  0.00    -0.507 OA
ATOM     41  H   UNL     1      -3.167  -2.752   9.239  0.00  0.00     0.292 HD
ENDBRANCH   4  40
TORSDOF 12
ENDMDL
MODEL 8
REMARK VINA RESULT:      -6.0      2.863      5.094
REMARK  12 active torsions:
REMARK  status: ('A' for Active; 'I' for Inactive)
REMARK    1  A    between atoms: C_4  and  O_25 
REMARK    2  A    between atoms: C_6  and  O_23 
REMARK    3  A    between atoms: C_9  and  O_27 
REMARK    4  A    between atoms: C_10  and  C_11 
REMARK    5  A    between atoms: C_13  and  O_21 
REMARK    6  A    between atoms: C_14  and  O_19 
REMARK    7  A    between atoms: C_15  and  O_17 
REMARK    8  A    between atoms: O_27  and  C_28 
REMARK    9  A    between atoms: C_28  and  C_30 
REMARK   10  A    between atoms: C_32  and  O_40 
REMARK   11  A    between atoms: C_33  and  O_38 
REMARK   12  A    between atoms: C_34  and  O_36 
ROOT
ATOM      1  O   UNL     1      -0.611  -2.879   5.023  0.00  0.00    -0.480 OA
ATOM      2  C   UNL     1      -0.821  -3.606   6.165  0.00  0.00     0.132 A 
ATOM      3  C   UNL     1      -1.938  -3.249   6.926  0.00  0.00     0.091 A 
ATOM      4  C   UNL     1      -2.232  -3.938   8.101  0.00  0.00     0.124 A 
ATOM      5  C   UNL     1      -1.416  -4.989   8.515  0.00  0.00     0.091 A 
ATOM      6  C   UNL     1      -0.309  -5.356   7.749  0.00  0.00     0.127 A 
ATOM      7  C   UNL     1      -0.009  -4.677   6.560  0.00  0.00     0.039 A 
ATOM      8  C   UNL     1       1.185  -5.095   5.745  0.00  0.00     0.091 C 
ATOM      9  C   UNL     1       1.140  -4.477   4.349  0.00  0.00     0.226 C 
ATOM     10  C   UNL     1       0.702  -3.009   4.454  0.00  0.00     0.245 C 
ENDROOT
BRANCH   9  11
ATOM     11  O   UNL     1       0.214  -5.207   3.542  0.00  0.00    -0.453 OA
BRANCH  11  12
ATOM     12  C   UNL     1       0.753  -5.894   2.501  0.00  0.00     0.340 C 
ATOM     13  O   UNL     1       1.677  -6.689   2.561  0.00  0.00    -0.245 OA
BRANCH  12  14
ATOM     14  C   UNL     1       0.059  -5.546   1.235  0.00  0.00     0.066 A 
ATOM     15  C   UNL     1      -0.866  -4.520   1.241  0.00  0.00     0.064 A 
ATOM     16  C   UNL     1      -1.518  -4.194   0.052  0.00  0.00     0.163 A 
ATOM     17  C   UNL     1      -1.231  -4.900  -1.117  0.00  0.00     0.201 A 
ATOM     18  C   UNL     1      -0.293  -5.931  -1.097  0.00  0.00     0.163 A 
ATOM     19  C   UNL     1       0.358  -6.258   0.093  0.00  0.00     0.064 A 
BRANCH  16  20
ATOM     20  O   UNL     1      -2.431  -3.183   0.044  0.00  0.00    -0.503 OA
ATOM     21  H   UNL     1      -2.355  -2.681   0.874  0.00  0.00     0.292 HD
ENDBRANCH  16  20
BRANCH  17  22
ATOM     22  O   UNL     1      -1.868  -4.580  -2.279  0.00  0.00    -0.501 OA
ATOM     23  H   UNL     1      -1.798  -5.338  -2.886  0.00  0.00     0.292 HD
ENDBRANCH  17  22
BRANCH  18  24
ATOM     24  O   UNL     1      -0.004  -6.628  -2.232  0.00  0.00    -0.503 OA
ATOM     25  H   UNL     1      -0.733  -7.244  -2.419  0.00  0.00     0.292 HD
ENDBRANCH  18  24
ENDBRANCH  12  14
ENDBRANCH  11  12
ENDBRANCH   9  11
BRANCH  10  26
ATOM     26  C   UNL     1       0.745  -2.311   3.108  0.00  0.00     0.003 A 
ATOM     27  C   UNL     1      -0.367  -1.601   2.657  0.00  0.00     0.056 A 
ATOM     28  C   UNL     1      -0.328  -0.960   1.419  0.00  0.00     0.162 A 
ATOM     29  C   UNL     1       0.823  -1.029   0.633  0.00  0.00     0.201 A 
ATOM     30  C   UNL     1       1.934  -1.741   1.086  0.00  0.00     0.162 A 
ATOM     31  C   UNL     1       1.895  -2.382   2.324  0.00  0.00     0.056 A 
BRANCH  28  32
ATOM     32  O   UNL     1      -1.419  -0.268   0.988  0.00  0.00    -0.503 OA
ATOM     33  H   UNL     1      -1.376  -0.177   0.021  0.00  0.00     0.292 HD
ENDBRANCH  28  32
BRANCH  29  34
ATOM     34  O   UNL     1       0.861  -0.401  -0.576  0.00  0.00    -0.501 OA
ATOM     35  H   UNL     1       0.213  -0.828  -1.165  0.00  0.00     0.292 HD
ENDBRANCH  29  34
BRANCH  30  36
ATOM     36  O   UNL     1       3.064  -1.817   0.328  0.00  0.00    -0.503 OA
ATOM     37  H   UNL     1       2.820  -2.065  -0.581  0.00  0.00     0.292 HD
ENDBRANCH  30  36
ENDBRANCH  10  26
BRANCH   6  38
ATOM     38  O   UNL     1       0.471  -6.389   8.182  0.00  0.00    -0.506 OA
ATOM     39  H   UNL     1       0.066  -6.785   8.972  0.00  0.00     0.292 HD
ENDBRANCH   6  38
BRANCH   4  40
ATOM     40  O   UNL     1      -3.315  -3.583   8.845  0.00  0.00    -0.507 OA
ATOM     41  H   UNL     1      -3.145  -2.718   9.257  0.00  0.00     0.292 HD
ENDBRANCH   4  40
TORSDOF 12
ENDMDL
MODEL 9
REMARK VINA RESULT:      -5.9      3.535      6.929
REMARK  12 active torsions:
REMARK  status: ('A' for Active; 'I' for Inactive)
REMARK    1  A    between atoms: C_4  and  O_25 
REMARK    2  A    between atoms: C_6  and  O_23 
REMARK    3  A    between atoms: C_9  and  O_27 
REMARK    4  A    between atoms: C_10  and  C_11 
REMARK    5  A    between atoms: C_13  and  O_21 
REMARK    6  A    between atoms: C_14  and  O_19 
REMARK    7  A    between atoms: C_15  and  O_17 
REMARK    8  A    between atoms: O_27  and  C_28 
REMARK    9  A    between atoms: C_28  and  C_30 
REMARK   10  A    between atoms: C_32  and  O_40 
REMARK   11  A    between atoms: C_33  and  O_38 
REMARK   12  A    between atoms: C_34  and  O_36 
ROOT
ATOM      1  O   UNL     1       2.703  -2.740   1.987  0.00  0.00    -0.480 OA
ATOM      2  C   UNL     1       2.024  -1.681   1.442  0.00  0.00     0.132 A 
ATOM      3  C   UNL     1       2.806  -0.689   0.846  0.00  0.00     0.091 A 
ATOM      4  C   UNL     1       2.199   0.421   0.261  0.00  0.00     0.124 A 
ATOM      5  C   UNL     1       0.812   0.539   0.266  0.00  0.00     0.091 A 
ATOM      6  C   UNL     1       0.029  -0.458   0.848  0.00  0.00     0.127 A 
ATOM      7  C   UNL     1       0.627  -1.584   1.429  0.00  0.00     0.039 A 
ATOM      8  C   UNL     1      -0.237  -2.652   2.045  0.00  0.00     0.091 C 
ATOM      9  C   UNL     1       0.566  -3.924   2.307  0.00  0.00     0.226 C 
ATOM     10  C   UNL     1       1.936  -3.552   2.890  0.00  0.00     0.245 C 
ENDROOT
BRANCH   9  11
ATOM     11  O   UNL     1       0.734  -4.634   1.079  0.00  0.00    -0.453 OA
BRANCH  11  12
ATOM     12  C   UNL     1       0.266  -5.910   1.066  0.00  0.00     0.340 C 
ATOM     13  O   UNL     1       0.322  -6.709   1.987  0.00  0.00    -0.245 OA
BRANCH  12  14
ATOM     14  C   UNL     1      -0.344  -6.226  -0.251  0.00  0.00     0.066 A 
ATOM     15  C   UNL     1      -0.256  -7.516  -0.734  0.00  0.00     0.064 A 
ATOM     16  C   UNL     1      -0.829  -7.812  -1.971  0.00  0.00     0.163 A 
ATOM     17  C   UNL     1      -1.477  -6.813  -2.697  0.00  0.00     0.201 A 
ATOM     18  C   UNL     1      -1.553  -5.517  -2.187  0.00  0.00     0.163 A 
ATOM     19  C   UNL     1      -0.979  -5.220  -0.950  0.00  0.00     0.064 A 
BRANCH  16  20
ATOM     20  O   UNL     1      -0.751  -9.082  -2.458  0.00  0.00    -0.503 OA
ATOM     21  H   UNL     1       0.122  -9.213  -2.867  0.00  0.00     0.292 HD
ENDBRANCH  16  20
BRANCH  17  22
ATOM     22  O   UNL     1      -2.038  -7.103  -3.905  0.00  0.00    -0.501 OA
ATOM     23  H   UNL     1      -2.803  -6.517  -4.037  0.00  0.00     0.292 HD
ENDBRANCH  17  22
BRANCH  18  24
ATOM     24  O   UNL     1      -2.183  -4.533  -2.886  0.00  0.00    -0.503 OA
ATOM     25  H   UNL     1      -1.679  -4.349  -3.698  0.00  0.00     0.292 HD
ENDBRANCH  18  24
ENDBRANCH  12  14
ENDBRANCH  11  12
ENDBRANCH   9  11
BRANCH  10  26
ATOM     26  C   UNL     1       2.738  -4.782   3.274  0.00  0.00     0.003 A 
ATOM     27  C   UNL     1       3.798  -5.199   2.472  0.00  0.00     0.056 A 
ATOM     28  C   UNL     1       4.534  -6.330   2.824  0.00  0.00     0.162 A 
ATOM     29  C   UNL     1       4.210  -7.043   3.979  0.00  0.00     0.201 A 
ATOM     30  C   UNL     1       3.147  -6.624   4.781  0.00  0.00     0.162 A 
ATOM     31  C   UNL     1       2.411  -5.493   4.429  0.00  0.00     0.056 A 
BRANCH  28  32
ATOM     32  O   UNL     1       5.570  -6.729   2.033  0.00  0.00    -0.503 OA
ATOM     33  H   UNL     1       6.399  -6.368   2.391  0.00  0.00     0.292 HD
ENDBRANCH  28  32
BRANCH  29  34
ATOM     34  O   UNL     1       4.930  -8.147   4.324  0.00  0.00    -0.501 OA
ATOM     35  H   UNL     1       4.347  -8.755   4.812  0.00  0.00     0.292 HD
ENDBRANCH  29  34
BRANCH  30  36
ATOM     36  O   UNL     1       2.819  -7.311   5.911  0.00  0.00    -0.503 OA
ATOM     37  H   UNL     1       1.928  -7.687   5.805  0.00  0.00     0.292 HD
ENDBRANCH  30  36
ENDBRANCH  10  26
BRANCH   6  38
ATOM     38  O   UNL     1      -1.328  -0.313   0.837  0.00  0.00    -0.506 OA
ATOM     39  H   UNL     1      -1.736  -1.087   1.260  0.00  0.00     0.292 HD
ENDBRANCH   6  38
BRANCH   4  40
ATOM     40  O   UNL     1       2.964   1.391  -0.311  0.00  0.00    -0.507 OA
ATOM     41  H   UNL     1       3.540   1.782   0.369  0.00  0.00     0.292 HD
ENDBRANCH   4  40
TORSDOF 12
ENDMDL
MODEL 10
REMARK VINA RESULT:      -5.9      2.608      6.796
REMARK  12 active torsions:
REMARK  status: ('A' for Active; 'I' for Inactive)
REMARK    1  A    between atoms: C_4  and  O_25 
REMARK    2  A    between atoms: C_6  and  O_23 
REMARK    3  A    between atoms: C_9  and  O_27 
REMARK    4  A    between atoms: C_10  and  C_11 
REMARK    5  A    between atoms: C_13  and  O_21 
REMARK    6  A    between atoms: C_14  and  O_19 
REMARK    7  A    between atoms: C_15  and  O_17 
REMARK    8  A    between atoms: O_27  and  C_28 
REMARK    9  A    between atoms: C_28  and  C_30 
REMARK   10  A    between atoms: C_32  and  O_40 
REMARK   11  A    between atoms: C_33  and  O_38 
REMARK   12  A    between atoms: C_34  and  O_36 
ROOT
ATOM      1  O   UNL     1       2.250  -6.335   2.180  0.00  0.00    -0.480 OA
ATOM      2  C   UNL     1       3.068  -6.564   3.255  0.00  0.00     0.132 A 
ATOM      3  C   UNL     1       4.257  -7.247   2.990  0.00  0.00     0.091 A 
ATOM      4  C   UNL     1       5.152  -7.519   4.024  0.00  0.00     0.124 A 
ATOM      5  C   UNL     1       4.864  -7.104   5.321  0.00  0.00     0.091 A 
ATOM      6  C   UNL     1       3.683  -6.409   5.585  0.00  0.00     0.127 A 
ATOM      7  C   UNL     1       2.781  -6.120   4.553  0.00  0.00     0.039 A 
ATOM      8  C   UNL     1       1.517  -5.363   4.858  0.00  0.00     0.091 C 
ATOM      9  C   UNL     1       0.855  -4.860   3.577  0.00  0.00     0.226 C 
ATOM     10  C   UNL     1       0.902  -5.964   2.511  0.00  0.00     0.245 C 
ENDROOT
BRANCH   9  11
ATOM     11  O   UNL     1       1.551  -3.702   3.113  0.00  0.00    -0.453 OA
BRANCH  11  12
ATOM     12  C   UNL     1       1.280  -2.547   3.775  0.00  0.00     0.340 C 
ATOM     13  O   UNL     1       1.682  -2.239   4.885  0.00  0.00    -0.245 OA
BRANCH  12  14
ATOM     14  C   UNL     1       0.403  -1.673   2.955  0.00  0.00     0.066 A 
ATOM     15  C   UNL     1      -0.866  -1.382   3.415  0.00  0.00     0.064 A 
ATOM     16  C   UNL     1      -1.690  -0.560   2.645  0.00  0.00     0.163 A 
ATOM     17  C   UNL     1      -1.227  -0.047   1.433  0.00  0.00     0.201 A 
ATOM     18  C   UNL     1       0.059  -0.355   0.991  0.00  0.00     0.163 A 
ATOM     19  C   UNL     1       0.883  -1.177   1.760  0.00  0.00     0.064 A 
BRANCH  16  20
ATOM     20  O   UNL     1      -2.944  -0.265   3.089  0.00  0.00    -0.503 OA
ATOM     21  H   UNL     1      -3.288   0.494   2.585  0.00  0.00     0.292 HD
ENDBRANCH  16  20
BRANCH  17  22
ATOM     22  O   UNL     1      -2.032   0.757   0.682  0.00  0.00    -0.501 OA
ATOM     23  H   UNL     1      -2.848   0.931   1.185  0.00  0.00     0.292 HD
ENDBRANCH  17  22
BRANCH  18  24
ATOM     24  O   UNL     1       0.523   0.140  -0.190  0.00  0.00    -0.503 OA
ATOM     25  H   UNL     1       1.410   0.513  -0.052  0.00  0.00     0.292 HD
ENDBRANCH  18  24
ENDBRANCH  12  14
ENDBRANCH  11  12
ENDBRANCH   9  11
BRANCH  10  26
ATOM     26  C   UNL     1       0.161  -5.561   1.250  0.00  0.00     0.003 A 
ATOM     27  C   UNL     1       0.385  -6.253   0.061  0.00  0.00     0.056 A 
ATOM     28  C   UNL     1      -0.296  -5.883  -1.099  0.00  0.00     0.162 A 
ATOM     29  C   UNL     1      -1.200  -4.820  -1.068  0.00  0.00     0.201 A 
ATOM     30  C   UNL     1      -1.422  -4.128   0.123  0.00  0.00     0.162 A 
ATOM     31  C   UNL     1      -0.741  -4.498   1.283  0.00  0.00     0.056 A 
BRANCH  28  32
ATOM     32  O   UNL     1      -0.071  -6.567  -2.255  0.00  0.00    -0.503 OA
ATOM     33  H   UNL     1       0.848  -6.419  -2.537  0.00  0.00     0.292 HD
ENDBRANCH  28  32
BRANCH  29  34
ATOM     34  O   UNL     1      -1.866  -4.459  -2.201  0.00  0.00    -0.501 OA
ATOM     35  H   UNL     1      -1.211  -4.281  -2.899  0.00  0.00     0.292 HD
ENDBRANCH  29  34
BRANCH  30  36
ATOM     36  O   UNL     1      -2.301  -3.088   0.166  0.00  0.00    -0.503 OA
ATOM     37  H   UNL     1      -1.808  -2.262   0.313  0.00  0.00     0.292 HD
ENDBRANCH  30  36
ENDBRANCH  10  26
BRANCH   6  38
ATOM     38  O   UNL     1       3.430  -6.017   6.868  0.00  0.00    -0.506 OA
ATOM     39  H   UNL     1       3.882  -5.173   7.039  0.00  0.00     0.292 HD
ENDBRANCH   6  38
BRANCH   4  40
ATOM     40  O   UNL     1       6.306  -8.193   3.764  0.00  0.00    -0.507 OA
ATOM     41  H   UNL     1       7.057  -7.580   3.852  0.00  0.00     0.292 HD
ENDBRANCH   4  40
TORSDOF 12
ENDMDL
