MODEL 1
REMARK VINA RESULT:      -7.1      0.000      0.000
REMARK  6 active torsions:
REMARK  status: ('A' for Active; 'I' for Inactive)
REMARK    1  A    between atoms: O_2  and  C_12 
REMARK    2  A    between atoms: O_3  and  C_14 
REMARK    3  A    between atoms: O_5  and  C_16 
REMARK    4  A    between atoms: O_6  and  C_20 
REMARK    5  A    between atoms: O_7  and  C_22 
REMARK    6  A    between atoms: C_10  and  C_11 
ROOT
HETATM    1  O   UNK     0      -1.725  -4.692   0.382  0.00  0.00    -0.306 OA
HETATM    2  O   UNK     0       1.197  -4.874   3.216  0.00  0.00    -0.284 OA
HETATM    3  C   UNK     0      -0.702  -3.758   2.374  0.00  0.00     0.084 A 
HETATM    4  C   UNK     0      -1.675  -3.751   1.376  0.00  0.00     0.096 A 
HETATM    5  C   UNK     0      -0.775  -5.702   0.378  0.00  0.00     0.123 A 
HETATM    6  C   UNK     0       0.219  -5.818   1.277  0.00  0.00     0.152 A 
HETATM    7  C   UNK     0       0.316  -4.819   2.368  0.00  0.00     0.223 A 
HETATM    8  C   UNK     0      -0.700  -2.770   3.363  0.00  0.00     0.085 A 
HETATM    9  C   UNK     0      -2.650  -2.753   1.359  0.00  0.00     0.075 A 
HETATM   10  C   UNK     0      -2.650  -1.766   2.344  0.00  0.00     0.071 A 
HETATM   11  C   UNK     0      -1.677  -1.775   3.344  0.00  0.00     0.074 A 
ENDROOT
BRANCH   5  12
HETATM   12  C   UNK     0      -0.943  -6.646  -0.742  0.00  0.00     0.004 A 
HETATM   13  C   UNK     0      -0.053  -6.622  -1.815  0.00  0.00     0.053 A 
HETATM   14  C   UNK     0      -0.212  -7.515  -2.874  0.00  0.00     0.099 A 
HETATM   15  C   UNK     0      -1.263  -8.433  -2.860  0.00  0.00     0.098 A 
HETATM   16  C   UNK     0      -2.153  -8.458  -1.786  0.00  0.00     0.040 A 
HETATM   17  C   UNK     0      -1.993  -7.565  -0.727  0.00  0.00     0.017 A 
BRANCH  14  18
HETATM   18  O   UNK     0       0.662  -7.481  -3.918  0.00  0.00    -0.358 OA
HETATM   19  H   UNK     0       0.522  -8.254  -4.489  0.00  0.00     0.217 HD
ENDBRANCH  14  18
BRANCH  15  20
HETATM   20  O   UNK     0      -1.427  -9.313  -3.887  0.00  0.00    -0.358 OA
HETATM   21  H   UNK     0      -2.253  -9.807  -3.766  0.00  0.00     0.217 HD
ENDBRANCH  15  20
ENDBRANCH   5  12
BRANCH   6  22
HETATM   22  O   UNK     0       1.168  -6.816   1.226  0.00  0.00    -0.355 OA
HETATM   23  H   UNK     0       1.907  -6.540   0.661  0.00  0.00     0.218 HD
ENDBRANCH   6  22
BRANCH   8  24
HETATM   24  O   UNK     0       0.227  -2.732   4.360  0.00  0.00    -0.360 OA
HETATM   25  H   UNK     0       0.297  -3.596   4.794  0.00  0.00     0.217 HD
ENDBRANCH   8  24
BRANCH  10  26
HETATM   26  O   UNK     0      -3.602  -0.792   2.329  0.00  0.00    -0.361 OA
HETATM   27  H   UNK     0      -3.293  -0.058   1.770  0.00  0.00     0.217 HD
ENDBRANCH  10  26
TORSDOF 6
ENDMDL
MODEL 2
REMARK VINA RESULT:      -7.0      1.460      3.363
REMARK  6 active torsions:
REMARK  status: ('A' for Active; 'I' for Inactive)
REMARK    1  A    between atoms: O_2  and  C_12 
REMARK    2  A    between atoms: O_3  and  C_14 
REMARK    3  A    between atoms: O_5  and  C_16 
REMARK    4  A    between atoms: O_6  and  C_20 
REMARK    5  A    between atoms: O_7  and  C_22 
REMARK    6  A    between atoms: C_10  and  C_11 
ROOT
HETATM    1  O   UNK     0       0.737  -6.260   1.180  0.00  0.00    -0.306 OA
HETATM    2  O   UNK     0      -1.421  -3.006   2.347  0.00  0.00    -0.284 OA
HETATM    3  C   UNK     0       0.430  -4.417   2.729  0.00  0.00     0.084 A 
HETATM    4  C   UNK     0       1.124  -5.539   2.279  0.00  0.00     0.096 A 
HETATM    5  C   UNK     0      -0.385  -5.847   0.478  0.00  0.00     0.123 A 
HETATM    6  C   UNK     0      -1.145  -4.787   0.811  0.00  0.00     0.152 A 
HETATM    7  C   UNK     0      -0.768  -3.980   1.996  0.00  0.00     0.223 A 
HETATM    8  C   UNK     0       0.871  -3.721   3.857  0.00  0.00     0.085 A 
HETATM    9  C   UNK     0       2.262  -5.974   2.959  0.00  0.00     0.075 A 
HETATM   10  C   UNK     0       2.705  -5.281   4.086  0.00  0.00     0.071 A 
HETATM   11  C   UNK     0       2.010  -4.157   4.534  0.00  0.00     0.074 A 
ENDROOT
BRANCH   5  12
HETATM   12  C   UNK     0      -0.689  -6.707  -0.679  0.00  0.00     0.004 A 
HETATM   13  C   UNK     0       0.151  -6.702  -1.792  0.00  0.00     0.053 A 
HETATM   14  C   UNK     0      -0.137  -7.517  -2.887  0.00  0.00     0.099 A 
HETATM   15  C   UNK     0      -1.266  -8.337  -2.868  0.00  0.00     0.098 A 
HETATM   16  C   UNK     0      -2.105  -8.342  -1.755  0.00  0.00     0.040 A 
HETATM   17  C   UNK     0      -1.817  -7.528  -0.660  0.00  0.00     0.017 A 
BRANCH  14  18
HETATM   18  O   UNK     0       0.689  -7.502  -3.970  0.00  0.00    -0.358 OA
HETATM   19  H   UNK     0       1.537  -7.917  -3.742  0.00  0.00     0.217 HD
ENDBRANCH  14  18
BRANCH  15  20
HETATM   20  O   UNK     0      -1.556  -9.139  -3.931  0.00  0.00    -0.358 OA
HETATM   21  H   UNK     0      -2.034  -8.630  -4.604  0.00  0.00     0.217 HD
ENDBRANCH  15  20
ENDBRANCH   5  12
BRANCH   6  22
HETATM   22  O   UNK     0      -2.275  -4.422   0.111  0.00  0.00    -0.355 OA
HETATM   23  H   UNK     0      -2.721  -3.688   0.564  0.00  0.00     0.218 HD
ENDBRANCH   6  22
BRANCH   8  24
HETATM   24  O   UNK     0       0.230  -2.619   4.338  0.00  0.00    -0.360 OA
HETATM   25  H   UNK     0      -0.721  -2.786   4.419  0.00  0.00     0.217 HD
ENDBRANCH   8  24
BRANCH  10  26
HETATM   26  O   UNK     0       3.816  -5.704   4.749  0.00  0.00    -0.361 OA
HETATM   27  H   UNK     0       3.999  -6.627   4.500  0.00  0.00     0.217 HD
ENDBRANCH  10  26
TORSDOF 6
ENDMDL
MODEL 3
REMARK VINA RESULT:      -7.0      1.941      3.386
REMARK  6 active torsions:
REMARK  status: ('A' for Active; 'I' for Inactive)
REMARK    1  A    between atoms: O_2  and  C_12 
REMARK    2  A    between atoms: O_3  and  C_14 
REMARK    3  A    between atoms: O_5  and  C_16 
REMARK    4  A    between atoms: O_6  and  C_20 
REMARK    5  A    between atoms: O_7  and  C_22 
REMARK    6  A    between atoms: C_10  and  C_11 
ROOT
HETATM    1  O   UNK     0       0.103  -6.042   0.799  0.00  0.00    -0.306 OA
HETATM    2  O   UNK     0      -0.580  -2.101   0.019  0.00  0.00    -0.284 OA
HETATM    3  C   UNK     0       0.270  -3.725   1.503  0.00  0.00     0.084 A 
HETATM    4  C   UNK     0       0.474  -5.088   1.710  0.00  0.00     0.096 A 
HETATM    5  C   UNK     0      -0.489  -5.631  -0.385  0.00  0.00     0.123 A 
HETATM    6  C   UNK     0      -0.749  -4.350  -0.703  0.00  0.00     0.152 A 
HETATM    7  C   UNK     0      -0.370  -3.283   0.255  0.00  0.00     0.223 A 
HETATM    8  C   UNK     0       0.668  -2.798   2.469  0.00  0.00     0.085 A 
HETATM    9  C   UNK     0       1.077  -5.532   2.888  0.00  0.00     0.075 A 
HETATM   10  C   UNK     0       1.476  -4.608   3.854  0.00  0.00     0.071 A 
HETATM   11  C   UNK     0       1.271  -3.244   3.645  0.00  0.00     0.074 A 
ENDROOT
BRANCH   5  12
HETATM   12  C   UNK     0      -0.837  -6.753  -1.274  0.00  0.00     0.004 A 
HETATM   13  C   UNK     0      -1.907  -7.589  -0.957  0.00  0.00     0.053 A 
HETATM   14  C   UNK     0      -2.237  -8.652  -1.799  0.00  0.00     0.099 A 
HETATM   15  C   UNK     0      -1.495  -8.878  -2.958  0.00  0.00     0.098 A 
HETATM   16  C   UNK     0      -0.425  -8.042  -3.276  0.00  0.00     0.040 A 
HETATM   17  C   UNK     0      -0.095  -6.979  -2.434  0.00  0.00     0.017 A 
BRANCH  14  18
HETATM   18  O   UNK     0      -3.282  -9.463  -1.478  0.00  0.00    -0.358 OA
HETATM   19  H   UNK     0      -3.623  -9.892  -2.279  0.00  0.00     0.217 HD
ENDBRANCH  14  18
BRANCH  15  20
HETATM   20  O   UNK     0      -1.808  -9.911  -3.790  0.00  0.00    -0.358 OA
HETATM   21  H   UNK     0      -0.995 -10.305  -4.144  0.00  0.00     0.217 HD
ENDBRANCH  15  20
ENDBRANCH   5  12
BRANCH   6  22
HETATM   22  O   UNK     0      -1.369  -3.976  -1.876  0.00  0.00    -0.355 OA
HETATM   23  H   UNK     0      -1.412  -3.008  -1.933  0.00  0.00     0.218 HD
ENDBRANCH   6  22
BRANCH   8  24
HETATM   24  O   UNK     0       0.491  -1.455   2.316  0.00  0.00    -0.360 OA
HETATM   25  H   UNK     0      -0.012  -1.268   1.509  0.00  0.00     0.217 HD
ENDBRANCH   8  24
BRANCH  10  26
HETATM   26  O   UNK     0       2.065  -5.040   5.004  0.00  0.00    -0.361 OA
HETATM   27  H   UNK     0       2.699  -5.745   4.787  0.00  0.00     0.217 HD
ENDBRANCH  10  26
TORSDOF 6
ENDMDL
MODEL 4
REMARK VINA RESULT:      -6.8      3.015      3.666
REMARK  6 active torsions:
REMARK  status: ('A' for Active; 'I' for Inactive)
REMARK    1  A    between atoms: O_2  and  C_12 
REMARK    2  A    between atoms: O_3  and  C_14 
REMARK    3  A    between atoms: O_5  and  C_16 
REMARK    4  A    between atoms: O_6  and  C_20 
REMARK    5  A    between atoms: O_7  and  C_22 
REMARK    6  A    between atoms: C_10  and  C_11 
ROOT
HETATM    1  O   UNK     0       0.416  -3.388  -1.051  0.00  0.00    -0.306 OA
HETATM    2  O   UNK     0      -2.139  -1.822   1.710  0.00  0.00    -0.284 OA
HETATM    3  C   UNK     0      -0.188  -1.549   0.413  0.00  0.00     0.084 A 
HETATM    4  C   UNK     0       0.647  -2.141  -0.532  0.00  0.00     0.096 A 
HETATM    5  C   UNK     0      -0.705  -4.085  -0.626  0.00  0.00     0.123 A 
HETATM    6  C   UNK     0      -1.585  -3.631   0.286  0.00  0.00     0.152 A 
HETATM    7  C   UNK     0      -1.372  -2.288   0.878  0.00  0.00     0.223 A 
HETATM    8  C   UNK     0       0.098  -0.274   0.908  0.00  0.00     0.085 A 
HETATM    9  C   UNK     0       1.778  -1.461  -0.987  0.00  0.00     0.075 A 
HETATM   10  C   UNK     0       2.066  -0.188  -0.495  0.00  0.00     0.071 A 
HETATM   11  C   UNK     0       1.228   0.403   0.450  0.00  0.00     0.074 A 
ENDROOT
BRANCH   5  12
HETATM   12  C   UNK     0      -0.835  -5.408  -1.261  0.00  0.00     0.004 A 
HETATM   13  C   UNK     0      -1.668  -5.573  -2.367  0.00  0.00     0.053 A 
HETATM   14  C   UNK     0      -1.791  -6.826  -2.968  0.00  0.00     0.099 A 
HETATM   15  C   UNK     0      -1.079  -7.914  -2.462  0.00  0.00     0.098 A 
HETATM   16  C   UNK     0      -0.245  -7.749  -1.356  0.00  0.00     0.040 A 
HETATM   17  C   UNK     0      -0.122  -6.496  -0.755  0.00  0.00     0.017 A 
BRANCH  14  18
HETATM   18  O   UNK     0      -2.609  -6.976  -4.045  0.00  0.00    -0.358 OA
HETATM   19  H   UNK     0      -2.277  -6.445  -4.787  0.00  0.00     0.217 HD
ENDBRANCH  14  18
BRANCH  15  20
HETATM   20  O   UNK     0      -1.189  -9.142  -3.041  0.00  0.00    -0.358 OA
HETATM   21  H   UNK     0      -0.813  -9.817  -2.454  0.00  0.00     0.217 HD
ENDBRANCH  15  20
ENDBRANCH   5  12
BRANCH   6  22
HETATM   22  O   UNK     0      -2.672  -4.362   0.711  0.00  0.00    -0.355 OA
HETATM   23  H   UNK     0      -3.468  -3.806   0.702  0.00  0.00     0.218 HD
ENDBRANCH   6  22
BRANCH   8  24
HETATM   24  O   UNK     0      -0.686   0.348   1.832  0.00  0.00    -0.360 OA
HETATM   25  H   UNK     0      -0.851  -0.236   2.587  0.00  0.00     0.217 HD
ENDBRANCH   8  24
BRANCH  10  26
HETATM   26  O   UNK     0       3.169   0.477  -0.939  0.00  0.00    -0.361 OA
HETATM   27  H   UNK     0       2.920   1.022  -1.706  0.00  0.00     0.217 HD
ENDBRANCH  10  26
TORSDOF 6
ENDMDL
MODEL 5
REMARK VINA RESULT:      -6.7      2.180      2.547
REMARK  6 active torsions:
REMARK  status: ('A' for Active; 'I' for Inactive)
REMARK    1  A    between atoms: O_2  and  C_12 
REMARK    2  A    between atoms: O_3  and  C_14 
REMARK    3  A    between atoms: O_5  and  C_16 
REMARK    4  A    between atoms: O_6  and  C_20 
REMARK    5  A    between atoms: O_7  and  C_22 
REMARK    6  A    between atoms: C_10  and  C_11 
ROOT
HETATM    1  O   UNK     0      -2.118  -4.145   0.566  0.00  0.00    -0.306 OA
HETATM    2  O   UNK     0       0.407  -0.987   0.060  0.00  0.00    -0.284 OA
HETATM    3  C   UNK     0      -1.425  -1.914   1.222  0.00  0.00     0.084 A 
HETATM    4  C   UNK     0      -2.256  -3.026   1.345  0.00  0.00     0.096 A 
HETATM    5  C   UNK     0      -1.101  -4.176  -0.374  0.00  0.00     0.123 A 
HETATM    6  C   UNK     0      -0.237  -3.168  -0.598  0.00  0.00     0.152 A 
HETATM    7  C   UNK     0      -0.351  -1.935   0.217  0.00  0.00     0.223 A 
HETATM    8  C   UNK     0      -1.613  -0.799   2.043  0.00  0.00     0.085 A 
HETATM    9  C   UNK     0      -3.283  -3.028   2.289  0.00  0.00     0.075 A 
HETATM   10  C   UNK     0      -3.473  -1.917   3.110  0.00  0.00     0.071 A 
HETATM   11  C   UNK     0      -2.640  -0.805   2.987  0.00  0.00     0.074 A 
ENDROOT
BRANCH   5  12
HETATM   12  C   UNK     0      -1.064  -5.434  -1.141  0.00  0.00     0.004 A 
HETATM   13  C   UNK     0      -1.850  -5.577  -2.285  0.00  0.00     0.053 A 
HETATM   14  C   UNK     0      -1.815  -6.768  -3.011  0.00  0.00     0.099 A 
HETATM   15  C   UNK     0      -0.994  -7.816  -2.592  0.00  0.00     0.098 A 
HETATM   16  C   UNK     0      -0.208  -7.672  -1.449  0.00  0.00     0.040 A 
HETATM   17  C   UNK     0      -0.243  -6.482  -0.723  0.00  0.00     0.017 A 
BRANCH  14  18
HETATM   18  O   UNK     0      -2.588  -6.898  -4.125  0.00  0.00    -0.358 OA
HETATM   19  H   UNK     0      -2.104  -7.395  -4.804  0.00  0.00     0.217 HD
ENDBRANCH  14  18
BRANCH  15  20
HETATM   20  O   UNK     0      -0.950  -8.983  -3.294  0.00  0.00    -0.358 OA
HETATM   21  H   UNK     0      -1.257  -9.713  -2.735  0.00  0.00     0.217 HD
ENDBRANCH  15  20
ENDBRANCH   5  12
BRANCH   6  22
HETATM   22  O   UNK     0       0.744  -3.218  -1.564  0.00  0.00    -0.355 OA
HETATM   23  H   UNK     0       1.538  -2.754  -1.253  0.00  0.00     0.218 HD
ENDBRANCH   6  22
BRANCH   8  24
HETATM   24  O   UNK     0      -0.829   0.313   1.964  0.00  0.00    -0.360 OA
HETATM   25  H   UNK     0      -0.290   0.292   1.159  0.00  0.00     0.217 HD
ENDBRANCH   8  24
BRANCH  10  26
HETATM   26  O   UNK     0      -4.475  -1.919   4.033  0.00  0.00    -0.361 OA
HETATM   27  H   UNK     0      -5.330  -1.956   3.569  0.00  0.00     0.217 HD
ENDBRANCH  10  26
TORSDOF 6
ENDMDL
MODEL 6
REMARK VINA RESULT:      -5.5      3.172      4.284
REMARK  6 active torsions:
REMARK  status: ('A' for Active; 'I' for Inactive)
REMARK    1  A    between atoms: O_2  and  C_12 
REMARK    2  A    between atoms: O_3  and  C_14 
REMARK    3  A    between atoms: O_5  and  C_16 
REMARK    4  A    between atoms: O_6  and  C_20 
REMARK    5  A    between atoms: O_7  and  C_22 
REMARK    6  A    between atoms: C_10  and  C_11 
ROOT
HETATM    1  O   UNK     0       0.948  -2.557   0.311  0.00  0.00    -0.306 OA
HETATM    2  O   UNK     0      -2.113  -0.235   1.669  0.00  0.00    -0.284 OA
HETATM    3  C   UNK     0       0.193  -0.435   1.215  0.00  0.00     0.084 A 
HETATM    4  C   UNK     0       1.195  -1.279   0.740  0.00  0.00     0.096 A 
HETATM    5  C   UNK     0      -0.356  -3.024   0.338  0.00  0.00     0.123 A 
HETATM    6  C   UNK     0      -1.412  -2.314   0.779  0.00  0.00     0.152 A 
HETATM    7  C   UNK     0      -1.192  -0.928   1.258  0.00  0.00     0.223 A 
HETATM    8  C   UNK     0       0.504   0.859   1.641  0.00  0.00     0.085 A 
HETATM    9  C   UNK     0       2.517  -0.834   0.691  0.00  0.00     0.075 A 
HETATM   10  C   UNK     0       2.830   0.457   1.116  0.00  0.00     0.071 A 
HETATM   11  C   UNK     0       1.826   1.301   1.590  0.00  0.00     0.074 A 
ENDROOT
BRANCH   5  12
HETATM   12  C   UNK     0      -0.482  -4.408  -0.149  0.00  0.00     0.004 A 
HETATM   13  C   UNK     0      -1.128  -4.667  -1.358  0.00  0.00     0.053 A 
HETATM   14  C   UNK     0      -1.246  -5.978  -1.819  0.00  0.00     0.099 A 
HETATM   15  C   UNK     0      -0.718  -7.031  -1.071  0.00  0.00     0.098 A 
HETATM   16  C   UNK     0      -0.072  -6.772   0.137  0.00  0.00     0.040 A 
HETATM   17  C   UNK     0       0.047  -5.461   0.598  0.00  0.00     0.017 A 
BRANCH  14  18
HETATM   18  O   UNK     0      -1.881  -6.219  -3.000  0.00  0.00    -0.358 OA
HETATM   19  H   UNK     0      -1.895  -7.174  -3.176  0.00  0.00     0.217 HD
ENDBRANCH  14  18
BRANCH  15  20
HETATM   20  O   UNK     0      -0.826  -8.316  -1.513  0.00  0.00    -0.358 OA
HETATM   21  H   UNK     0      -1.476  -8.362  -2.231  0.00  0.00     0.217 HD
ENDBRANCH  15  20
ENDBRANCH   5  12
BRANCH   6  22
HETATM   22  O   UNK     0      -2.693  -2.820   0.824  0.00  0.00    -0.355 OA
HETATM   23  H   UNK     0      -2.687  -3.699   1.236  0.00  0.00     0.218 HD
ENDBRANCH   6  22
BRANCH   8  24
HETATM   24  O   UNK     0      -0.437   1.724   2.112  0.00  0.00    -0.360 OA
HETATM   25  H   UNK     0      -0.831   2.229   1.385  0.00  0.00     0.217 HD
ENDBRANCH   8  24
BRANCH  10  26
HETATM   26  O   UNK     0       4.120   0.893   1.068  0.00  0.00    -0.361 OA
HETATM   27  H   UNK     0       4.177   1.758   1.509  0.00  0.00     0.217 HD
ENDBRANCH  10  26
TORSDOF 6
ENDMDL
MODEL 7
REMARK VINA RESULT:      -5.5      2.868      4.304
REMARK  6 active torsions:
REMARK  status: ('A' for Active; 'I' for Inactive)
REMARK    1  A    between atoms: O_2  and  C_12 
REMARK    2  A    between atoms: O_3  and  C_14 
REMARK    3  A    between atoms: O_5  and  C_16 
REMARK    4  A    between atoms: O_6  and  C_20 
REMARK    5  A    between atoms: O_7  and  C_22 
REMARK    6  A    between atoms: C_10  and  C_11 
ROOT
HETATM    1  O   UNK     0      -0.233  -4.535   3.746  0.00  0.00    -0.306 OA
HETATM    2  O   UNK     0       3.191  -6.582   4.579  0.00  0.00    -0.284 OA
HETATM    3  C   UNK     0       1.376  -5.312   5.389  0.00  0.00     0.084 A 
HETATM    4  C   UNK     0       0.214  -4.626   5.038  0.00  0.00     0.096 A 
HETATM    5  C   UNK     0       0.495  -5.164   2.748  0.00  0.00     0.123 A 
HETATM    6  C   UNK     0       1.635  -5.849   2.951  0.00  0.00     0.152 A 
HETATM    7  C   UNK     0       2.160  -5.970   4.332  0.00  0.00     0.223 A 
HETATM    8  C   UNK     0       1.784  -5.370   6.723  0.00  0.00     0.085 A 
HETATM    9  C   UNK     0      -0.545  -3.991   6.022  0.00  0.00     0.075 A 
HETATM   10  C   UNK     0      -0.139  -4.048   7.355  0.00  0.00     0.071 A 
HETATM   11  C   UNK     0       1.023  -4.736   7.705  0.00  0.00     0.074 A 
ENDROOT
BRANCH   5  12
HETATM   12  C   UNK     0      -0.095  -4.988   1.409  0.00  0.00     0.004 A 
HETATM   13  C   UNK     0      -0.632  -6.084   0.733  0.00  0.00     0.053 A 
HETATM   14  C   UNK     0      -1.191  -5.918  -0.534  0.00  0.00     0.099 A 
HETATM   15  C   UNK     0      -1.212  -4.654  -1.126  0.00  0.00     0.098 A 
HETATM   16  C   UNK     0      -0.676  -3.558  -0.450  0.00  0.00     0.040 A 
HETATM   17  C   UNK     0      -0.117  -3.725   0.817  0.00  0.00     0.017 A 
BRANCH  14  18
HETATM   18  O   UNK     0      -1.710  -6.995  -1.185  0.00  0.00    -0.358 OA
HETATM   19  H   UNK     0      -2.579  -7.217  -0.812  0.00  0.00     0.217 HD
ENDBRANCH  14  18
BRANCH  15  20
HETATM   20  O   UNK     0      -1.757  -4.479  -2.362  0.00  0.00    -0.358 OA
HETATM   21  H   UNK     0      -1.192  -4.896  -3.032  0.00  0.00     0.217 HD
ENDBRANCH  15  20
ENDBRANCH   5  12
BRANCH   6  22
HETATM   22  O   UNK     0       2.353  -6.436   1.931  0.00  0.00    -0.355 OA
HETATM   23  H   UNK     0       2.965  -7.095   2.296  0.00  0.00     0.218 HD
ENDBRANCH   6  22
BRANCH   8  24
HETATM   24  O   UNK     0       2.911  -6.027   7.119  0.00  0.00    -0.360 OA
HETATM   25  H   UNK     0       3.024  -6.844   6.611  0.00  0.00     0.217 HD
ENDBRANCH   8  24
BRANCH  10  26
HETATM   26  O   UNK     0      -0.880  -3.430   8.316  0.00  0.00    -0.361 OA
HETATM   27  H   UNK     0      -1.461  -2.774   7.893  0.00  0.00     0.217 HD
ENDBRANCH  10  26
TORSDOF 6
ENDMDL
MODEL 8
REMARK VINA RESULT:      -5.4      2.899      3.982
REMARK  6 active torsions:
REMARK  status: ('A' for Active; 'I' for Inactive)
REMARK    1  A    between atoms: O_2  and  C_12 
REMARK    2  A    between atoms: O_3  and  C_14 
REMARK    3  A    between atoms: O_5  and  C_16 
REMARK    4  A    between atoms: O_6  and  C_20 
REMARK    5  A    between atoms: O_7  and  C_22 
REMARK    6  A    between atoms: C_10  and  C_11 
ROOT
HETATM    1  O   UNK     0       0.104  -2.172   0.239  0.00  0.00    -0.306 OA
HETATM    2  O   UNK     0      -2.896  -0.928   2.700  0.00  0.00    -0.284 OA
HETATM    3  C   UNK     0      -0.914  -0.394   1.539  0.00  0.00     0.084 A 
HETATM    4  C   UNK     0       0.083  -0.881   0.697  0.00  0.00     0.096 A 
HETATM    5  C   UNK     0      -0.920  -3.026   0.620  0.00  0.00     0.123 A 
HETATM    6  C   UNK     0      -1.936  -2.683   1.434  0.00  0.00     0.152 A 
HETATM    7  C   UNK     0      -1.996  -1.298   1.958  0.00  0.00     0.223 A 
HETATM    8  C   UNK     0      -0.882   0.933   1.976  0.00  0.00     0.085 A 
HETATM    9  C   UNK     0       1.122  -0.043   0.288  0.00  0.00     0.075 A 
HETATM   10  C   UNK     0       1.156   1.282   0.722  0.00  0.00     0.071 A 
HETATM   11  C   UNK     0       0.156   1.768   1.565  0.00  0.00     0.074 A 
ENDROOT
BRANCH   5  12
HETATM   12  C   UNK     0      -0.778  -4.381   0.059  0.00  0.00     0.004 A 
HETATM   13  C   UNK     0      -1.328  -4.681  -1.188  0.00  0.00     0.053 A 
HETATM   14  C   UNK     0      -1.193  -5.964  -1.719  0.00  0.00     0.099 A 
HETATM   15  C   UNK     0      -0.508  -6.947  -1.003  0.00  0.00     0.098 A 
HETATM   16  C   UNK     0       0.043  -6.646   0.242  0.00  0.00     0.040 A 
HETATM   17  C   UNK     0      -0.092  -5.363   0.774  0.00  0.00     0.017 A 
BRANCH  14  18
HETATM   18  O   UNK     0      -1.736  -6.247  -2.935  0.00  0.00    -0.358 OA
HETATM   19  H   UNK     0      -1.304  -7.031  -3.313  0.00  0.00     0.217 HD
ENDBRANCH  14  18
BRANCH  15  20
HETATM   20  O   UNK     0      -0.368  -8.203  -1.513  0.00  0.00    -0.358 OA
HETATM   21  H   UNK     0      -1.031  -8.352  -2.204  0.00  0.00     0.217 HD
ENDBRANCH  15  20
ENDBRANCH   5  12
BRANCH   6  22
HETATM   22  O   UNK     0      -2.921  -3.566   1.820  0.00  0.00    -0.355 OA
HETATM   23  H   UNK     0      -3.083  -4.210   1.112  0.00  0.00     0.218 HD
ENDBRANCH   6  22
BRANCH   8  24
HETATM   24  O   UNK     0      -1.833   1.459   2.799  0.00  0.00    -0.360 OA
HETATM   25  H   UNK     0      -2.705   1.094   2.588  0.00  0.00     0.217 HD
ENDBRANCH   8  24
BRANCH  10  26
HETATM   26  O   UNK     0       2.169   2.101   0.323  0.00  0.00    -0.361 OA
HETATM   27  H   UNK     0       2.911   2.010   0.946  0.00  0.00     0.217 HD
ENDBRANCH  10  26
TORSDOF 6
ENDMDL
MODEL 9
REMARK VINA RESULT:      -5.2      2.025      7.207
REMARK  6 active torsions:
REMARK  status: ('A' for Active; 'I' for Inactive)
REMARK    1  A    between atoms: O_2  and  C_12 
REMARK    2  A    between atoms: O_3  and  C_14 
REMARK    3  A    between atoms: O_5  and  C_16 
REMARK    4  A    between atoms: O_6  and  C_20 
REMARK    5  A    between atoms: O_7  and  C_22 
REMARK    6  A    between atoms: C_10  and  C_11 
ROOT
HETATM    1  O   UNK     0      -1.556  -2.619   0.773  0.00  0.00    -0.306 OA
HETATM    2  O   UNK     0      -0.061  -4.721   3.928  0.00  0.00    -0.284 OA
HETATM    3  C   UNK     0      -0.485  -4.630   1.609  0.00  0.00     0.084 A 
HETATM    4  C   UNK     0      -1.014  -3.862   0.574  0.00  0.00     0.096 A 
HETATM    5  C   UNK     0      -1.568  -2.100   2.058  0.00  0.00     0.123 A 
HETATM    6  C   UNK     0      -1.098  -2.741   3.144  0.00  0.00     0.152 A 
HETATM    7  C   UNK     0      -0.506  -4.091   2.978  0.00  0.00     0.223 A 
HETATM    8  C   UNK     0       0.054  -5.892   1.347  0.00  0.00     0.085 A 
HETATM    9  C   UNK     0      -1.008  -4.353  -0.732  0.00  0.00     0.075 A 
HETATM   10  C   UNK     0      -0.469  -5.612  -0.998  0.00  0.00     0.071 A 
HETATM   11  C   UNK     0       0.060  -6.379   0.040  0.00  0.00     0.074 A 
ENDROOT
BRANCH   5  12
HETATM   12  C   UNK     0      -2.177  -0.761   2.132  0.00  0.00     0.004 A 
HETATM   13  C   UNK     0      -3.453  -0.603   2.673  0.00  0.00     0.053 A 
HETATM   14  C   UNK     0      -4.029   0.665   2.743  0.00  0.00     0.099 A 
HETATM   15  C   UNK     0      -3.329   1.777   2.272  0.00  0.00     0.098 A 
HETATM   16  C   UNK     0      -2.053   1.619   1.732  0.00  0.00     0.040 A 
HETATM   17  C   UNK     0      -1.477   0.351   1.662  0.00  0.00     0.017 A 
BRANCH  14  18
HETATM   18  O   UNK     0      -5.277   0.807   3.271  0.00  0.00    -0.358 OA
HETATM   19  H   UNK     0      -5.413   1.728   3.549  0.00  0.00     0.217 HD
ENDBRANCH  14  18
BRANCH  15  20
HETATM   20  O   UNK     0      -3.881   3.021   2.338  0.00  0.00    -0.358 OA
HETATM   21  H   UNK     0      -3.727   3.401   3.217  0.00  0.00     0.217 HD
ENDBRANCH  15  20
ENDBRANCH   5  12
BRANCH   6  22
HETATM   22  O   UNK     0      -1.154  -2.210   4.414  0.00  0.00    -0.355 OA
HETATM   23  H   UNK     0      -0.544  -2.689   4.999  0.00  0.00     0.218 HD
ENDBRANCH   6  22
BRANCH   8  24
HETATM   24  O   UNK     0       0.583  -6.682   2.322  0.00  0.00    -0.360 OA
HETATM   25  H   UNK     0       0.419  -6.299   3.197  0.00  0.00     0.217 HD
ENDBRANCH   8  24
BRANCH  10  26
HETATM   26  O   UNK     0      -0.462  -6.092  -2.272  0.00  0.00    -0.361 OA
HETATM   27  H   UNK     0       0.197  -6.804  -2.337  0.00  0.00     0.217 HD
ENDBRANCH  10  26
TORSDOF 6
ENDMDL
MODEL 10
REMARK VINA RESULT:      -5.2      2.433      6.670
REMARK  6 active torsions:
REMARK  status: ('A' for Active; 'I' for Inactive)
REMARK    1  A    between atoms: O_2  and  C_12 
REMARK    2  A    between atoms: O_3  and  C_14 
REMARK    3  A    between atoms: O_5  and  C_16 
REMARK    4  A    between atoms: O_6  and  C_20 
REMARK    5  A    between atoms: O_7  and  C_22 
REMARK    6  A    between atoms: C_10  and  C_11 
ROOT
HETATM    1  O   UNK     0       0.752  -6.605   0.988  0.00  0.00    -0.306 OA
HETATM    2  O   UNK     0      -1.066  -3.153  -0.190  0.00  0.00    -0.284 OA
HETATM    3  C   UNK     0      -0.594  -5.419  -0.646  0.00  0.00     0.084 A 
HETATM    4  C   UNK     0       0.051  -6.566  -0.188  0.00  0.00     0.096 A 
HETATM    5  C   UNK     0       0.811  -5.456   1.762  0.00  0.00     0.123 A 
HETATM    6  C   UNK     0       0.240  -4.283   1.430  0.00  0.00     0.152 A 
HETATM    7  C   UNK     0      -0.525  -4.192   0.163  0.00  0.00     0.223 A 
HETATM    8  C   UNK     0      -1.293  -5.438  -1.855  0.00  0.00     0.085 A 
HETATM    9  C   UNK     0       0.002  -7.741  -0.940  0.00  0.00     0.075 A 
HETATM   10  C   UNK     0      -0.696  -7.763  -2.147  0.00  0.00     0.071 A 
HETATM   11  C   UNK     0      -1.342  -6.614  -2.604  0.00  0.00     0.074 A 
ENDROOT
BRANCH   5  12
HETATM   12  C   UNK     0       1.593  -5.634   2.998  0.00  0.00     0.004 A 
HETATM   13  C   UNK     0       2.904  -6.106   2.932  0.00  0.00     0.053 A 
HETATM   14  C   UNK     0       3.644  -6.274   4.103  0.00  0.00     0.099 A 
HETATM   15  C   UNK     0       3.074  -5.969   5.339  0.00  0.00     0.098 A 
HETATM   16  C   UNK     0       1.763  -5.495   5.404  0.00  0.00     0.040 A 
HETATM   17  C   UNK     0       1.023  -5.327   4.234  0.00  0.00     0.017 A 
BRANCH  14  18
HETATM   18  O   UNK     0       4.922  -6.739   4.027  0.00  0.00    -0.358 OA
HETATM   19  H   UNK     0       4.919  -7.710   4.021  0.00  0.00     0.217 HD
ENDBRANCH  14  18
BRANCH  15  20
HETATM   20  O   UNK     0       3.788  -6.127   6.488  0.00  0.00    -0.358 OA
HETATM   21  H   UNK     0       4.029  -7.060   6.599  0.00  0.00     0.217 HD
ENDBRANCH  15  20
ENDBRANCH   5  12
BRANCH   6  22
HETATM   22  O   UNK     0       0.345  -3.149   2.206  0.00  0.00    -0.355 OA
HETATM   23  H   UNK     0       1.268  -3.018   2.476  0.00  0.00     0.218 HD
ENDBRANCH   6  22
BRANCH   8  24
HETATM   24  O   UNK     0      -1.941  -4.345  -2.348  0.00  0.00    -0.360 OA
HETATM   25  H   UNK     0      -1.897  -3.611  -1.716  0.00  0.00     0.217 HD
ENDBRANCH   8  24
BRANCH  10  26
HETATM   26  O   UNK     0      -0.745  -8.910  -2.881  0.00  0.00    -0.361 OA
HETATM   27  H   UNK     0      -1.592  -9.357  -2.709  0.00  0.00     0.217 HD
ENDBRANCH  10  26
TORSDOF 6
ENDMDL
