MODEL 1
REMARK VINA RESULT:      -8.2      0.000      0.000
REMARK  Name = 9823887
REMARK                            x       y       z     vdW  Elec       q    Type
REMARK                         _______ _______ _______ _____ _____    ______ ____
ROOT
ATOM      1  O   LIG    1      152.853 155.499 151.767  0.00  0.00    -0.341 OA
ATOM      2  C   LIG    1      153.170 154.142 152.069  0.00  0.00    +0.282 C 
ATOM      3  C   LIG    1      154.613 153.828 151.670  0.00  0.00    +0.201 C 
ATOM      4  C   LIG    1      155.592 154.819 152.297  0.00  0.00    +0.179 C 
ATOM      5  C   LIG    1      155.131 156.261 152.089  0.00  0.00    +0.177 C 
ATOM     22  C   LIG    1      153.663 156.426 152.491  0.00  0.00    +0.178 C 
ENDROOT
BRANCH   5   6
ATOM      6  O   LIG    1      155.937 157.133 152.877  0.00  0.00    -0.386 OA
ATOM      7  H   LIG    1      155.637 158.045 152.717  0.00  0.00    +0.210 HD
ENDBRANCH   5   6
BRANCH   4   8
ATOM      8  O   LIG    1      156.875 154.673 151.685  0.00  0.00    -0.386 OA
ATOM      9  H   LIG    1      157.495 154.384 152.376  0.00  0.00    +0.210 HD
ENDBRANCH   4   8
BRANCH   3  10
ATOM     10  O   LIG    1      154.923 152.508 152.115  0.00  0.00    -0.384 OA
ATOM     11  H   LIG    1      154.530 151.878 151.488  0.00  0.00    +0.210 HD
ENDBRANCH   3  10
BRANCH   2  12
ATOM     12  O   LIG    1      152.311 153.271 151.336  0.00  0.00    -0.345 OA
BRANCH  12  13
ATOM     13  C   LIG    1      152.217 153.662 149.976  0.00  0.00    +0.190 C 
BRANCH  13  14
ATOM     14  C   LIG    1      152.364 152.449 149.114  0.00  0.00    +0.001 C 
ATOM     15  C   LIG    1      151.579 152.198 148.055  0.00  0.00    +0.006 C 
BRANCH  15  16
ATOM     16  C   LIG    1      151.696 151.026 147.171  0.00  0.00    -0.025 A 
ATOM     17  C   LIG    1      150.557 150.507 146.576  0.00  0.00    +0.008 A 
ATOM     18  C   LIG    1      150.668 149.398 145.738  0.00  0.00    +0.001 A 
ATOM     19  C   LIG    1      151.916 148.820 145.507  0.00  0.00    +0.000 A 
ATOM     20  C   LIG    1      153.054 149.352 146.113  0.00  0.00    +0.001 A 
ATOM     21  C   LIG    1      152.943 150.463 146.951  0.00  0.00    +0.008 A 
ENDBRANCH  15  16
ENDBRANCH  13  14
ENDBRANCH  12  13
ENDBRANCH   2  12
BRANCH  22  23
ATOM     23  C   LIG    1      153.147 157.828 152.182  0.00  0.00    +0.197 C 
BRANCH  23  24
ATOM     24  O   LIG    1      154.095 158.487 151.363  0.00  0.00    -0.346 OA
BRANCH  24  25
ATOM     25  C   LIG    1      153.549 158.828 150.093  0.00  0.00    +0.281 C 
ATOM     26  C   LIG    1      154.075 160.201 149.648  0.00  0.00    +0.201 C 
ATOM     27  C   LIG    1      155.536 160.139 149.192  0.00  0.00    +0.178 C 
ATOM     28  C   LIG    1      155.729 158.992 148.199  0.00  0.00    +0.171 C 
ATOM     29  C   LIG    1      155.189 157.688 148.773  0.00  0.00    +0.197 C 
ATOM     36  O   LIG    1      153.810 157.820 149.109  0.00  0.00    -0.346 OA
BRANCH  28  30
ATOM     30  O   LIG    1      157.107 158.859 147.878  0.00  0.00    -0.387 OA
ATOM     31  H   LIG    1      157.556 158.486 148.656  0.00  0.00    +0.210 HD
ENDBRANCH  28  30
BRANCH  27  32
ATOM     32  O   LIG    1      156.381 159.931 150.323  0.00  0.00    -0.386 OA
ATOM     33  H   LIG    1      155.935 160.315 151.097  0.00  0.00    +0.210 HD
ENDBRANCH  27  32
BRANCH  26  34
ATOM     34  O   LIG    1      153.262 160.657 148.569  0.00  0.00    -0.384 OA
ATOM     35  H   LIG    1      152.416 160.968 148.931  0.00  0.00    +0.210 HD
ENDBRANCH  26  34
ENDBRANCH  24  25
ENDBRANCH  23  24
ENDBRANCH  22  23
TORSDOF 13
ENDMDL
MODEL 2
REMARK VINA RESULT:      -8.1      1.628      2.306
REMARK  Name = 9823887
REMARK                            x       y       z     vdW  Elec       q    Type
REMARK                         _______ _______ _______ _____ _____    ______ ____
ROOT
ATOM      1  O   LIG    1      153.639 155.597 150.340  0.00  0.00    -0.341 OA
ATOM      2  C   LIG    1      154.006 154.237 150.563  0.00  0.00    +0.282 C 
ATOM      3  C   LIG    1      155.232 154.156 151.473  0.00  0.00    +0.201 C 
ATOM      4  C   LIG    1      155.014 154.931 152.772  0.00  0.00    +0.179 C 
ATOM      5  C   LIG    1      154.468 156.332 152.496  0.00  0.00    +0.177 C 
ATOM     22  C   LIG    1      153.270 156.270 151.544  0.00  0.00    +0.178 C 
ENDROOT
BRANCH   5   6
ATOM      6  O   LIG    1      154.063 156.931 153.724  0.00  0.00    -0.386 OA
ATOM      7  H   LIG    1      153.163 157.280 153.605  0.00  0.00    +0.210 HD
ENDBRANCH   5   6
BRANCH   4   8
ATOM      8  O   LIG    1      156.259 155.070 153.459  0.00  0.00    -0.386 OA
ATOM      9  H   LIG    1      156.761 154.250 153.318  0.00  0.00    +0.210 HD
ENDBRANCH   4   8
BRANCH   3  10
ATOM     10  O   LIG    1      155.475 152.783 151.775  0.00  0.00    -0.384 OA
ATOM     11  H   LIG    1      154.626 152.371 152.009  0.00  0.00    +0.210 HD
ENDBRANCH   3  10
BRANCH   2  12
ATOM     12  O   LIG    1      154.337 153.617 149.322  0.00  0.00    -0.345 OA
BRANCH  12  13
ATOM     13  C   LIG    1      153.234 152.901 148.791  0.00  0.00    +0.190 C 
BRANCH  13  14
ATOM     14  C   LIG    1      153.651 152.252 147.511  0.00  0.00    +0.001 C 
ATOM     15  C   LIG    1      153.254 151.024 147.144  0.00  0.00    +0.006 C 
BRANCH  15  16
ATOM     16  C   LIG    1      153.627 150.350 145.888  0.00  0.00    -0.025 A 
ATOM     17  C   LIG    1      154.028 151.112 144.802  0.00  0.00    +0.008 A 
ATOM     18  C   LIG    1      154.381 150.474 143.614  0.00  0.00    +0.001 A 
ATOM     19  C   LIG    1      154.328 149.083 143.525  0.00  0.00    +0.000 A 
ATOM     20  C   LIG    1      153.923 148.329 144.626  0.00  0.00    +0.001 A 
ATOM     21  C   LIG    1      153.570 148.968 145.816  0.00  0.00    +0.008 A 
ENDBRANCH  15  16
ENDBRANCH  13  14
ENDBRANCH  12  13
ENDBRANCH   2  12
BRANCH  22  23
ATOM     23  C   LIG    1      152.780 157.664 151.162  0.00  0.00    +0.197 C 
BRANCH  23  24
ATOM     24  O   LIG    1      153.549 158.126 150.066  0.00  0.00    -0.346 OA
BRANCH  24  25
ATOM     25  C   LIG    1      154.414 159.193 150.440  0.00  0.00    +0.281 C 
ATOM     26  C   LIG    1      155.869 158.828 150.105  0.00  0.00    +0.201 C 
ATOM     27  C   LIG    1      156.150 158.904 148.601  0.00  0.00    +0.178 C 
ATOM     28  C   LIG    1      155.642 160.232 148.036  0.00  0.00    +0.171 C 
ATOM     29  C   LIG    1      154.185 160.456 148.420  0.00  0.00    +0.197 C 
ATOM     36  O   LIG    1      154.030 160.433 149.837  0.00  0.00    -0.346 OA
BRANCH  28  30
ATOM     30  O   LIG    1      155.790 160.244 146.623  0.00  0.00    -0.387 OA
ATOM     31  H   LIG    1      156.567 160.789 146.414  0.00  0.00    +0.210 HD
ENDBRANCH  28  30
BRANCH  27  32
ATOM     32  O   LIG    1      155.491 157.827 147.937  0.00  0.00    -0.386 OA
ATOM     33  H   LIG    1      155.310 157.140 148.601  0.00  0.00    +0.210 HD
ENDBRANCH  27  32
BRANCH  26  34
ATOM     34  O   LIG    1      156.721 159.741 150.791  0.00  0.00    -0.384 OA
ATOM     35  H   LIG    1      157.198 160.273 150.132  0.00  0.00    +0.210 HD
ENDBRANCH  26  34
ENDBRANCH  24  25
ENDBRANCH  23  24
ENDBRANCH  22  23
TORSDOF 13
ENDMDL
MODEL 3
REMARK VINA RESULT:      -8.0      2.941      4.239
REMARK  Name = 9823887
REMARK                            x       y       z     vdW  Elec       q    Type
REMARK                         _______ _______ _______ _____ _____    ______ ____
ROOT
ATOM      1  O   LIG    1      152.973 156.093 151.217  0.00  0.00    -0.341 OA
ATOM      2  C   LIG    1      153.094 154.699 151.491  0.00  0.00    +0.282 C 
ATOM      3  C   LIG    1      154.551 154.254 151.362  0.00  0.00    +0.201 C 
ATOM      4  C   LIG    1      155.474 155.110 152.228  0.00  0.00    +0.179 C 
ATOM      5  C   LIG    1      155.202 156.600 152.022  0.00  0.00    +0.177 C 
ATOM     22  C   LIG    1      153.706 156.900 152.139  0.00  0.00    +0.178 C 
ENDROOT
BRANCH   5   6
ATOM      6  O   LIG    1      155.912 157.350 153.004  0.00  0.00    -0.386 OA
ATOM      7  H   LIG    1      156.817 156.996 153.054  0.00  0.00    +0.210 HD
ENDBRANCH   5   6
BRANCH   4   8
ATOM      8  O   LIG    1      156.834 154.856 151.869  0.00  0.00    -0.386 OA
ATOM      9  H   LIG    1      157.351 154.827 152.692  0.00  0.00    +0.210 HD
ENDBRANCH   4   8
BRANCH   3  10
ATOM     10  O   LIG    1      154.640 152.891 151.778  0.00  0.00    -0.384 OA
ATOM     11  H   LIG    1      154.021 152.371 151.239  0.00  0.00    +0.210 HD
ENDBRANCH   3  10
BRANCH   2  12
ATOM     12  O   LIG    1      152.321 153.954 150.553  0.00  0.00    -0.345 OA
BRANCH  12  13
ATOM     13  C   LIG    1      151.094 153.523 151.121  0.00  0.00    +0.190 C 
BRANCH  13  14
ATOM     14  C   LIG    1      149.972 154.254 150.457  0.00  0.00    +0.001 C 
ATOM     15  C   LIG    1      148.999 154.883 151.134  0.00  0.00    +0.006 C 
BRANCH  15  16
ATOM     16  C   LIG    1      147.884 155.627 150.524  0.00  0.00    -0.025 A 
ATOM     17  C   LIG    1      146.798 154.930 150.018  0.00  0.00    +0.008 A 
ATOM     18  C   LIG    1      145.743 155.636 149.441  0.00  0.00    +0.001 A 
ATOM     19  C   LIG    1      145.787 157.028 149.375  0.00  0.00    +0.000 A 
ATOM     20  C   LIG    1      146.886 157.716 149.888  0.00  0.00    +0.001 A 
ATOM     21  C   LIG    1      147.942 157.011 150.466  0.00  0.00    +0.008 A 
ENDBRANCH  15  16
ENDBRANCH  13  14
ENDBRANCH  12  13
ENDBRANCH   2  12
BRANCH  22  23
ATOM     23  C   LIG    1      153.396 158.360 151.823  0.00  0.00    +0.197 C 
BRANCH  23  24
ATOM     24  O   LIG    1      154.334 158.823 150.869  0.00  0.00    -0.346 OA
BRANCH  24  25
ATOM     25  C   LIG    1      153.706 159.193 149.647  0.00  0.00    +0.281 C 
ATOM     26  C   LIG    1      154.038 160.656 149.310  0.00  0.00    +0.201 C 
ATOM     27  C   LIG    1      155.478 160.821 148.816  0.00  0.00    +0.178 C 
ATOM     28  C   LIG    1      155.782 159.795 147.724  0.00  0.00    +0.171 C 
ATOM     29  C   LIG    1      155.432 158.389 148.196  0.00  0.00    +0.197 C 
ATOM     36  O   LIG    1      154.059 158.313 148.574  0.00  0.00    -0.346 OA
BRANCH  28  30
ATOM     30  O   LIG    1      157.153 159.868 147.359  0.00  0.00    -0.387 OA
ATOM     31  H   LIG    1      157.417 158.992 147.028  0.00  0.00    +0.210 HD
ENDBRANCH  28  30
BRANCH  27  32
ATOM     32  O   LIG    1      156.381 160.632 149.904  0.00  0.00    -0.386 OA
ATOM     33  H   LIG    1      156.858 161.469 150.038  0.00  0.00    +0.210 HD
ENDBRANCH  27  32
BRANCH  26  34
ATOM     34  O   LIG    1      153.137 161.089 148.294  0.00  0.00    -0.384 OA
ATOM     35  H   LIG    1      152.237 160.826 148.548  0.00  0.00    +0.210 HD
ENDBRANCH  26  34
ENDBRANCH  24  25
ENDBRANCH  23  24
ENDBRANCH  22  23
TORSDOF 13
ENDMDL
MODEL 4
REMARK VINA RESULT:      -8.0      4.567      7.907
REMARK  Name = 9823887
REMARK                            x       y       z     vdW  Elec       q    Type
REMARK                         _______ _______ _______ _____ _____    ______ ____
ROOT
ATOM      1  O   LIG    1      152.727 149.652 146.437  0.00  0.00    -0.341 OA
ATOM      2  C   LIG    1      153.669 148.924 145.652  0.00  0.00    +0.282 C 
ATOM      3  C   LIG    1      153.806 149.549 144.263  0.00  0.00    +0.201 C 
ATOM      4  C   LIG    1      154.137 151.038 144.354  0.00  0.00    +0.179 C 
ATOM      5  C   LIG    1      153.204 151.755 145.329  0.00  0.00    +0.177 C 
ATOM     22  C   LIG    1      153.129 151.004 146.661  0.00  0.00    +0.178 C 
ENDROOT
BRANCH   5   6
ATOM      6  O   LIG    1      153.686 153.076 145.559  0.00  0.00    -0.386 OA
ATOM      7  H   LIG    1      153.259 153.667 144.915  0.00  0.00    +0.210 HD
ENDBRANCH   5   6
BRANCH   4   8
ATOM      8  O   LIG    1      153.979 151.640 143.068  0.00  0.00    -0.386 OA
ATOM      9  H   LIG    1      154.854 151.660 142.646  0.00  0.00    +0.210 HD
ENDBRANCH   4   8
BRANCH   3  10
ATOM     10  O   LIG    1      154.853 148.872 143.570  0.00  0.00    -0.384 OA
ATOM     11  H   LIG    1      154.503 148.571 142.714  0.00  0.00    +0.210 HD
ENDBRANCH   3  10
BRANCH   2  12
ATOM     12  O   LIG    1      153.222 147.579 145.487  0.00  0.00    -0.345 OA
BRANCH  12  13
ATOM     13  C   LIG    1      151.808 147.513 145.390  0.00  0.00    +0.190 C 
BRANCH  13  14
ATOM     14  C   LIG    1      151.443 146.477 144.376  0.00  0.00    +0.001 C 
ATOM     15  C   LIG    1      152.282 145.508 143.977  0.00  0.00    +0.006 C 
BRANCH  15  16
ATOM     16  C   LIG    1      151.962 144.459 142.994  0.00  0.00    -0.025 A 
ATOM     17  C   LIG    1      152.489 143.188 143.160  0.00  0.00    +0.008 A 
ATOM     18  C   LIG    1      152.186 142.196 142.228  0.00  0.00    +0.001 A 
ATOM     19  C   LIG    1      151.360 142.486 141.143  0.00  0.00    +0.000 A 
ATOM     20  C   LIG    1      150.836 143.770 140.988  0.00  0.00    +0.001 A 
ATOM     21  C   LIG    1      151.140 144.763 141.920  0.00  0.00    +0.008 A 
ENDBRANCH  15  16
ENDBRANCH  13  14
ENDBRANCH  12  13
ENDBRANCH   2  12
BRANCH  22  23
ATOM     23  C   LIG    1      152.115 151.635 147.610  0.00  0.00    +0.197 C 
BRANCH  23  24
ATOM     24  O   LIG    1      152.808 152.469 148.521  0.00  0.00    -0.346 OA
BRANCH  24  25
ATOM     25  C   LIG    1      151.913 153.219 149.336  0.00  0.00    +0.281 C 
ATOM     26  C   LIG    1      151.494 152.384 150.556  0.00  0.00    +0.201 C 
ATOM     27  C   LIG    1      152.616 152.276 151.594  0.00  0.00    +0.178 C 
ATOM     28  C   LIG    1      153.193 153.661 151.892  0.00  0.00    +0.171 C 
ATOM     29  C   LIG    1      153.590 154.367 150.601  0.00  0.00    +0.197 C 
ATOM     36  O   LIG    1      152.470 154.479 149.726  0.00  0.00    -0.346 OA
BRANCH  28  30
ATOM     30  O   LIG    1      154.315 153.540 152.756  0.00  0.00    -0.387 OA
ATOM     31  H   LIG    1      154.838 152.778 152.454  0.00  0.00    +0.210 HD
ENDBRANCH  28  30
BRANCH  27  32
ATOM     32  O   LIG    1      153.651 151.432 151.091  0.00  0.00    -0.386 OA
ATOM     33  H   LIG    1      154.184 151.139 151.850  0.00  0.00    +0.210 HD
ENDBRANCH  27  32
BRANCH  26  34
ATOM     34  O   LIG    1      150.360 153.012 151.151  0.00  0.00    -0.384 OA
ATOM     35  H   LIG    1      150.654 153.831 151.584  0.00  0.00    +0.210 HD
ENDBRANCH  26  34
ENDBRANCH  24  25
ENDBRANCH  23  24
ENDBRANCH  22  23
TORSDOF 13
ENDMDL
MODEL 5
REMARK VINA RESULT:      -8.0      8.701     11.568
REMARK  Name = 9823887
REMARK                            x       y       z     vdW  Elec       q    Type
REMARK                         _______ _______ _______ _____ _____    ______ ____
ROOT
ATOM      1  O   LIG    1      149.336 148.600 142.045  0.00  0.00    -0.341 OA
ATOM      2  C   LIG    1      148.142 147.822 142.083  0.00  0.00    +0.282 C 
ATOM      3  C   LIG    1      147.889 147.298 143.497  0.00  0.00    +0.201 C 
ATOM      4  C   LIG    1      147.889 148.434 144.520  0.00  0.00    +0.179 C 
ATOM      5  C   LIG    1      149.107 149.339 144.342  0.00  0.00    +0.177 C 
ATOM     22  C   LIG    1      149.263 149.758 142.878  0.00  0.00    +0.178 C 
ENDROOT
BRANCH   5   6
ATOM      6  O   LIG    1      148.952 150.503 145.151  0.00  0.00    -0.386 OA
ATOM      7  H   LIG    1      148.104 150.429 145.623  0.00  0.00    +0.210 HD
ENDBRANCH   5   6
BRANCH   4   8
ATOM      8  O   LIG    1      147.934 147.886 145.839  0.00  0.00    -0.386 OA
ATOM      9  H   LIG    1      147.344 147.114 145.854  0.00  0.00    +0.210 HD
ENDBRANCH   4   8
BRANCH   3  10
ATOM     10  O   LIG    1      146.620 146.646 143.512  0.00  0.00    -0.384 OA
ATOM     11  H   LIG    1      145.985 147.232 143.956  0.00  0.00    +0.210 HD
ENDBRANCH   3  10
BRANCH   2  12
ATOM     12  O   LIG    1      148.270 146.699 141.213  0.00  0.00    -0.345 OA
BRANCH  12  13
ATOM     13  C   LIG    1      149.393 146.833 140.357  0.00  0.00    +0.190 C 
BRANCH  13  14
ATOM     14  C   LIG    1      150.243 145.610 140.481  0.00  0.00    +0.001 C 
ATOM     15  C   LIG    1      150.494 145.002 141.651  0.00  0.00    +0.006 C 
BRANCH  15  16
ATOM     16  C   LIG    1      151.312 143.789 141.820  0.00  0.00    -0.025 A 
ATOM     17  C   LIG    1      152.051 143.623 142.980  0.00  0.00    +0.008 A 
ATOM     18  C   LIG    1      152.825 142.474 143.139  0.00  0.00    +0.001 A 
ATOM     19  C   LIG    1      152.851 141.505 142.136  0.00  0.00    +0.000 A 
ATOM     20  C   LIG    1      152.102 141.685 140.973  0.00  0.00    +0.001 A 
ATOM     21  C   LIG    1      151.328 142.835 140.814  0.00  0.00    +0.008 A 
ENDBRANCH  15  16
ENDBRANCH  13  14
ENDBRANCH  12  13
ENDBRANCH   2  12
BRANCH  22  23
ATOM     23  C   LIG    1      150.538 150.567 142.655  0.00  0.00    +0.197 C 
BRANCH  23  24
ATOM     24  O   LIG    1      151.473 150.220 143.659  0.00  0.00    -0.346 OA
BRANCH  24  25
ATOM     25  C   LIG    1      152.674 149.694 143.103  0.00  0.00    +0.281 C 
ATOM     26  C   LIG    1      153.814 149.798 144.128  0.00  0.00    +0.201 C 
ATOM     27  C   LIG    1      153.679 148.761 145.248  0.00  0.00    +0.178 C 
ATOM     28  C   LIG    1      153.432 147.373 144.654  0.00  0.00    +0.171 C 
ATOM     29  C   LIG    1      152.264 147.406 143.678  0.00  0.00    +0.197 C 
ATOM     36  O   LIG    1      152.505 148.350 142.637  0.00  0.00    -0.346 OA
BRANCH  28  30
ATOM     30  O   LIG    1      153.182 146.440 145.696  0.00  0.00    -0.387 OA
ATOM     31  H   LIG    1      152.223 146.279 145.722  0.00  0.00    +0.210 HD
ENDBRANCH  28  30
BRANCH  27  32
ATOM     32  O   LIG    1      152.585 149.112 146.094  0.00  0.00    -0.386 OA
ATOM     33  H   LIG    1      152.954 149.529 146.892  0.00  0.00    +0.210 HD
ENDBRANCH  27  32
BRANCH  26  34
ATOM     34  O   LIG    1      155.045 149.591 143.440  0.00  0.00    -0.384 OA
ATOM     35  H   LIG    1      155.775 149.798 144.047  0.00  0.00    +0.210 HD
ENDBRANCH  26  34
ENDBRANCH  24  25
ENDBRANCH  23  24
ENDBRANCH  22  23
TORSDOF 13
ENDMDL
MODEL 6
REMARK VINA RESULT:      -8.0      3.550      6.200
REMARK  Name = 9823887
REMARK                            x       y       z     vdW  Elec       q    Type
REMARK                         _______ _______ _______ _____ _____    ______ ____
ROOT
ATOM      1  O   LIG    1      150.849 152.552 147.472  0.00  0.00    -0.341 OA
ATOM      2  C   LIG    1      150.733 151.181 147.097  0.00  0.00    +0.282 C 
ATOM      3  C   LIG    1      151.946 150.746 146.274  0.00  0.00    +0.201 C 
ATOM      4  C   LIG    1      153.253 151.051 147.005  0.00  0.00    +0.179 C 
ATOM      5  C   LIG    1      153.272 152.486 147.531  0.00  0.00    +0.177 C 
ATOM     22  C   LIG    1      151.986 152.799 148.300  0.00  0.00    +0.178 C 
ENDROOT
BRANCH   5   6
ATOM      6  O   LIG    1      154.392 152.657 148.395  0.00  0.00    -0.386 OA
ATOM      7  H   LIG    1      154.963 153.346 148.012  0.00  0.00    +0.210 HD
ENDBRANCH   5   6
BRANCH   4   8
ATOM      8  O   LIG    1      154.350 150.897 146.103  0.00  0.00    -0.386 OA
ATOM      9  H   LIG    1      154.787 151.762 146.026  0.00  0.00    +0.210 HD
ENDBRANCH   4   8
BRANCH   3  10
ATOM     10  O   LIG    1      151.849 149.341 146.043  0.00  0.00    -0.384 OA
ATOM     11  H   LIG    1      152.537 149.092 145.404  0.00  0.00    +0.210 HD
ENDBRANCH   3  10
BRANCH   2  12
ATOM     12  O   LIG    1      149.568 150.998 146.295  0.00  0.00    -0.345 OA
BRANCH  12  13
ATOM     13  C   LIG    1      149.525 151.928 145.225  0.00  0.00    +0.190 C 
BRANCH  13  14
ATOM     14  C   LIG    1      149.033 151.229 143.998  0.00  0.00    +0.001 C 
ATOM     15  C   LIG    1      148.250 150.140 144.035  0.00  0.00    +0.006 C 
BRANCH  15  16
ATOM     16  C   LIG    1      147.730 149.428 142.855  0.00  0.00    -0.025 A 
ATOM     17  C   LIG    1      146.422 149.645 142.451  0.00  0.00    +0.008 A 
ATOM     18  C   LIG    1      145.931 148.971 141.334  0.00  0.00    +0.001 A 
ATOM     19  C   LIG    1      146.753 148.087 140.635  0.00  0.00    +0.000 A 
ATOM     20  C   LIG    1      148.067 147.878 141.052  0.00  0.00    +0.001 A 
ATOM     21  C   LIG    1      148.559 148.553 142.170  0.00  0.00    +0.008 A 
ENDBRANCH  15  16
ENDBRANCH  13  14
ENDBRANCH  12  13
ENDBRANCH   2  12
BRANCH  22  23
ATOM     23  C   LIG    1      151.930 154.261 148.735  0.00  0.00    +0.197 C 
BRANCH  23  24
ATOM     24  O   LIG    1      153.019 154.514 149.604  0.00  0.00    -0.346 OA
BRANCH  24  25
ATOM     25  C   LIG    1      152.616 154.520 150.969  0.00  0.00    +0.281 C 
ATOM     26  C   LIG    1      153.436 153.490 151.761  0.00  0.00    +0.201 C 
ATOM     27  C   LIG    1      154.872 153.964 152.008  0.00  0.00    +0.178 C 
ATOM     28  C   LIG    1      154.868 155.390 152.561  0.00  0.00    +0.171 C 
ATOM     29  C   LIG    1      154.043 156.309 151.671  0.00  0.00    +0.197 C 
ATOM     36  O   LIG    1      152.707 155.826 151.550  0.00  0.00    -0.346 OA
BRANCH  28  30
ATOM     30  O   LIG    1      156.201 155.869 152.669  0.00  0.00    -0.387 OA
ATOM     31  H   LIG    1      156.436 156.277 151.817  0.00  0.00    +0.210 HD
ENDBRANCH  28  30
BRANCH  27  32
ATOM     32  O   LIG    1      155.602 153.936 150.783  0.00  0.00    -0.386 OA
ATOM     33  H   LIG    1      156.187 154.712 150.773  0.00  0.00    +0.210 HD
ENDBRANCH  27  32
BRANCH  26  34
ATOM     34  O   LIG    1      152.786 153.278 153.012  0.00  0.00    -0.384 OA
ATOM     35  H   LIG    1      152.507 152.349 153.061  0.00  0.00    +0.210 HD
ENDBRANCH  26  34
ENDBRANCH  24  25
ENDBRANCH  23  24
ENDBRANCH  22  23
TORSDOF 13
ENDMDL
MODEL 7
REMARK VINA RESULT:      -7.9      3.638      6.704
REMARK  Name = 9823887
REMARK                            x       y       z     vdW  Elec       q    Type
REMARK                         _______ _______ _______ _____ _____    ______ ____
ROOT
ATOM      1  O   LIG    1      153.185 156.339 150.804  0.00  0.00    -0.341 OA
ATOM      2  C   LIG    1      153.292 157.683 150.340  0.00  0.00    +0.282 C 
ATOM      3  C   LIG    1      153.783 158.599 151.461  0.00  0.00    +0.201 C 
ATOM      4  C   LIG    1      155.082 158.080 152.076  0.00  0.00    +0.179 C 
ATOM      5  C   LIG    1      154.980 156.594 152.414  0.00  0.00    +0.177 C 
ATOM     22  C   LIG    1      154.441 155.801 151.220  0.00  0.00    +0.178 C 
ENDROOT
BRANCH   5   6
ATOM      6  O   LIG    1      156.270 156.099 152.765  0.00  0.00    -0.386 OA
ATOM      7  H   LIG    1      156.179 155.579 153.582  0.00  0.00    +0.210 HD
ENDBRANCH   5   6
BRANCH   4   8
ATOM      8  O   LIG    1      155.353 158.791 153.285  0.00  0.00    -0.386 OA
ATOM      9  H   LIG    1      155.718 159.657 153.038  0.00  0.00    +0.210 HD
ENDBRANCH   4   8
BRANCH   3  10
ATOM     10  O   LIG    1      154.003 159.898 150.912  0.00  0.00    -0.384 OA
ATOM     11  H   LIG    1      153.138 160.315 150.767  0.00  0.00    +0.210 HD
ENDBRANCH   3  10
BRANCH   2  12
ATOM     12  O   LIG    1      152.013 158.150 149.917  0.00  0.00    -0.345 OA
BRANCH  12  13
ATOM     13  C   LIG    1      151.062 158.075 150.967  0.00  0.00    +0.190 C 
BRANCH  13  14
ATOM     14  C   LIG    1      149.694 157.978 150.373  0.00  0.00    +0.001 C 
ATOM     15  C   LIG    1      148.831 156.993 150.667  0.00  0.00    +0.006 C 
BRANCH  15  16
ATOM     16  C   LIG    1      147.470 156.864 150.119  0.00  0.00    -0.025 A 
ATOM     17  C   LIG    1      146.935 155.602 149.919  0.00  0.00    +0.008 A 
ATOM     18  C   LIG    1      145.646 155.480 149.400  0.00  0.00    +0.001 A 
ATOM     19  C   LIG    1      144.910 156.622 149.085  0.00  0.00    +0.000 A 
ATOM     20  C   LIG    1      145.461 157.886 149.291  0.00  0.00    +0.001 A 
ATOM     21  C   LIG    1      146.750 158.008 149.811  0.00  0.00    +0.008 A 
ENDBRANCH  15  16
ENDBRANCH  13  14
ENDBRANCH  12  13
ENDBRANCH   2  12
BRANCH  22  23
ATOM     23  C   LIG    1      154.220 154.332 151.571  0.00  0.00    +0.197 C 
BRANCH  23  24
ATOM     24  O   LIG    1      153.905 153.628 150.383  0.00  0.00    -0.346 OA
BRANCH  24  25
ATOM     25  C   LIG    1      152.900 152.644 150.604  0.00  0.00    +0.281 C 
ATOM     26  C   LIG    1      151.530 153.321 150.763  0.00  0.00    +0.201 C 
ATOM     27  C   LIG    1      150.979 153.827 149.426  0.00  0.00    +0.178 C 
ATOM     28  C   LIG    1      151.065 152.725 148.369  0.00  0.00    +0.171 C 
ATOM     29  C   LIG    1      152.478 152.159 148.298  0.00  0.00    +0.197 C 
ATOM     36  O   LIG    1      152.881 151.654 149.569  0.00  0.00    -0.346 OA
BRANCH  28  30
ATOM     30  O   LIG    1      150.672 153.237 147.104  0.00  0.00    -0.387 OA
ATOM     31  H   LIG    1      151.353 153.871 146.819  0.00  0.00    +0.210 HD
ENDBRANCH  28  30
BRANCH  27  32
ATOM     32  O   LIG    1      151.737 154.956 148.993  0.00  0.00    -0.386 OA
ATOM     33  H   LIG    1      151.452 155.720 149.523  0.00  0.00    +0.210 HD
ENDBRANCH  27  32
BRANCH  26  34
ATOM     34  O   LIG    1      150.627 152.366 151.315  0.00  0.00    -0.384 OA
ATOM     35  H   LIG    1      150.035 152.824 151.934  0.00  0.00    +0.210 HD
ENDBRANCH  26  34
ENDBRANCH  24  25
ENDBRANCH  23  24
ENDBRANCH  22  23
TORSDOF 13
ENDMDL
MODEL 8
REMARK VINA RESULT:      -7.9      6.901     10.966
REMARK  Name = 9823887
REMARK                            x       y       z     vdW  Elec       q    Type
REMARK                         _______ _______ _______ _____ _____    ______ ____
ROOT
ATOM      1  O   LIG    1      149.160 148.652 142.173  0.00  0.00    -0.341 OA
ATOM      2  C   LIG    1      148.050 147.760 142.090  0.00  0.00    +0.282 C 
ATOM      3  C   LIG    1      147.608 147.324 143.487  0.00  0.00    +0.201 C 
ATOM      4  C   LIG    1      147.334 148.529 144.386  0.00  0.00    +0.179 C 
ATOM      5  C   LIG    1      148.479 149.539 144.324  0.00  0.00    +0.177 C 
ATOM     22  C   LIG    1      148.845 149.857 142.872  0.00  0.00    +0.178 C 
ENDROOT
BRANCH   5   6
ATOM      6  O   LIG    1      148.087 150.739 144.985  0.00  0.00    -0.386 OA
ATOM      7  H   LIG    1      148.673 150.863 145.752  0.00  0.00    +0.210 HD
ENDBRANCH   5   6
BRANCH   4   8
ATOM      8  O   LIG    1      147.203 148.093 145.740  0.00  0.00    -0.386 OA
ATOM      9  H   LIG    1      147.760 147.303 145.846  0.00  0.00    +0.210 HD
ENDBRANCH   4   8
BRANCH   3  10
ATOM     10  O   LIG    1      146.417 146.548 143.357  0.00  0.00    -0.384 OA
ATOM     11  H   LIG    1      146.577 145.860 142.690  0.00  0.00    +0.210 HD
ENDBRANCH   3  10
BRANCH   2  12
ATOM     12  O   LIG    1      148.423 146.593 141.361  0.00  0.00    -0.345 OA
BRANCH  12  13
ATOM     13  C   LIG    1      149.553 146.836 140.538  0.00  0.00    +0.190 C 
BRANCH  13  14
ATOM     14  C   LIG    1      150.510 145.697 140.687  0.00  0.00    +0.001 C 
ATOM     15  C   LIG    1      150.385 144.746 141.625  0.00  0.00    +0.006 C 
BRANCH  15  16
ATOM     16  C   LIG    1      151.294 143.600 141.800  0.00  0.00    -0.025 A 
ATOM     17  C   LIG    1      152.040 143.496 142.963  0.00  0.00    +0.008 A 
ATOM     18  C   LIG    1      152.900 142.411 143.127  0.00  0.00    +0.001 A 
ATOM     19  C   LIG    1      153.005 141.445 142.127  0.00  0.00    +0.000 A 
ATOM     20  C   LIG    1      152.248 141.562 140.962  0.00  0.00    +0.001 A 
ATOM     21  C   LIG    1      151.387 142.648 140.797  0.00  0.00    +0.008 A 
ENDBRANCH  15  16
ENDBRANCH  13  14
ENDBRANCH  12  13
ENDBRANCH   2  12
BRANCH  22  23
ATOM     23  C   LIG    1      150.062 150.773 142.783  0.00  0.00    +0.197 C 
BRANCH  23  24
ATOM     24  O   LIG    1      150.924 150.483 143.867  0.00  0.00    -0.346 OA
BRANCH  24  25
ATOM     25  C   LIG    1      152.235 150.147 143.425  0.00  0.00    +0.281 C 
ATOM     26  C   LIG    1      153.053 151.427 143.194  0.00  0.00    +0.201 C 
ATOM     27  C   LIG    1      153.483 152.081 144.512  0.00  0.00    +0.178 C 
ATOM     28  C   LIG    1      154.112 151.038 145.437  0.00  0.00    +0.171 C 
ATOM     29  C   LIG    1      153.189 149.836 145.598  0.00  0.00    +0.197 C 
ATOM     36  O   LIG    1      152.895 149.255 144.329  0.00  0.00    -0.346 OA
BRANCH  28  30
ATOM     30  O   LIG    1      154.392 151.621 146.702  0.00  0.00    -0.387 OA
ATOM     31  H   LIG    1      155.247 151.268 147.005  0.00  0.00    +0.210 HD
ENDBRANCH  28  30
BRANCH  27  32
ATOM     32  O   LIG    1      152.346 152.655 145.154  0.00  0.00    -0.386 OA
ATOM     33  H   LIG    1      152.643 153.019 146.005  0.00  0.00    +0.210 HD
ENDBRANCH  27  32
BRANCH  26  34
ATOM     34  O   LIG    1      154.211 151.080 142.439  0.00  0.00    -0.384 OA
ATOM     35  H   LIG    1      153.937 150.516 141.697  0.00  0.00    +0.210 HD
ENDBRANCH  26  34
ENDBRANCH  24  25
ENDBRANCH  23  24
ENDBRANCH  22  23
TORSDOF 13
ENDMDL
MODEL 9
REMARK VINA RESULT:      -7.8      3.688      5.427
REMARK  Name = 9823887
REMARK                            x       y       z     vdW  Elec       q    Type
REMARK                         _______ _______ _______ _____ _____    ______ ____
ROOT
ATOM      1  O   LIG    1      153.245 156.388 150.895  0.00  0.00    -0.341 OA
ATOM      2  C   LIG    1      152.854 155.245 151.653  0.00  0.00    +0.282 C 
ATOM      3  C   LIG    1      154.083 154.531 152.217  0.00  0.00    +0.201 C 
ATOM      4  C   LIG    1      154.970 155.491 153.008  0.00  0.00    +0.179 C 
ATOM      5  C   LIG    1      155.236 156.774 152.224  0.00  0.00    +0.177 C 
ATOM     22  C   LIG    1      153.929 157.362 151.685  0.00  0.00    +0.178 C 
ENDROOT
BRANCH   5   6
ATOM      6  O   LIG    1      155.865 157.727 153.076  0.00  0.00    -0.386 OA
ATOM      7  H   LIG    1      155.655 157.491 153.996  0.00  0.00    +0.210 HD
ENDBRANCH   5   6
BRANCH   4   8
ATOM      8  O   LIG    1      156.228 154.867 153.273  0.00  0.00    -0.386 OA
ATOM      9  H   LIG    1      156.063 154.123 153.877  0.00  0.00    +0.210 HD
ENDBRANCH   4   8
BRANCH   3  10
ATOM     10  O   LIG    1      153.635 153.482 153.075  0.00  0.00    -0.384 OA
ATOM     11  H   LIG    1      152.986 152.949 152.586  0.00  0.00    +0.210 HD
ENDBRANCH   3  10
BRANCH   2  12
ATOM     12  O   LIG    1      152.157 154.326 150.814  0.00  0.00    -0.345 OA
BRANCH  12  13
ATOM     13  C   LIG    1      150.865 154.039 151.325  0.00  0.00    +0.190 C 
BRANCH  13  14
ATOM     14  C   LIG    1      149.888 155.006 150.736  0.00  0.00    +0.001 C 
ATOM     15  C   LIG    1      148.560 154.907 150.905  0.00  0.00    +0.006 C 
BRANCH  15  16
ATOM     16  C   LIG    1      147.563 155.842 150.357  0.00  0.00    -0.025 A 
ATOM     17  C   LIG    1      147.828 157.202 150.368  0.00  0.00    +0.008 A 
ATOM     18  C   LIG    1      146.884 158.087 149.849  0.00  0.00    +0.001 A 
ATOM     19  C   LIG    1      145.685 157.601 149.327  0.00  0.00    +0.000 A 
ATOM     20  C   LIG    1      145.432 156.230 149.322  0.00  0.00    +0.001 A 
ATOM     21  C   LIG    1      146.377 155.345 149.841  0.00  0.00    +0.008 A 
ENDBRANCH  15  16
ENDBRANCH  13  14
ENDBRANCH  12  13
ENDBRANCH   2  12
BRANCH  22  23
ATOM     23  C   LIG    1      154.179 158.580 150.800  0.00  0.00    +0.197 C 
BRANCH  23  24
ATOM     24  O   LIG    1      153.325 159.627 151.224  0.00  0.00    -0.346 OA
BRANCH  24  25
ATOM     25  C   LIG    1      152.428 160.027 150.194  0.00  0.00    +0.281 C 
ATOM     26  C   LIG    1      151.000 159.578 150.540  0.00  0.00    +0.201 C 
ATOM     27  C   LIG    1      150.378 160.436 151.647  0.00  0.00    +0.178 C 
ATOM     28  C   LIG    1      150.557 161.920 151.325  0.00  0.00    +0.171 C 
ATOM     29  C   LIG    1      152.017 162.233 151.027  0.00  0.00    +0.197 C 
ATOM     36  O   LIG    1      152.491 161.436 149.944  0.00  0.00    -0.346 OA
BRANCH  28  30
ATOM     30  O   LIG    1      150.093 162.709 152.412  0.00  0.00    -0.387 OA
ATOM     31  H   LIG    1      149.138 162.846 152.289  0.00  0.00    +0.210 HD
ENDBRANCH  28  30
BRANCH  27  32
ATOM     32  O   LIG    1      151.013 160.144 152.891  0.00  0.00    -0.386 OA
ATOM     33  H   LIG    1      150.648 159.302 153.216  0.00  0.00    +0.210 HD
ENDBRANCH  27  32
BRANCH  26  34
ATOM     34  O   LIG    1      150.207 159.681 149.360  0.00  0.00    -0.384 OA
ATOM     35  H   LIG    1      150.419 158.931 148.780  0.00  0.00    +0.210 HD
ENDBRANCH  26  34
ENDBRANCH  24  25
ENDBRANCH  23  24
ENDBRANCH  22  23
TORSDOF 13
ENDMDL
MODEL 10
REMARK VINA RESULT:      -7.8      3.535      4.995
REMARK  Name = 9823887
REMARK                            x       y       z     vdW  Elec       q    Type
REMARK                         _______ _______ _______ _____ _____    ______ ____
ROOT
ATOM      1  O   LIG    1      153.188 156.653 151.887  0.00  0.00    -0.341 OA
ATOM      2  C   LIG    1      152.457 155.488 152.262  0.00  0.00    +0.282 C 
ATOM      3  C   LIG    1      153.226 154.225 151.873  0.00  0.00    +0.201 C 
ATOM      4  C   LIG    1      154.646 154.241 152.438  0.00  0.00    +0.179 C 
ATOM      5  C   LIG    1      155.341 155.571 152.151  0.00  0.00    +0.177 C 
ATOM     22  C   LIG    1      154.449 156.748 152.552  0.00  0.00    +0.178 C 
ENDROOT
BRANCH   5   6
ATOM      6  O   LIG    1      156.562 155.634 152.884  0.00  0.00    -0.386 OA
ATOM      7  H   LIG    1      156.413 155.216 153.750  0.00  0.00    +0.210 HD
ENDBRANCH   5   6
BRANCH   4   8
ATOM      8  O   LIG    1      155.413 153.202 151.827  0.00  0.00    -0.386 OA
ATOM      9  H   LIG    1      156.221 153.607 151.470  0.00  0.00    +0.210 HD
ENDBRANCH   4   8
BRANCH   3  10
ATOM     10  O   LIG    1      152.523 153.096 152.390  0.00  0.00    -0.384 OA
ATOM     11  H   LIG    1      152.503 152.411 151.700  0.00  0.00    +0.210 HD
ENDBRANCH   3  10
BRANCH   2  12
ATOM     12  O   LIG    1      151.203 155.466 151.585  0.00  0.00    -0.345 OA
BRANCH  12  13
ATOM     13  C   LIG    1      151.294 156.076 150.308  0.00  0.00    +0.190 C 
BRANCH  13  14
ATOM     14  C   LIG    1      149.913 156.288 149.775  0.00  0.00    +0.001 C 
ATOM     15  C   LIG    1      148.830 156.404 150.560  0.00  0.00    +0.006 C 
BRANCH  15  16
ATOM     16  C   LIG    1      147.455 156.628 150.081  0.00  0.00    -0.025 A 
ATOM     17  C   LIG    1      146.629 155.539 149.856  0.00  0.00    +0.008 A 
ATOM     18  C   LIG    1      145.327 155.751 149.403  0.00  0.00    +0.001 A 
ATOM     19  C   LIG    1      144.869 157.049 149.180  0.00  0.00    +0.000 A 
ATOM     20  C   LIG    1      145.712 158.136 149.411  0.00  0.00    +0.001 A 
ATOM     21  C   LIG    1      147.014 157.924 149.864  0.00  0.00    +0.008 A 
ENDBRANCH  15  16
ENDBRANCH  13  14
ENDBRANCH  12  13
ENDBRANCH   2  12
BRANCH  22  23
ATOM     23  C   LIG    1      155.072 158.087 152.168  0.00  0.00    +0.197 C 
BRANCH  23  24
ATOM     24  O   LIG    1      154.643 158.426 150.862  0.00  0.00    -0.346 OA
BRANCH  24  25
ATOM     25  C   LIG    1      155.695 159.000 150.093  0.00  0.00    +0.281 C 
ATOM     26  C   LIG    1      155.802 158.285 148.737  0.00  0.00    +0.201 C 
ATOM     27  C   LIG    1      154.666 158.677 147.787  0.00  0.00    +0.178 C 
ATOM     28  C   LIG    1      154.524 160.199 147.735  0.00  0.00    +0.171 C 
ATOM     29  C   LIG    1      154.402 160.775 149.140  0.00  0.00    +0.197 C 
ATOM     36  O   LIG    1      155.532 160.413 149.931  0.00  0.00    -0.346 OA
BRANCH  28  30
ATOM     30  O   LIG    1      153.391 160.552 146.954  0.00  0.00    -0.387 OA
ATOM     31  H   LIG    1      152.909 159.732 146.749  0.00  0.00    +0.210 HD
ENDBRANCH  28  30
BRANCH  27  32
ATOM     32  O   LIG    1      153.441 158.105 148.245  0.00  0.00    -0.386 OA
ATOM     33  H   LIG    1      153.250 158.485 149.120  0.00  0.00    +0.210 HD
ENDBRANCH  27  32
BRANCH  26  34
ATOM     34  O   LIG    1      157.052 158.638 148.150  0.00  0.00    -0.384 OA
ATOM     35  H   LIG    1      157.647 158.945 148.854  0.00  0.00    +0.210 HD
ENDBRANCH  26  34
ENDBRANCH  24  25
ENDBRANCH  23  24
ENDBRANCH  22  23
TORSDOF 13
ENDMDL
