MODEL 1
REMARK VINA RESULT:      -6.7      0.000      0.000
REMARK  Name = 5281702
REMARK                            x       y       z     vdW  Elec       q    Type
REMARK                         _______ _______ _______ _____ _____    ______ ____
ROOT
ATOM      1  O   LIG    1      178.779 177.841 169.741  0.00  0.00    -0.454 OA
ATOM      2  C   LIG    1      177.423 177.960 169.575  0.00  0.00    +0.146 A 
ATOM      3  C   LIG    1      176.935 177.921 168.269  0.00  0.00    +0.092 A 
ATOM      4  C   LIG    1      175.564 178.037 168.037  0.00  0.00    +0.124 A 
ATOM      5  C   LIG    1      174.683 178.189 169.108  0.00  0.00    +0.091 A 
ATOM      6  C   LIG    1      175.168 178.227 170.416  0.00  0.00    +0.135 A 
ATOM     11  C   LIG    1      176.541 178.112 170.644  0.00  0.00    +0.105 A 
ATOM     12  C   LIG    1      177.083 178.147 172.011  0.00  0.00    +0.197 A 
ATOM     13  C   LIG    1      178.549 178.017 172.136  0.00  0.00    +0.098 A 
ATOM     14  O   LIG    1      176.367 178.275 172.995  0.00  0.00    -0.287 OA
ATOM     15  C   LIG    1      179.295 177.882 171.028  0.00  0.00    +0.139 A 
ENDROOT
BRANCH  15  16
ATOM     16  C   LIG    1      180.763 177.739 171.092  0.00  0.00    +0.025 A 
ATOM     17  C   LIG    1      181.376 176.571 170.633  0.00  0.00    +0.061 A 
ATOM     18  C   LIG    1      182.763 176.437 170.695  0.00  0.00    +0.166 A 
ATOM     19  C   LIG    1      183.541 177.470 171.216  0.00  0.00    +0.201 A 
ATOM     20  C   LIG    1      182.933 178.638 171.676  0.00  0.00    +0.166 A 
ATOM     27  C   LIG    1      181.546 178.772 171.614  0.00  0.00    +0.061 A 
BRANCH  20  21
ATOM     21  O   LIG    1      183.681 179.654 172.188  0.00  0.00    -0.491 OA
ATOM     22  C   LIG    1      182.980 180.812 172.638  0.00  0.00    +0.277 C 
ENDBRANCH  20  21
BRANCH  19  23
ATOM     23  O   LIG    1      184.897 177.338 171.278  0.00  0.00    -0.501 OA
ATOM     24  H   LIG    1      185.221 177.826 172.055  0.00  0.00    +0.292 HD
ENDBRANCH  19  23
BRANCH  18  25
ATOM     25  O   LIG    1      183.346 175.291 170.243  0.00  0.00    -0.491 OA
ATOM     26  C   LIG    1      182.647 174.071 170.481  0.00  0.00    +0.277 C 
ENDBRANCH  18  25
ENDBRANCH  15  16
BRANCH   6   7
ATOM      7  O   LIG    1      174.266 178.377 171.426  0.00  0.00    -0.506 OA
ATOM      8  H   LIG    1      174.055 177.518 171.823  0.00  0.00    +0.292 HD
ENDBRANCH   6   7
BRANCH   4   9
ATOM      9  O   LIG    1      175.085 177.999 166.763  0.00  0.00    -0.507 OA
ATOM     10  H   LIG    1      174.306 177.417 166.735  0.00  0.00    +0.292 HD
ENDBRANCH   4   9
TORSDOF 6
ENDMDL
MODEL 2
REMARK VINA RESULT:      -6.6      0.940      2.703
REMARK  Name = 5281702
REMARK                            x       y       z     vdW  Elec       q    Type
REMARK                         _______ _______ _______ _____ _____    ______ ____
ROOT
ATOM      1  O   LIG    1      178.840 177.545 169.496  0.00  0.00    -0.454 OA
ATOM      2  C   LIG    1      177.493 177.800 169.436  0.00  0.00    +0.146 A 
ATOM      3  C   LIG    1      176.896 177.776 168.175  0.00  0.00    +0.092 A 
ATOM      4  C   LIG    1      175.530 178.028 168.051  0.00  0.00    +0.124 A 
ATOM      5  C   LIG    1      174.762 178.302 169.184  0.00  0.00    +0.091 A 
ATOM      6  C   LIG    1      175.357 178.325 170.446  0.00  0.00    +0.135 A 
ATOM     11  C   LIG    1      176.725 178.074 170.566  0.00  0.00    +0.105 A 
ATOM     12  C   LIG    1      177.380 178.091 171.883  0.00  0.00    +0.197 A 
ATOM     13  C   LIG    1      178.831 177.812 171.894  0.00  0.00    +0.098 A 
ATOM     14  O   LIG    1      176.766 178.320 172.916  0.00  0.00    -0.287 OA
ATOM     15  C   LIG    1      179.463 177.568 170.735  0.00  0.00    +0.139 A 
ENDROOT
BRANCH  15  16
ATOM     16  C   LIG    1      180.910 177.275 170.685  0.00  0.00    +0.025 A 
ATOM     17  C   LIG    1      181.837 178.319 170.655  0.00  0.00    +0.061 A 
ATOM     18  C   LIG    1      183.203 178.042 170.606  0.00  0.00    +0.166 A 
ATOM     19  C   LIG    1      183.646 176.719 170.587  0.00  0.00    +0.201 A 
ATOM     20  C   LIG    1      182.723 175.674 170.616  0.00  0.00    +0.166 A 
ATOM     27  C   LIG    1      181.357 175.951 170.665  0.00  0.00    +0.061 A 
BRANCH  20  21
ATOM     21  O   LIG    1      183.142 174.378 170.599  0.00  0.00    -0.491 OA
ATOM     22  C   LIG    1      182.181 173.392 170.226  0.00  0.00    +0.277 C 
ENDBRANCH  20  21
BRANCH  19  23
ATOM     23  O   LIG    1      184.981 176.448 170.538  0.00  0.00    -0.501 OA
ATOM     24  H   LIG    1      185.411 177.106 169.965  0.00  0.00    +0.292 HD
ENDBRANCH  19  23
BRANCH  18  25
ATOM     25  O   LIG    1      184.095 179.071 170.577  0.00  0.00    -0.491 OA
ATOM     26  C   LIG    1      183.728 180.225 169.823  0.00  0.00    +0.277 C 
ENDBRANCH  18  25
ENDBRANCH  15  16
BRANCH   6   7
ATOM      7  O   LIG    1      174.563 178.597 171.519  0.00  0.00    -0.506 OA
ATOM      8  H   LIG    1      173.629 178.596 171.259  0.00  0.00    +0.292 HD
ENDBRANCH   6   7
BRANCH   4   9
ATOM      9  O   LIG    1      174.944 178.005 166.822  0.00  0.00    -0.507 OA
ATOM     10  H   LIG    1      175.279 178.753 166.299  0.00  0.00    +0.292 HD
ENDBRANCH   4   9
TORSDOF 6
ENDMDL
MODEL 3
REMARK VINA RESULT:      -6.5      2.233      7.794
REMARK  Name = 5281702
REMARK                            x       y       z     vdW  Elec       q    Type
REMARK                         _______ _______ _______ _____ _____    ______ ____
ROOT
ATOM      1  O   LIG    1      179.594 177.315 170.598  0.00  0.00    -0.454 OA
ATOM      2  C   LIG    1      180.930 177.426 170.888  0.00  0.00    +0.146 A 
ATOM      3  C   LIG    1      181.322 178.498 171.690  0.00  0.00    +0.092 A 
ATOM      4  C   LIG    1      182.668 178.663 172.018  0.00  0.00    +0.124 A 
ATOM      5  C   LIG    1      183.619 177.757 171.548  0.00  0.00    +0.091 A 
ATOM      6  C   LIG    1      183.230 176.683 170.746  0.00  0.00    +0.135 A 
ATOM     11  C   LIG    1      181.882 176.522 170.419  0.00  0.00    +0.105 A 
ATOM     12  C   LIG    1      181.442 175.400 169.577  0.00  0.00    +0.197 A 
ATOM     13  C   LIG    1      179.994 175.326 169.292  0.00  0.00    +0.098 A 
ATOM     14  O   LIG    1      182.222 174.568 169.134  0.00  0.00    -0.287 OA
ATOM     15  C   LIG    1      179.175 176.262 169.798  0.00  0.00    +0.139 A 
ENDROOT
BRANCH  15  16
ATOM     16  C   LIG    1      177.719 176.235 169.554  0.00  0.00    +0.025 A 
ATOM     17  C   LIG    1      177.017 177.428 169.362  0.00  0.00    +0.061 A 
ATOM     18  C   LIG    1      175.642 177.402 169.134  0.00  0.00    +0.166 A 
ATOM     19  C   LIG    1      174.963 176.183 169.098  0.00  0.00    +0.201 A 
ATOM     20  C   LIG    1      175.661 174.991 169.290  0.00  0.00    +0.166 A 
ATOM     27  C   LIG    1      177.037 175.017 169.518  0.00  0.00    +0.061 A 
BRANCH  20  21
ATOM     21  O   LIG    1      175.011 173.794 169.257  0.00  0.00    -0.491 OA
ATOM     22  C   LIG    1      175.685 172.708 168.625  0.00  0.00    +0.277 C 
ENDBRANCH  20  21
BRANCH  19  23
ATOM     23  O   LIG    1      173.618 176.158 168.876  0.00  0.00    -0.501 OA
ATOM     24  H   LIG    1      173.231 175.431 169.395  0.00  0.00    +0.292 HD
ENDBRANCH  19  23
BRANCH  18  25
ATOM     25  O   LIG    1      174.971 178.573 168.948  0.00  0.00    -0.491 OA
ATOM     26  C   LIG    1      175.592 179.760 169.439  0.00  0.00    +0.277 C 
ENDBRANCH  18  25
ENDBRANCH  15  16
BRANCH   6   7
ATOM      7  O   LIG    1      184.199 175.828 170.313  0.00  0.00    -0.506 OA
ATOM      8  H   LIG    1      184.746 176.251 169.634  0.00  0.00    +0.292 HD
ENDBRANCH   6   7
BRANCH   4   9
ATOM      9  O   LIG    1      183.053 179.708 172.801  0.00  0.00    -0.507 OA
ATOM     10  H   LIG    1      182.950 180.534 172.297  0.00  0.00    +0.292 HD
ENDBRANCH   4   9
TORSDOF 6
ENDMDL
MODEL 4
REMARK VINA RESULT:      -6.5      7.620     11.255
REMARK  Name = 5281702
REMARK                            x       y       z     vdW  Elec       q    Type
REMARK                         _______ _______ _______ _____ _____    ______ ____
ROOT
ATOM      1  O   LIG    1      184.893 187.203 171.410  0.00  0.00    -0.454 OA
ATOM      2  C   LIG    1      184.901 188.081 170.356  0.00  0.00    +0.146 A 
ATOM      3  C   LIG    1      186.069 188.815 170.146  0.00  0.00    +0.092 A 
ATOM      4  C   LIG    1      186.136 189.723 169.089  0.00  0.00    +0.124 A 
ATOM      5  C   LIG    1      185.040 189.896 168.243  0.00  0.00    +0.091 A 
ATOM      6  C   LIG    1      183.870 189.162 168.450  0.00  0.00    +0.135 A 
ATOM     11  C   LIG    1      183.807 188.255 169.510  0.00  0.00    +0.105 A 
ATOM     12  C   LIG    1      182.589 187.466 169.753  0.00  0.00    +0.197 A 
ATOM     13  C   LIG    1      182.631 186.538 170.901  0.00  0.00    +0.098 A 
ATOM     14  O   LIG    1      181.594 187.566 169.048  0.00  0.00    -0.287 OA
ATOM     15  C   LIG    1      183.744 186.464 171.648  0.00  0.00    +0.139 A 
ENDROOT
BRANCH  15  16
ATOM     16  C   LIG    1      183.847 185.549 172.802  0.00  0.00    +0.025 A 
ATOM     17  C   LIG    1      184.992 185.552 173.601  0.00  0.00    +0.061 A 
ATOM     18  C   LIG    1      185.090 184.686 174.689  0.00  0.00    +0.166 A 
ATOM     19  C   LIG    1      184.041 183.813 174.983  0.00  0.00    +0.201 A 
ATOM     20  C   LIG    1      182.896 183.807 174.186  0.00  0.00    +0.166 A 
ATOM     27  C   LIG    1      182.799 184.673 173.098  0.00  0.00    +0.061 A 
BRANCH  20  21
ATOM     21  O   LIG    1      181.865 182.960 174.462  0.00  0.00    -0.491 OA
ATOM     22  C   LIG    1      180.598 183.276 173.890  0.00  0.00    +0.277 C 
ENDBRANCH  20  21
BRANCH  19  23
ATOM     23  O   LIG    1      184.137 182.966 176.046  0.00  0.00    -0.501 OA
ATOM     24  H   LIG    1      184.443 183.471 176.820  0.00  0.00    +0.292 HD
ENDBRANCH  19  23
BRANCH  18  25
ATOM     25  O   LIG    1      186.213 184.701 175.460  0.00  0.00    -0.491 OA
ATOM     26  C   LIG    1      187.358 184.019 174.949  0.00  0.00    +0.277 C 
ENDBRANCH  18  25
ENDBRANCH  15  16
BRANCH   6   7
ATOM      7  O   LIG    1      182.830 189.368 167.596  0.00  0.00    -0.506 OA
ATOM      8  H   LIG    1      182.177 188.656 167.678  0.00  0.00    +0.292 HD
ENDBRANCH   6   7
BRANCH   4   9
ATOM      9  O   LIG    1      187.274 190.441 168.882  0.00  0.00    -0.507 OA
ATOM     10  H   LIG    1      187.074 191.185 168.289  0.00  0.00    +0.292 HD
ENDBRANCH   4   9
TORSDOF 6
ENDMDL
MODEL 5
REMARK VINA RESULT:      -6.5      9.986     11.868
REMARK  Name = 5281702
REMARK                            x       y       z     vdW  Elec       q    Type
REMARK                         _______ _______ _______ _____ _____    ______ ____
ROOT
ATOM      1  O   LIG    1      187.287 183.675 171.171  0.00  0.00    -0.454 OA
ATOM      2  C   LIG    1      186.984 184.317 172.346  0.00  0.00    +0.146 A 
ATOM      3  C   LIG    1      186.195 183.625 173.265  0.00  0.00    +0.092 A 
ATOM      4  C   LIG    1      185.854 184.225 174.477  0.00  0.00    +0.124 A 
ATOM      5  C   LIG    1      186.303 185.514 174.771  0.00  0.00    +0.091 A 
ATOM      6  C   LIG    1      187.094 186.208 173.854  0.00  0.00    +0.135 A 
ATOM     11  C   LIG    1      187.431 185.604 172.641  0.00  0.00    +0.105 A 
ATOM     12  C   LIG    1      188.264 186.309 171.655  0.00  0.00    +0.197 A 
ATOM     13  C   LIG    1      188.559 185.577 170.407  0.00  0.00    +0.098 A 
ATOM     14  O   LIG    1      188.693 187.438 171.850  0.00  0.00    -0.287 OA
ATOM     15  C   LIG    1      188.065 184.341 170.235  0.00  0.00    +0.139 A 
ENDROOT
BRANCH  15  16
ATOM     16  C   LIG    1      188.334 183.558 169.013  0.00  0.00    +0.025 A 
ATOM     17  C   LIG    1      187.723 183.908 167.806  0.00  0.00    +0.061 A 
ATOM     18  C   LIG    1      187.976 183.167 166.652  0.00  0.00    +0.166 A 
ATOM     19  C   LIG    1      188.840 182.073 166.701  0.00  0.00    +0.201 A 
ATOM     20  C   LIG    1      189.451 181.720 167.904  0.00  0.00    +0.166 A 
ATOM     27  C   LIG    1      189.198 182.462 169.058  0.00  0.00    +0.061 A 
BRANCH  20  21
ATOM     21  O   LIG    1      190.298 180.655 167.965  0.00  0.00    -0.491 OA
ATOM     22  C   LIG    1      191.692 180.928 167.844  0.00  0.00    +0.277 C 
ENDBRANCH  20  21
BRANCH  19  23
ATOM     23  O   LIG    1      189.087 181.348 165.573  0.00  0.00    -0.501 OA
ATOM     24  H   LIG    1      189.899 180.830 165.707  0.00  0.00    +0.292 HD
ENDBRANCH  19  23
BRANCH  18  25
ATOM     25  O   LIG    1      187.373 183.521 165.483  0.00  0.00    -0.491 OA
ATOM     26  C   LIG    1      187.964 184.590 164.747  0.00  0.00    +0.277 C 
ENDBRANCH  18  25
ENDBRANCH  15  16
BRANCH   6   7
ATOM      7  O   LIG    1      187.506 187.462 174.189  0.00  0.00    -0.506 OA
ATOM      8  H   LIG    1      187.402 187.610 175.142  0.00  0.00    +0.292 HD
ENDBRANCH   6   7
BRANCH   4   9
ATOM      9  O   LIG    1      185.084 183.552 175.376  0.00  0.00    -0.507 OA
ATOM     10  H   LIG    1      185.215 182.597 175.250  0.00  0.00    +0.292 HD
ENDBRANCH   4   9
TORSDOF 6
ENDMDL
MODEL 6
REMARK VINA RESULT:      -6.5      9.988     11.775
REMARK  Name = 5281702
REMARK                            x       y       z     vdW  Elec       q    Type
REMARK                         _______ _______ _______ _____ _____    ______ ____
ROOT
ATOM      1  O   LIG    1      187.287 183.674 171.171  0.00  0.00    -0.454 OA
ATOM      2  C   LIG    1      186.986 184.316 172.346  0.00  0.00    +0.146 A 
ATOM      3  C   LIG    1      186.198 183.624 173.266  0.00  0.00    +0.092 A 
ATOM      4  C   LIG    1      185.859 184.225 174.479  0.00  0.00    +0.124 A 
ATOM      5  C   LIG    1      186.309 185.513 174.772  0.00  0.00    +0.091 A 
ATOM      6  C   LIG    1      187.098 186.207 173.854  0.00  0.00    +0.135 A 
ATOM     11  C   LIG    1      187.434 185.603 172.640  0.00  0.00    +0.105 A 
ATOM     12  C   LIG    1      188.266 186.308 171.653  0.00  0.00    +0.197 A 
ATOM     13  C   LIG    1      188.560 185.576 170.405  0.00  0.00    +0.098 A 
ATOM     14  O   LIG    1      188.696 187.437 171.848  0.00  0.00    -0.287 OA
ATOM     15  C   LIG    1      188.064 184.339 170.234  0.00  0.00    +0.139 A 
ENDROOT
BRANCH  15  16
ATOM     16  C   LIG    1      188.332 183.556 169.011  0.00  0.00    +0.025 A 
ATOM     17  C   LIG    1      189.193 182.457 169.056  0.00  0.00    +0.061 A 
ATOM     18  C   LIG    1      189.446 181.719 167.900  0.00  0.00    +0.166 A 
ATOM     19  C   LIG    1      188.839 182.078 166.696  0.00  0.00    +0.201 A 
ATOM     20  C   LIG    1      187.979 183.175 166.648  0.00  0.00    +0.166 A 
ATOM     27  C   LIG    1      187.726 183.913 167.804  0.00  0.00    +0.061 A 
BRANCH  20  21
ATOM     21  O   LIG    1      187.380 183.536 165.479  0.00  0.00    -0.491 OA
ATOM     22  C   LIG    1      187.966 184.617 164.757  0.00  0.00    +0.277 C 
ENDBRANCH  20  21
BRANCH  19  23
ATOM     23  O   LIG    1      189.088 181.357 165.566  0.00  0.00    -0.501 OA
ATOM     24  H   LIG    1      189.658 181.885 164.980  0.00  0.00    +0.292 HD
ENDBRANCH  19  23
BRANCH  18  25
ATOM     25  O   LIG    1      190.288 180.650 167.958  0.00  0.00    -0.491 OA
ATOM     26  C   LIG    1      191.684 180.918 167.843  0.00  0.00    +0.277 C 
ENDBRANCH  18  25
ENDBRANCH  15  16
BRANCH   6   7
ATOM      7  O   LIG    1      187.511 187.462 174.188  0.00  0.00    -0.506 OA
ATOM      8  H   LIG    1      187.626 187.536 175.148  0.00  0.00    +0.292 HD
ENDBRANCH   6   7
BRANCH   4   9
ATOM      9  O   LIG    1      185.090 183.552 175.379  0.00  0.00    -0.507 OA
ATOM     10  H   LIG    1      184.153 183.688 175.156  0.00  0.00    +0.292 HD
ENDBRANCH   4   9
TORSDOF 6
ENDMDL
MODEL 7
REMARK VINA RESULT:      -6.5      4.716      8.091
REMARK  Name = 5281702
REMARK                            x       y       z     vdW  Elec       q    Type
REMARK                         _______ _______ _______ _____ _____    ______ ____
ROOT
ATOM      1  O   LIG    1      179.857 174.833 172.807  0.00  0.00    -0.454 OA
ATOM      2  C   LIG    1      180.876 175.628 172.345  0.00  0.00    +0.146 A 
ATOM      3  C   LIG    1      180.884 176.959 172.762  0.00  0.00    +0.092 A 
ATOM      4  C   LIG    1      181.896 177.815 172.325  0.00  0.00    +0.124 A 
ATOM      5  C   LIG    1      182.896 177.342 171.475  0.00  0.00    +0.091 A 
ATOM      6  C   LIG    1      182.890 176.010 171.057  0.00  0.00    +0.135 A 
ATOM     11  C   LIG    1      181.876 175.156 171.496  0.00  0.00    +0.105 A 
ATOM     12  C   LIG    1      181.843 173.748 171.074  0.00  0.00    +0.197 A 
ATOM     13  C   LIG    1      180.726 172.935 171.596  0.00  0.00    +0.098 A 
ATOM     14  O   LIG    1      182.690 173.267 170.333  0.00  0.00    -0.287 OA
ATOM     15  C   LIG    1      179.819 173.506 172.405  0.00  0.00    +0.139 A 
ENDROOT
BRANCH  15  16
ATOM     16  C   LIG    1      178.686 172.742 172.964  0.00  0.00    +0.025 A 
ATOM     17  C   LIG    1      178.921 171.641 173.791  0.00  0.00    +0.061 A 
ATOM     18  C   LIG    1      177.851 170.919 174.318  0.00  0.00    +0.166 A 
ATOM     19  C   LIG    1      176.541 171.295 174.019  0.00  0.00    +0.201 A 
ATOM     20  C   LIG    1      176.302 172.392 173.193  0.00  0.00    +0.166 A 
ATOM     27  C   LIG    1      177.373 173.115 172.666  0.00  0.00    +0.061 A 
BRANCH  20  21
ATOM     21  O   LIG    1      175.028 172.770 172.893  0.00  0.00    -0.491 OA
ATOM     22  C   LIG    1      174.855 173.627 171.766  0.00  0.00    +0.277 C 
ENDBRANCH  20  21
BRANCH  19  23
ATOM     23  O   LIG    1      175.495 170.588 174.533  0.00  0.00    -0.501 OA
ATOM     24  H   LIG    1      174.832 171.215 174.870  0.00  0.00    +0.292 HD
ENDBRANCH  19  23
BRANCH  18  25
ATOM     25  O   LIG    1      178.097 169.848 175.123  0.00  0.00    -0.491 OA
ATOM     26  C   LIG    1      178.379 168.605 174.481  0.00  0.00    +0.277 C 
ENDBRANCH  18  25
ENDBRANCH  15  16
BRANCH   6   7
ATOM      7  O   LIG    1      183.889 175.598 170.228  0.00  0.00    -0.506 OA
ATOM      8  H   LIG    1      184.707 175.452 170.728  0.00  0.00    +0.292 HD
ENDBRANCH   6   7
BRANCH   4   9
ATOM      9  O   LIG    1      181.906 179.115 172.730  0.00  0.00    -0.507 OA
ATOM     10  H   LIG    1      180.995 179.391 172.930  0.00  0.00    +0.292 HD
ENDBRANCH   4   9
TORSDOF 6
ENDMDL
MODEL 8
REMARK VINA RESULT:      -6.5      2.149      7.317
REMARK  Name = 5281702
REMARK                            x       y       z     vdW  Elec       q    Type
REMARK                         _______ _______ _______ _____ _____    ______ ____
ROOT
ATOM      1  O   LIG    1      179.683 177.469 170.638  0.00  0.00    -0.454 OA
ATOM      2  C   LIG    1      181.024 177.555 170.915  0.00  0.00    +0.146 A 
ATOM      3  C   LIG    1      181.443 178.621 171.712  0.00  0.00    +0.092 A 
ATOM      4  C   LIG    1      182.795 178.761 172.028  0.00  0.00    +0.124 A 
ATOM      5  C   LIG    1      183.725 177.837 171.550  0.00  0.00    +0.091 A 
ATOM      6  C   LIG    1      183.308 176.769 170.754  0.00  0.00    +0.135 A 
ATOM     11  C   LIG    1      181.955 176.633 170.439  0.00  0.00    +0.105 A 
ATOM     12  C   LIG    1      181.485 175.518 169.603  0.00  0.00    +0.197 A 
ATOM     13  C   LIG    1      180.034 175.471 169.332  0.00  0.00    +0.098 A 
ATOM     14  O   LIG    1      182.246 174.671 169.155  0.00  0.00    -0.287 OA
ATOM     15  C   LIG    1      179.238 176.423 169.843  0.00  0.00    +0.139 A 
ENDROOT
BRANCH  15  16
ATOM     16  C   LIG    1      177.779 176.424 169.613  0.00  0.00    +0.025 A 
ATOM     17  C   LIG    1      177.084 175.216 169.513  0.00  0.00    +0.061 A 
ATOM     18  C   LIG    1      175.706 175.217 169.293  0.00  0.00    +0.166 A 
ATOM     19  C   LIG    1      175.020 176.426 169.174  0.00  0.00    +0.201 A 
ATOM     20  C   LIG    1      175.711 177.633 169.272  0.00  0.00    +0.166 A 
ATOM     27  C   LIG    1      177.089 177.632 169.492  0.00  0.00    +0.061 A 
BRANCH  20  21
ATOM     21  O   LIG    1      175.053 178.820 169.158  0.00  0.00    -0.491 OA
ATOM     22  C   LIG    1      175.777 179.999 169.505  0.00  0.00    +0.277 C 
ENDBRANCH  20  21
BRANCH  19  23
ATOM     23  O   LIG    1      173.674 176.427 168.958  0.00  0.00    -0.501 OA
ATOM     24  H   LIG    1      173.297 175.616 169.343  0.00  0.00    +0.292 HD
ENDBRANCH  19  23
BRANCH  18  25
ATOM     25  O   LIG    1      175.042 174.032 169.198  0.00  0.00    -0.491 OA
ATOM     26  C   LIG    1      175.806 172.890 168.815  0.00  0.00    +0.277 C 
ENDBRANCH  18  25
ENDBRANCH  15  16
BRANCH   6   7
ATOM      7  O   LIG    1      184.256 175.895 170.313  0.00  0.00    -0.506 OA
ATOM      8  H   LIG    1      184.384 175.180 170.956  0.00  0.00    +0.292 HD
ENDBRANCH   6   7
BRANCH   4   9
ATOM      9  O   LIG    1      183.206 179.800 172.805  0.00  0.00    -0.507 OA
ATOM     10  H   LIG    1      182.498 180.025 173.432  0.00  0.00    +0.292 HD
ENDBRANCH   4   9
TORSDOF 6
ENDMDL
MODEL 9
REMARK VINA RESULT:      -6.5      6.052     11.006
REMARK  Name = 5281702
REMARK                            x       y       z     vdW  Elec       q    Type
REMARK                         _______ _______ _______ _____ _____    ______ ____
ROOT
ATOM      1  O   LIG    1      183.279 185.740 172.699  0.00  0.00    -0.454 OA
ATOM      2  C   LIG    1      184.435 185.502 173.399  0.00  0.00    +0.146 A 
ATOM      3  C   LIG    1      185.395 186.514 173.406  0.00  0.00    +0.092 A 
ATOM      4  C   LIG    1      186.591 186.330 174.101  0.00  0.00    +0.124 A 
ATOM      5  C   LIG    1      186.825 185.138 174.788  0.00  0.00    +0.091 A 
ATOM      6  C   LIG    1      185.866 184.124 174.784  0.00  0.00    +0.135 A 
ATOM     11  C   LIG    1      184.671 184.312 174.086  0.00  0.00    +0.105 A 
ATOM     12  C   LIG    1      183.640 183.263 174.064  0.00  0.00    +0.197 A 
ATOM     13  C   LIG    1      182.416 183.567 173.295  0.00  0.00    +0.098 A 
ATOM     14  O   LIG    1      183.779 182.197 174.647  0.00  0.00    -0.287 OA
ATOM     15  C   LIG    1      182.308 184.750 172.669  0.00  0.00    +0.139 A 
ENDROOT
BRANCH  15  16
ATOM     16  C   LIG    1      181.105 185.112 171.893  0.00  0.00    +0.025 A 
ATOM     17  C   LIG    1      180.540 186.382 172.027  0.00  0.00    +0.061 A 
ATOM     18  C   LIG    1      179.402 186.723 171.296  0.00  0.00    +0.166 A 
ATOM     19  C   LIG    1      178.827 185.795 170.427  0.00  0.00    +0.201 A 
ATOM     20  C   LIG    1      179.389 184.526 170.291  0.00  0.00    +0.166 A 
ATOM     27  C   LIG    1      180.526 184.185 171.023  0.00  0.00    +0.061 A 
BRANCH  20  21
ATOM     21  O   LIG    1      178.838 183.610 169.446  0.00  0.00    -0.491 OA
ATOM     22  C   LIG    1      178.888 182.244 169.850  0.00  0.00    +0.277 C 
ENDBRANCH  20  21
BRANCH  19  23
ATOM     23  O   LIG    1      177.715 186.128 169.713  0.00  0.00    -0.501 OA
ATOM     24  H   LIG    1      177.762 185.694 168.843  0.00  0.00    +0.292 HD
ENDBRANCH  19  23
BRANCH  18  25
ATOM     25  O   LIG    1      178.862 187.966 171.437  0.00  0.00    -0.491 OA
ATOM     26  C   LIG    1      178.464 188.353 172.751  0.00  0.00    +0.277 C 
ENDBRANCH  18  25
ENDBRANCH  15  16
BRANCH   6   7
ATOM      7  O   LIG    1      186.144 182.981 175.471  0.00  0.00    -0.506 OA
ATOM      8  H   LIG    1      186.908 183.112 176.052  0.00  0.00    +0.292 HD
ENDBRANCH   6   7
BRANCH   4   9
ATOM      9  O   LIG    1      187.530 187.316 174.110  0.00  0.00    -0.507 OA
ATOM     10  H   LIG    1      188.374 186.944 174.419  0.00  0.00    +0.292 HD
ENDBRANCH   4   9
TORSDOF 6
ENDMDL
MODEL 10
REMARK VINA RESULT:      -6.5      6.052     10.692
REMARK  Name = 5281702
REMARK                            x       y       z     vdW  Elec       q    Type
REMARK                         _______ _______ _______ _____ _____    ______ ____
ROOT
ATOM      1  O   LIG    1      183.278 185.740 172.688  0.00  0.00    -0.454 OA
ATOM      2  C   LIG    1      184.432 185.500 173.390  0.00  0.00    +0.146 A 
ATOM      3  C   LIG    1      185.391 186.512 173.404  0.00  0.00    +0.092 A 
ATOM      4  C   LIG    1      186.585 186.326 174.102  0.00  0.00    +0.124 A 
ATOM      5  C   LIG    1      186.819 185.131 174.784  0.00  0.00    +0.091 A 
ATOM      6  C   LIG    1      185.860 184.117 174.772  0.00  0.00    +0.135 A 
ATOM     11  C   LIG    1      184.667 184.307 174.072  0.00  0.00    +0.105 A 
ATOM     12  C   LIG    1      183.637 183.257 174.042  0.00  0.00    +0.197 A 
ATOM     13  C   LIG    1      182.415 183.564 173.272  0.00  0.00    +0.098 A 
ATOM     14  O   LIG    1      183.776 182.189 174.621  0.00  0.00    -0.287 OA
ATOM     15  C   LIG    1      182.307 184.749 172.651  0.00  0.00    +0.139 A 
ENDROOT
BRANCH  15  16
ATOM     16  C   LIG    1      181.106 185.114 171.874  0.00  0.00    +0.025 A 
ATOM     17  C   LIG    1      180.542 184.199 170.982  0.00  0.00    +0.061 A 
ATOM     18  C   LIG    1      179.408 184.545 170.247  0.00  0.00    +0.166 A 
ATOM     19  C   LIG    1      178.836 185.808 170.401  0.00  0.00    +0.201 A 
ATOM     20  C   LIG    1      179.398 186.725 171.289  0.00  0.00    +0.166 A 
ATOM     27  C   LIG    1      180.531 186.379 172.024  0.00  0.00    +0.061 A 
BRANCH  20  21
ATOM     21  O   LIG    1      178.849 187.961 171.449  0.00  0.00    -0.491 OA
ATOM     22  C   LIG    1      178.452 188.328 172.768  0.00  0.00    +0.277 C 
ENDBRANCH  20  21
BRANCH  19  23
ATOM     23  O   LIG    1      177.729 186.147 169.681  0.00  0.00    -0.501 OA
ATOM     24  H   LIG    1      177.200 186.776 170.202  0.00  0.00    +0.292 HD
ENDBRANCH  19  23
BRANCH  18  25
ATOM     25  O   LIG    1      178.869 183.641 169.382  0.00  0.00    -0.491 OA
ATOM     26  C   LIG    1      178.799 182.286 169.821  0.00  0.00    +0.277 C 
ENDBRANCH  18  25
ENDBRANCH  15  16
BRANCH   6   7
ATOM      7  O   LIG    1      186.137 182.971 175.454  0.00  0.00    -0.506 OA
ATOM      8  H   LIG    1      185.756 182.205 174.999  0.00  0.00    +0.292 HD
ENDBRANCH   6   7
BRANCH   4   9
ATOM      9  O   LIG    1      187.523 187.313 174.117  0.00  0.00    -0.507 OA
ATOM     10  H   LIG    1      188.407 186.907 174.104  0.00  0.00    +0.292 HD
ENDBRANCH   4   9
TORSDOF 6
ENDMDL
