REMARK VINA RESULT:      -6.5      9.986     11.868
REMARK  Name = 5281702
REMARK                            x       y       z     vdW  Elec       q    Type
REMARK                         _______ _______ _______ _____ _____    ______ ____
ROOT
ATOM      1  O   LIG    1      187.287 183.675 171.171  0.00  0.00    -0.454 OA
ATOM      2  C   LIG    1      186.984 184.317 172.346  0.00  0.00    +0.146 A 
ATOM      3  C   LIG    1      186.195 183.625 173.265  0.00  0.00    +0.092 A 
ATOM      4  C   LIG    1      185.854 184.225 174.477  0.00  0.00    +0.124 A 
ATOM      5  C   LIG    1      186.303 185.514 174.771  0.00  0.00    +0.091 A 
ATOM      6  C   LIG    1      187.094 186.208 173.854  0.00  0.00    +0.135 A 
ATOM     11  C   LIG    1      187.431 185.604 172.641  0.00  0.00    +0.105 A 
ATOM     12  C   LIG    1      188.264 186.309 171.655  0.00  0.00    +0.197 A 
ATOM     13  C   LIG    1      188.559 185.577 170.407  0.00  0.00    +0.098 A 
ATOM     14  O   LIG    1      188.693 187.438 171.850  0.00  0.00    -0.287 OA
ATOM     15  C   LIG    1      188.065 184.341 170.235  0.00  0.00    +0.139 A 
ENDROOT
BRANCH  15  16
ATOM     16  C   LIG    1      188.334 183.558 169.013  0.00  0.00    +0.025 A 
ATOM     17  C   LIG    1      187.723 183.908 167.806  0.00  0.00    +0.061 A 
ATOM     18  C   LIG    1      187.976 183.167 166.652  0.00  0.00    +0.166 A 
ATOM     19  C   LIG    1      188.840 182.073 166.701  0.00  0.00    +0.201 A 
ATOM     20  C   LIG    1      189.451 181.720 167.904  0.00  0.00    +0.166 A 
ATOM     27  C   LIG    1      189.198 182.462 169.058  0.00  0.00    +0.061 A 
BRANCH  20  21
ATOM     21  O   LIG    1      190.298 180.655 167.965  0.00  0.00    -0.491 OA
ATOM     22  C   LIG    1      191.692 180.928 167.844  0.00  0.00    +0.277 C 
ENDBRANCH  20  21
BRANCH  19  23
ATOM     23  O   LIG    1      189.087 181.348 165.573  0.00  0.00    -0.501 OA
ATOM     24  H   LIG    1      189.899 180.830 165.707  0.00  0.00    +0.292 HD
ENDBRANCH  19  23
BRANCH  18  25
ATOM     25  O   LIG    1      187.373 183.521 165.483  0.00  0.00    -0.491 OA
ATOM     26  C   LIG    1      187.964 184.590 164.747  0.00  0.00    +0.277 C 
ENDBRANCH  18  25
ENDBRANCH  15  16
BRANCH   6   7
ATOM      7  O   LIG    1      187.506 187.462 174.189  0.00  0.00    -0.506 OA
ATOM      8  H   LIG    1      187.402 187.610 175.142  0.00  0.00    +0.292 HD
ENDBRANCH   6   7
BRANCH   4   9
ATOM      9  O   LIG    1      185.084 183.552 175.376  0.00  0.00    -0.507 OA
ATOM     10  H   LIG    1      185.215 182.597 175.250  0.00  0.00    +0.292 HD
ENDBRANCH   4   9
TORSDOF 6
