REMARK VINA RESULT:      -6.5      6.052     10.692
REMARK  Name = 5281702
REMARK                            x       y       z     vdW  Elec       q    Type
REMARK                         _______ _______ _______ _____ _____    ______ ____
ROOT
ATOM      1  O   LIG    1      183.278 185.740 172.688  0.00  0.00    -0.454 OA
ATOM      2  C   LIG    1      184.432 185.500 173.390  0.00  0.00    +0.146 A 
ATOM      3  C   LIG    1      185.391 186.512 173.404  0.00  0.00    +0.092 A 
ATOM      4  C   LIG    1      186.585 186.326 174.102  0.00  0.00    +0.124 A 
ATOM      5  C   LIG    1      186.819 185.131 174.784  0.00  0.00    +0.091 A 
ATOM      6  C   LIG    1      185.860 184.117 174.772  0.00  0.00    +0.135 A 
ATOM     11  C   LIG    1      184.667 184.307 174.072  0.00  0.00    +0.105 A 
ATOM     12  C   LIG    1      183.637 183.257 174.042  0.00  0.00    +0.197 A 
ATOM     13  C   LIG    1      182.415 183.564 173.272  0.00  0.00    +0.098 A 
ATOM     14  O   LIG    1      183.776 182.189 174.621  0.00  0.00    -0.287 OA
ATOM     15  C   LIG    1      182.307 184.749 172.651  0.00  0.00    +0.139 A 
ENDROOT
BRANCH  15  16
ATOM     16  C   LIG    1      181.106 185.114 171.874  0.00  0.00    +0.025 A 
ATOM     17  C   LIG    1      180.542 184.199 170.982  0.00  0.00    +0.061 A 
ATOM     18  C   LIG    1      179.408 184.545 170.247  0.00  0.00    +0.166 A 
ATOM     19  C   LIG    1      178.836 185.808 170.401  0.00  0.00    +0.201 A 
ATOM     20  C   LIG    1      179.398 186.725 171.289  0.00  0.00    +0.166 A 
ATOM     27  C   LIG    1      180.531 186.379 172.024  0.00  0.00    +0.061 A 
BRANCH  20  21
ATOM     21  O   LIG    1      178.849 187.961 171.449  0.00  0.00    -0.491 OA
ATOM     22  C   LIG    1      178.452 188.328 172.768  0.00  0.00    +0.277 C 
ENDBRANCH  20  21
BRANCH  19  23
ATOM     23  O   LIG    1      177.729 186.147 169.681  0.00  0.00    -0.501 OA
ATOM     24  H   LIG    1      177.200 186.776 170.202  0.00  0.00    +0.292 HD
ENDBRANCH  19  23
BRANCH  18  25
ATOM     25  O   LIG    1      178.869 183.641 169.382  0.00  0.00    -0.491 OA
ATOM     26  C   LIG    1      178.799 182.286 169.821  0.00  0.00    +0.277 C 
ENDBRANCH  18  25
ENDBRANCH  15  16
BRANCH   6   7
ATOM      7  O   LIG    1      186.137 182.971 175.454  0.00  0.00    -0.506 OA
ATOM      8  H   LIG    1      185.756 182.205 174.999  0.00  0.00    +0.292 HD
ENDBRANCH   6   7
BRANCH   4   9
ATOM      9  O   LIG    1      187.523 187.313 174.117  0.00  0.00    -0.507 OA
ATOM     10  H   LIG    1      188.407 186.907 174.104  0.00  0.00    +0.292 HD
ENDBRANCH   4   9
TORSDOF 6
