REMARK VINA RESULT:      -6.5      4.716      8.091
REMARK  Name = 5281702
REMARK                            x       y       z     vdW  Elec       q    Type
REMARK                         _______ _______ _______ _____ _____    ______ ____
ROOT
ATOM      1  O   LIG    1      179.857 174.833 172.807  0.00  0.00    -0.454 OA
ATOM      2  C   LIG    1      180.876 175.628 172.345  0.00  0.00    +0.146 A 
ATOM      3  C   LIG    1      180.884 176.959 172.762  0.00  0.00    +0.092 A 
ATOM      4  C   LIG    1      181.896 177.815 172.325  0.00  0.00    +0.124 A 
ATOM      5  C   LIG    1      182.896 177.342 171.475  0.00  0.00    +0.091 A 
ATOM      6  C   LIG    1      182.890 176.010 171.057  0.00  0.00    +0.135 A 
ATOM     11  C   LIG    1      181.876 175.156 171.496  0.00  0.00    +0.105 A 
ATOM     12  C   LIG    1      181.843 173.748 171.074  0.00  0.00    +0.197 A 
ATOM     13  C   LIG    1      180.726 172.935 171.596  0.00  0.00    +0.098 A 
ATOM     14  O   LIG    1      182.690 173.267 170.333  0.00  0.00    -0.287 OA
ATOM     15  C   LIG    1      179.819 173.506 172.405  0.00  0.00    +0.139 A 
ENDROOT
BRANCH  15  16
ATOM     16  C   LIG    1      178.686 172.742 172.964  0.00  0.00    +0.025 A 
ATOM     17  C   LIG    1      178.921 171.641 173.791  0.00  0.00    +0.061 A 
ATOM     18  C   LIG    1      177.851 170.919 174.318  0.00  0.00    +0.166 A 
ATOM     19  C   LIG    1      176.541 171.295 174.019  0.00  0.00    +0.201 A 
ATOM     20  C   LIG    1      176.302 172.392 173.193  0.00  0.00    +0.166 A 
ATOM     27  C   LIG    1      177.373 173.115 172.666  0.00  0.00    +0.061 A 
BRANCH  20  21
ATOM     21  O   LIG    1      175.028 172.770 172.893  0.00  0.00    -0.491 OA
ATOM     22  C   LIG    1      174.855 173.627 171.766  0.00  0.00    +0.277 C 
ENDBRANCH  20  21
BRANCH  19  23
ATOM     23  O   LIG    1      175.495 170.588 174.533  0.00  0.00    -0.501 OA
ATOM     24  H   LIG    1      174.832 171.215 174.870  0.00  0.00    +0.292 HD
ENDBRANCH  19  23
BRANCH  18  25
ATOM     25  O   LIG    1      178.097 169.848 175.123  0.00  0.00    -0.491 OA
ATOM     26  C   LIG    1      178.379 168.605 174.481  0.00  0.00    +0.277 C 
ENDBRANCH  18  25
ENDBRANCH  15  16
BRANCH   6   7
ATOM      7  O   LIG    1      183.889 175.598 170.228  0.00  0.00    -0.506 OA
ATOM      8  H   LIG    1      184.707 175.452 170.728  0.00  0.00    +0.292 HD
ENDBRANCH   6   7
BRANCH   4   9
ATOM      9  O   LIG    1      181.906 179.115 172.730  0.00  0.00    -0.507 OA
ATOM     10  H   LIG    1      180.995 179.391 172.930  0.00  0.00    +0.292 HD
ENDBRANCH   4   9
TORSDOF 6
