REMARK VINA RESULT:      -6.5      2.233      7.794
REMARK  Name = 5281702
REMARK                            x       y       z     vdW  Elec       q    Type
REMARK                         _______ _______ _______ _____ _____    ______ ____
ROOT
ATOM      1  O   LIG    1      179.594 177.315 170.598  0.00  0.00    -0.454 OA
ATOM      2  C   LIG    1      180.930 177.426 170.888  0.00  0.00    +0.146 A 
ATOM      3  C   LIG    1      181.322 178.498 171.690  0.00  0.00    +0.092 A 
ATOM      4  C   LIG    1      182.668 178.663 172.018  0.00  0.00    +0.124 A 
ATOM      5  C   LIG    1      183.619 177.757 171.548  0.00  0.00    +0.091 A 
ATOM      6  C   LIG    1      183.230 176.683 170.746  0.00  0.00    +0.135 A 
ATOM     11  C   LIG    1      181.882 176.522 170.419  0.00  0.00    +0.105 A 
ATOM     12  C   LIG    1      181.442 175.400 169.577  0.00  0.00    +0.197 A 
ATOM     13  C   LIG    1      179.994 175.326 169.292  0.00  0.00    +0.098 A 
ATOM     14  O   LIG    1      182.222 174.568 169.134  0.00  0.00    -0.287 OA
ATOM     15  C   LIG    1      179.175 176.262 169.798  0.00  0.00    +0.139 A 
ENDROOT
BRANCH  15  16
ATOM     16  C   LIG    1      177.719 176.235 169.554  0.00  0.00    +0.025 A 
ATOM     17  C   LIG    1      177.017 177.428 169.362  0.00  0.00    +0.061 A 
ATOM     18  C   LIG    1      175.642 177.402 169.134  0.00  0.00    +0.166 A 
ATOM     19  C   LIG    1      174.963 176.183 169.098  0.00  0.00    +0.201 A 
ATOM     20  C   LIG    1      175.661 174.991 169.290  0.00  0.00    +0.166 A 
ATOM     27  C   LIG    1      177.037 175.017 169.518  0.00  0.00    +0.061 A 
BRANCH  20  21
ATOM     21  O   LIG    1      175.011 173.794 169.257  0.00  0.00    -0.491 OA
ATOM     22  C   LIG    1      175.685 172.708 168.625  0.00  0.00    +0.277 C 
ENDBRANCH  20  21
BRANCH  19  23
ATOM     23  O   LIG    1      173.618 176.158 168.876  0.00  0.00    -0.501 OA
ATOM     24  H   LIG    1      173.231 175.431 169.395  0.00  0.00    +0.292 HD
ENDBRANCH  19  23
BRANCH  18  25
ATOM     25  O   LIG    1      174.971 178.573 168.948  0.00  0.00    -0.491 OA
ATOM     26  C   LIG    1      175.592 179.760 169.439  0.00  0.00    +0.277 C 
ENDBRANCH  18  25
ENDBRANCH  15  16
BRANCH   6   7
ATOM      7  O   LIG    1      184.199 175.828 170.313  0.00  0.00    -0.506 OA
ATOM      8  H   LIG    1      184.746 176.251 169.634  0.00  0.00    +0.292 HD
ENDBRANCH   6   7
BRANCH   4   9
ATOM      9  O   LIG    1      183.053 179.708 172.801  0.00  0.00    -0.507 OA
ATOM     10  H   LIG    1      182.950 180.534 172.297  0.00  0.00    +0.292 HD
ENDBRANCH   4   9
TORSDOF 6
