REMARK VINA RESULT:      -6.6      0.940      2.703
REMARK  Name = 5281702
REMARK                            x       y       z     vdW  Elec       q    Type
REMARK                         _______ _______ _______ _____ _____    ______ ____
ROOT
ATOM      1  O   LIG    1      178.840 177.545 169.496  0.00  0.00    -0.454 OA
ATOM      2  C   LIG    1      177.493 177.800 169.436  0.00  0.00    +0.146 A 
ATOM      3  C   LIG    1      176.896 177.776 168.175  0.00  0.00    +0.092 A 
ATOM      4  C   LIG    1      175.530 178.028 168.051  0.00  0.00    +0.124 A 
ATOM      5  C   LIG    1      174.762 178.302 169.184  0.00  0.00    +0.091 A 
ATOM      6  C   LIG    1      175.357 178.325 170.446  0.00  0.00    +0.135 A 
ATOM     11  C   LIG    1      176.725 178.074 170.566  0.00  0.00    +0.105 A 
ATOM     12  C   LIG    1      177.380 178.091 171.883  0.00  0.00    +0.197 A 
ATOM     13  C   LIG    1      178.831 177.812 171.894  0.00  0.00    +0.098 A 
ATOM     14  O   LIG    1      176.766 178.320 172.916  0.00  0.00    -0.287 OA
ATOM     15  C   LIG    1      179.463 177.568 170.735  0.00  0.00    +0.139 A 
ENDROOT
BRANCH  15  16
ATOM     16  C   LIG    1      180.910 177.275 170.685  0.00  0.00    +0.025 A 
ATOM     17  C   LIG    1      181.837 178.319 170.655  0.00  0.00    +0.061 A 
ATOM     18  C   LIG    1      183.203 178.042 170.606  0.00  0.00    +0.166 A 
ATOM     19  C   LIG    1      183.646 176.719 170.587  0.00  0.00    +0.201 A 
ATOM     20  C   LIG    1      182.723 175.674 170.616  0.00  0.00    +0.166 A 
ATOM     27  C   LIG    1      181.357 175.951 170.665  0.00  0.00    +0.061 A 
BRANCH  20  21
ATOM     21  O   LIG    1      183.142 174.378 170.599  0.00  0.00    -0.491 OA
ATOM     22  C   LIG    1      182.181 173.392 170.226  0.00  0.00    +0.277 C 
ENDBRANCH  20  21
BRANCH  19  23
ATOM     23  O   LIG    1      184.981 176.448 170.538  0.00  0.00    -0.501 OA
ATOM     24  H   LIG    1      185.411 177.106 169.965  0.00  0.00    +0.292 HD
ENDBRANCH  19  23
BRANCH  18  25
ATOM     25  O   LIG    1      184.095 179.071 170.577  0.00  0.00    -0.491 OA
ATOM     26  C   LIG    1      183.728 180.225 169.823  0.00  0.00    +0.277 C 
ENDBRANCH  18  25
ENDBRANCH  15  16
BRANCH   6   7
ATOM      7  O   LIG    1      174.563 178.597 171.519  0.00  0.00    -0.506 OA
ATOM      8  H   LIG    1      173.629 178.596 171.259  0.00  0.00    +0.292 HD
ENDBRANCH   6   7
BRANCH   4   9
ATOM      9  O   LIG    1      174.944 178.005 166.822  0.00  0.00    -0.507 OA
ATOM     10  H   LIG    1      175.279 178.753 166.299  0.00  0.00    +0.292 HD
ENDBRANCH   4   9
TORSDOF 6
