REMARK VINA RESULT:      -6.5      9.988     11.775
REMARK  Name = 5281702
REMARK                            x       y       z     vdW  Elec       q    Type
REMARK                         _______ _______ _______ _____ _____    ______ ____
ROOT
ATOM      1  O   LIG    1      187.287 183.674 171.171  0.00  0.00    -0.454 OA
ATOM      2  C   LIG    1      186.986 184.316 172.346  0.00  0.00    +0.146 A 
ATOM      3  C   LIG    1      186.198 183.624 173.266  0.00  0.00    +0.092 A 
ATOM      4  C   LIG    1      185.859 184.225 174.479  0.00  0.00    +0.124 A 
ATOM      5  C   LIG    1      186.309 185.513 174.772  0.00  0.00    +0.091 A 
ATOM      6  C   LIG    1      187.098 186.207 173.854  0.00  0.00    +0.135 A 
ATOM     11  C   LIG    1      187.434 185.603 172.640  0.00  0.00    +0.105 A 
ATOM     12  C   LIG    1      188.266 186.308 171.653  0.00  0.00    +0.197 A 
ATOM     13  C   LIG    1      188.560 185.576 170.405  0.00  0.00    +0.098 A 
ATOM     14  O   LIG    1      188.696 187.437 171.848  0.00  0.00    -0.287 OA
ATOM     15  C   LIG    1      188.064 184.339 170.234  0.00  0.00    +0.139 A 
ENDROOT
BRANCH  15  16
ATOM     16  C   LIG    1      188.332 183.556 169.011  0.00  0.00    +0.025 A 
ATOM     17  C   LIG    1      189.193 182.457 169.056  0.00  0.00    +0.061 A 
ATOM     18  C   LIG    1      189.446 181.719 167.900  0.00  0.00    +0.166 A 
ATOM     19  C   LIG    1      188.839 182.078 166.696  0.00  0.00    +0.201 A 
ATOM     20  C   LIG    1      187.979 183.175 166.648  0.00  0.00    +0.166 A 
ATOM     27  C   LIG    1      187.726 183.913 167.804  0.00  0.00    +0.061 A 
BRANCH  20  21
ATOM     21  O   LIG    1      187.380 183.536 165.479  0.00  0.00    -0.491 OA
ATOM     22  C   LIG    1      187.966 184.617 164.757  0.00  0.00    +0.277 C 
ENDBRANCH  20  21
BRANCH  19  23
ATOM     23  O   LIG    1      189.088 181.357 165.566  0.00  0.00    -0.501 OA
ATOM     24  H   LIG    1      189.658 181.885 164.980  0.00  0.00    +0.292 HD
ENDBRANCH  19  23
BRANCH  18  25
ATOM     25  O   LIG    1      190.288 180.650 167.958  0.00  0.00    -0.491 OA
ATOM     26  C   LIG    1      191.684 180.918 167.843  0.00  0.00    +0.277 C 
ENDBRANCH  18  25
ENDBRANCH  15  16
BRANCH   6   7
ATOM      7  O   LIG    1      187.511 187.462 174.188  0.00  0.00    -0.506 OA
ATOM      8  H   LIG    1      187.626 187.536 175.148  0.00  0.00    +0.292 HD
ENDBRANCH   6   7
BRANCH   4   9
ATOM      9  O   LIG    1      185.090 183.552 175.379  0.00  0.00    -0.507 OA
ATOM     10  H   LIG    1      184.153 183.688 175.156  0.00  0.00    +0.292 HD
ENDBRANCH   4   9
TORSDOF 6
