REMARK VINA RESULT:      -6.5      7.620     11.255
REMARK  Name = 5281702
REMARK                            x       y       z     vdW  Elec       q    Type
REMARK                         _______ _______ _______ _____ _____    ______ ____
ROOT
ATOM      1  O   LIG    1      184.893 187.203 171.410  0.00  0.00    -0.454 OA
ATOM      2  C   LIG    1      184.901 188.081 170.356  0.00  0.00    +0.146 A 
ATOM      3  C   LIG    1      186.069 188.815 170.146  0.00  0.00    +0.092 A 
ATOM      4  C   LIG    1      186.136 189.723 169.089  0.00  0.00    +0.124 A 
ATOM      5  C   LIG    1      185.040 189.896 168.243  0.00  0.00    +0.091 A 
ATOM      6  C   LIG    1      183.870 189.162 168.450  0.00  0.00    +0.135 A 
ATOM     11  C   LIG    1      183.807 188.255 169.510  0.00  0.00    +0.105 A 
ATOM     12  C   LIG    1      182.589 187.466 169.753  0.00  0.00    +0.197 A 
ATOM     13  C   LIG    1      182.631 186.538 170.901  0.00  0.00    +0.098 A 
ATOM     14  O   LIG    1      181.594 187.566 169.048  0.00  0.00    -0.287 OA
ATOM     15  C   LIG    1      183.744 186.464 171.648  0.00  0.00    +0.139 A 
ENDROOT
BRANCH  15  16
ATOM     16  C   LIG    1      183.847 185.549 172.802  0.00  0.00    +0.025 A 
ATOM     17  C   LIG    1      184.992 185.552 173.601  0.00  0.00    +0.061 A 
ATOM     18  C   LIG    1      185.090 184.686 174.689  0.00  0.00    +0.166 A 
ATOM     19  C   LIG    1      184.041 183.813 174.983  0.00  0.00    +0.201 A 
ATOM     20  C   LIG    1      182.896 183.807 174.186  0.00  0.00    +0.166 A 
ATOM     27  C   LIG    1      182.799 184.673 173.098  0.00  0.00    +0.061 A 
BRANCH  20  21
ATOM     21  O   LIG    1      181.865 182.960 174.462  0.00  0.00    -0.491 OA
ATOM     22  C   LIG    1      180.598 183.276 173.890  0.00  0.00    +0.277 C 
ENDBRANCH  20  21
BRANCH  19  23
ATOM     23  O   LIG    1      184.137 182.966 176.046  0.00  0.00    -0.501 OA
ATOM     24  H   LIG    1      184.443 183.471 176.820  0.00  0.00    +0.292 HD
ENDBRANCH  19  23
BRANCH  18  25
ATOM     25  O   LIG    1      186.213 184.701 175.460  0.00  0.00    -0.491 OA
ATOM     26  C   LIG    1      187.358 184.019 174.949  0.00  0.00    +0.277 C 
ENDBRANCH  18  25
ENDBRANCH  15  16
BRANCH   6   7
ATOM      7  O   LIG    1      182.830 189.368 167.596  0.00  0.00    -0.506 OA
ATOM      8  H   LIG    1      182.177 188.656 167.678  0.00  0.00    +0.292 HD
ENDBRANCH   6   7
BRANCH   4   9
ATOM      9  O   LIG    1      187.274 190.441 168.882  0.00  0.00    -0.507 OA
ATOM     10  H   LIG    1      187.074 191.185 168.289  0.00  0.00    +0.292 HD
ENDBRANCH   4   9
TORSDOF 6
