REMARK VINA RESULT:      -6.7      0.000      0.000
REMARK  Name = 5281702
REMARK                            x       y       z     vdW  Elec       q    Type
REMARK                         _______ _______ _______ _____ _____    ______ ____
ROOT
ATOM      1  O   LIG    1      178.779 177.841 169.741  0.00  0.00    -0.454 OA
ATOM      2  C   LIG    1      177.423 177.960 169.575  0.00  0.00    +0.146 A 
ATOM      3  C   LIG    1      176.935 177.921 168.269  0.00  0.00    +0.092 A 
ATOM      4  C   LIG    1      175.564 178.037 168.037  0.00  0.00    +0.124 A 
ATOM      5  C   LIG    1      174.683 178.189 169.108  0.00  0.00    +0.091 A 
ATOM      6  C   LIG    1      175.168 178.227 170.416  0.00  0.00    +0.135 A 
ATOM     11  C   LIG    1      176.541 178.112 170.644  0.00  0.00    +0.105 A 
ATOM     12  C   LIG    1      177.083 178.147 172.011  0.00  0.00    +0.197 A 
ATOM     13  C   LIG    1      178.549 178.017 172.136  0.00  0.00    +0.098 A 
ATOM     14  O   LIG    1      176.367 178.275 172.995  0.00  0.00    -0.287 OA
ATOM     15  C   LIG    1      179.295 177.882 171.028  0.00  0.00    +0.139 A 
ENDROOT
BRANCH  15  16
ATOM     16  C   LIG    1      180.763 177.739 171.092  0.00  0.00    +0.025 A 
ATOM     17  C   LIG    1      181.376 176.571 170.633  0.00  0.00    +0.061 A 
ATOM     18  C   LIG    1      182.763 176.437 170.695  0.00  0.00    +0.166 A 
ATOM     19  C   LIG    1      183.541 177.470 171.216  0.00  0.00    +0.201 A 
ATOM     20  C   LIG    1      182.933 178.638 171.676  0.00  0.00    +0.166 A 
ATOM     27  C   LIG    1      181.546 178.772 171.614  0.00  0.00    +0.061 A 
BRANCH  20  21
ATOM     21  O   LIG    1      183.681 179.654 172.188  0.00  0.00    -0.491 OA
ATOM     22  C   LIG    1      182.980 180.812 172.638  0.00  0.00    +0.277 C 
ENDBRANCH  20  21
BRANCH  19  23
ATOM     23  O   LIG    1      184.897 177.338 171.278  0.00  0.00    -0.501 OA
ATOM     24  H   LIG    1      185.221 177.826 172.055  0.00  0.00    +0.292 HD
ENDBRANCH  19  23
BRANCH  18  25
ATOM     25  O   LIG    1      183.346 175.291 170.243  0.00  0.00    -0.491 OA
ATOM     26  C   LIG    1      182.647 174.071 170.481  0.00  0.00    +0.277 C 
ENDBRANCH  18  25
ENDBRANCH  15  16
BRANCH   6   7
ATOM      7  O   LIG    1      174.266 178.377 171.426  0.00  0.00    -0.506 OA
ATOM      8  H   LIG    1      174.055 177.518 171.823  0.00  0.00    +0.292 HD
ENDBRANCH   6   7
BRANCH   4   9
ATOM      9  O   LIG    1      175.085 177.999 166.763  0.00  0.00    -0.507 OA
ATOM     10  H   LIG    1      174.306 177.417 166.735  0.00  0.00    +0.292 HD
ENDBRANCH   4   9
TORSDOF 6
