REMARK VINA RESULT:      -6.5      6.052     11.006
REMARK  Name = 5281702
REMARK                            x       y       z     vdW  Elec       q    Type
REMARK                         _______ _______ _______ _____ _____    ______ ____
ROOT
ATOM      1  O   LIG    1      183.279 185.740 172.699  0.00  0.00    -0.454 OA
ATOM      2  C   LIG    1      184.435 185.502 173.399  0.00  0.00    +0.146 A 
ATOM      3  C   LIG    1      185.395 186.514 173.406  0.00  0.00    +0.092 A 
ATOM      4  C   LIG    1      186.591 186.330 174.101  0.00  0.00    +0.124 A 
ATOM      5  C   LIG    1      186.825 185.138 174.788  0.00  0.00    +0.091 A 
ATOM      6  C   LIG    1      185.866 184.124 174.784  0.00  0.00    +0.135 A 
ATOM     11  C   LIG    1      184.671 184.312 174.086  0.00  0.00    +0.105 A 
ATOM     12  C   LIG    1      183.640 183.263 174.064  0.00  0.00    +0.197 A 
ATOM     13  C   LIG    1      182.416 183.567 173.295  0.00  0.00    +0.098 A 
ATOM     14  O   LIG    1      183.779 182.197 174.647  0.00  0.00    -0.287 OA
ATOM     15  C   LIG    1      182.308 184.750 172.669  0.00  0.00    +0.139 A 
ENDROOT
BRANCH  15  16
ATOM     16  C   LIG    1      181.105 185.112 171.893  0.00  0.00    +0.025 A 
ATOM     17  C   LIG    1      180.540 186.382 172.027  0.00  0.00    +0.061 A 
ATOM     18  C   LIG    1      179.402 186.723 171.296  0.00  0.00    +0.166 A 
ATOM     19  C   LIG    1      178.827 185.795 170.427  0.00  0.00    +0.201 A 
ATOM     20  C   LIG    1      179.389 184.526 170.291  0.00  0.00    +0.166 A 
ATOM     27  C   LIG    1      180.526 184.185 171.023  0.00  0.00    +0.061 A 
BRANCH  20  21
ATOM     21  O   LIG    1      178.838 183.610 169.446  0.00  0.00    -0.491 OA
ATOM     22  C   LIG    1      178.888 182.244 169.850  0.00  0.00    +0.277 C 
ENDBRANCH  20  21
BRANCH  19  23
ATOM     23  O   LIG    1      177.715 186.128 169.713  0.00  0.00    -0.501 OA
ATOM     24  H   LIG    1      177.762 185.694 168.843  0.00  0.00    +0.292 HD
ENDBRANCH  19  23
BRANCH  18  25
ATOM     25  O   LIG    1      178.862 187.966 171.437  0.00  0.00    -0.491 OA
ATOM     26  C   LIG    1      178.464 188.353 172.751  0.00  0.00    +0.277 C 
ENDBRANCH  18  25
ENDBRANCH  15  16
BRANCH   6   7
ATOM      7  O   LIG    1      186.144 182.981 175.471  0.00  0.00    -0.506 OA
ATOM      8  H   LIG    1      186.908 183.112 176.052  0.00  0.00    +0.292 HD
ENDBRANCH   6   7
BRANCH   4   9
ATOM      9  O   LIG    1      187.530 187.316 174.110  0.00  0.00    -0.507 OA
ATOM     10  H   LIG    1      188.374 186.944 174.419  0.00  0.00    +0.292 HD
ENDBRANCH   4   9
TORSDOF 6
