REMARK VINA RESULT:      -6.5      2.149      7.317
REMARK  Name = 5281702
REMARK                            x       y       z     vdW  Elec       q    Type
REMARK                         _______ _______ _______ _____ _____    ______ ____
ROOT
ATOM      1  O   LIG    1      179.683 177.469 170.638  0.00  0.00    -0.454 OA
ATOM      2  C   LIG    1      181.024 177.555 170.915  0.00  0.00    +0.146 A 
ATOM      3  C   LIG    1      181.443 178.621 171.712  0.00  0.00    +0.092 A 
ATOM      4  C   LIG    1      182.795 178.761 172.028  0.00  0.00    +0.124 A 
ATOM      5  C   LIG    1      183.725 177.837 171.550  0.00  0.00    +0.091 A 
ATOM      6  C   LIG    1      183.308 176.769 170.754  0.00  0.00    +0.135 A 
ATOM     11  C   LIG    1      181.955 176.633 170.439  0.00  0.00    +0.105 A 
ATOM     12  C   LIG    1      181.485 175.518 169.603  0.00  0.00    +0.197 A 
ATOM     13  C   LIG    1      180.034 175.471 169.332  0.00  0.00    +0.098 A 
ATOM     14  O   LIG    1      182.246 174.671 169.155  0.00  0.00    -0.287 OA
ATOM     15  C   LIG    1      179.238 176.423 169.843  0.00  0.00    +0.139 A 
ENDROOT
BRANCH  15  16
ATOM     16  C   LIG    1      177.779 176.424 169.613  0.00  0.00    +0.025 A 
ATOM     17  C   LIG    1      177.084 175.216 169.513  0.00  0.00    +0.061 A 
ATOM     18  C   LIG    1      175.706 175.217 169.293  0.00  0.00    +0.166 A 
ATOM     19  C   LIG    1      175.020 176.426 169.174  0.00  0.00    +0.201 A 
ATOM     20  C   LIG    1      175.711 177.633 169.272  0.00  0.00    +0.166 A 
ATOM     27  C   LIG    1      177.089 177.632 169.492  0.00  0.00    +0.061 A 
BRANCH  20  21
ATOM     21  O   LIG    1      175.053 178.820 169.158  0.00  0.00    -0.491 OA
ATOM     22  C   LIG    1      175.777 179.999 169.505  0.00  0.00    +0.277 C 
ENDBRANCH  20  21
BRANCH  19  23
ATOM     23  O   LIG    1      173.674 176.427 168.958  0.00  0.00    -0.501 OA
ATOM     24  H   LIG    1      173.297 175.616 169.343  0.00  0.00    +0.292 HD
ENDBRANCH  19  23
BRANCH  18  25
ATOM     25  O   LIG    1      175.042 174.032 169.198  0.00  0.00    -0.491 OA
ATOM     26  C   LIG    1      175.806 172.890 168.815  0.00  0.00    +0.277 C 
ENDBRANCH  18  25
ENDBRANCH  15  16
BRANCH   6   7
ATOM      7  O   LIG    1      184.256 175.895 170.313  0.00  0.00    -0.506 OA
ATOM      8  H   LIG    1      184.384 175.180 170.956  0.00  0.00    +0.292 HD
ENDBRANCH   6   7
BRANCH   4   9
ATOM      9  O   LIG    1      183.206 179.800 172.805  0.00  0.00    -0.507 OA
ATOM     10  H   LIG    1      182.498 180.025 173.432  0.00  0.00    +0.292 HD
ENDBRANCH   4   9
TORSDOF 6
