MODEL 1
REMARK VINA RESULT:      -9.1      0.000      0.000
REMARK  Name = 5280637
REMARK                            x       y       z     vdW  Elec       q    Type
REMARK                         _______ _______ _______ _____ _____    ______ ____
ROOT
ATOM     13  C   LIG    1        4.088  44.118  21.814  0.00  0.00    +0.131 A 
ATOM     14  C   LIG    1        3.262  43.256  21.092  0.00  0.00    +0.092 A 
ATOM     15  C   LIG    1        2.604  42.210  21.740  0.00  0.00    +0.135 A 
ATOM     16  C   LIG    1        2.779  42.031  23.114  0.00  0.00    +0.105 A 
ATOM     17  C   LIG    1        2.100  40.936  23.823  0.00  0.00    +0.197 A 
ATOM     18  C   LIG    1        2.356  40.843  25.275  0.00  0.00    +0.098 A 
ATOM     19  C   LIG    1        3.168  41.737  25.859  0.00  0.00    +0.139 A 
ATOM     30  O   LIG    1        3.813  42.764  25.187  0.00  0.00    -0.454 OA
ATOM     31  O   LIG    1        1.366  40.143  23.252  0.00  0.00    -0.287 OA
ATOM     32  C   LIG    1        3.604  42.892  23.836  0.00  0.00    +0.146 A 
ATOM     35  C   LIG    1        4.261  43.937  23.187  0.00  0.00    +0.093 A 
ENDROOT
BRANCH  19  20
ATOM     20  C   LIG    1        3.467  41.688  27.306  0.00  0.00    +0.021 A 
ATOM     21  C   LIG    1        2.685  40.903  28.156  0.00  0.00    +0.015 A 
ATOM     22  C   LIG    1        2.967  40.857  29.521  0.00  0.00    +0.050 A 
ATOM     23  C   LIG    1        4.031  41.596  30.040  0.00  0.00    +0.158 A 
ATOM     24  C   LIG    1        4.812  42.381  29.192  0.00  0.00    +0.159 A 
ATOM     29  C   LIG    1        4.531  42.427  27.827  0.00  0.00    +0.060 A 
BRANCH  24  25
ATOM     25  O   LIG    1        5.855  43.105  29.688  0.00  0.00    -0.503 OA
ATOM     26  H   LIG    1        5.741  44.031  29.415  0.00  0.00    +0.292 HD
ENDBRANCH  24  25
BRANCH  23  27
ATOM     27  O   LIG    1        4.294  41.543  31.375  0.00  0.00    -0.503 OA
ATOM     28  H   LIG    1        4.449  42.446  31.703  0.00  0.00    +0.292 HD
ENDBRANCH  23  27
ENDBRANCH  19  20
BRANCH  15  33
ATOM     33  O   LIG    1        1.809  41.396  20.990  0.00  0.00    -0.506 OA
ATOM     34  H   LIG    1        1.389  41.895  20.274  0.00  0.00    +0.292 HD
ENDBRANCH  15  33
BRANCH  13  12
ATOM     12  O   LIG    1        4.730  45.139  21.176  0.00  0.00    -0.461 OA
BRANCH  12   2
ATOM      1  O   LIG    1        7.017  45.554  21.370  0.00  0.00    -0.331 OA
ATOM      2  C   LIG    1        6.019  44.847  20.639  0.00  0.00    +0.339 C 
ATOM      3  C   LIG    1        6.024  45.276  19.172  0.00  0.00    +0.214 C 
ATOM      4  C   LIG    1        7.418  45.137  18.557  0.00  0.00    +0.180 C 
ATOM      5  C   LIG    1        8.483  45.769  19.452  0.00  0.00    +0.177 C 
ATOM     36  C   LIG    1        8.338  45.284  20.896  0.00  0.00    +0.179 C 
BRANCH   5   6
ATOM      6  O   LIG    1        9.776  45.419  18.965  0.00  0.00    -0.386 OA
ATOM      7  H   LIG    1       10.345  45.233  19.732  0.00  0.00    +0.210 HD
ENDBRANCH   5   6
BRANCH   4   8
ATOM      8  O   LIG    1        7.449  45.803  17.294  0.00  0.00    -0.386 OA
ATOM      9  H   LIG    1        8.109  46.514  17.356  0.00  0.00    +0.210 HD
ENDBRANCH   4   8
BRANCH   3  10
ATOM     10  O   LIG    1        5.107  44.447  18.459  0.00  0.00    -0.383 OA
ATOM     11  H   LIG    1        5.260  43.526  18.730  0.00  0.00    +0.210 HD
ENDBRANCH   3  10
BRANCH  36  37
ATOM     37  C   LIG    1        9.315  45.990  21.830  0.00  0.00    +0.190 C 
BRANCH  37  38
ATOM     38  O   LIG    1        9.887  47.085  21.139  0.00  0.00    -0.392 OA
ATOM     39  H   LIG    1       10.212  46.757  20.283  0.00  0.00    +0.210 HD
ENDBRANCH  37  38
ENDBRANCH  36  37
ENDBRANCH  12   2
ENDBRANCH  13  12
TORSDOF 11
ENDMDL
MODEL 2
REMARK VINA RESULT:      -9.0      1.978      8.284
REMARK  Name = 5280637
REMARK                            x       y       z     vdW  Elec       q    Type
REMARK                         _______ _______ _______ _____ _____    ______ ____
ROOT
ATOM     13  C   LIG    1        2.697  41.108  25.800  0.00  0.00    +0.131 A 
ATOM     14  C   LIG    1        1.968  40.110  25.152  0.00  0.00    +0.092 A 
ATOM     15  C   LIG    1        1.813  40.143  23.765  0.00  0.00    +0.135 A 
ATOM     16  C   LIG    1        2.392  41.182  23.032  0.00  0.00    +0.105 A 
ATOM     17  C   LIG    1        2.245  41.244  21.570  0.00  0.00    +0.197 A 
ATOM     18  C   LIG    1        2.900  42.384  20.896  0.00  0.00    +0.098 A 
ATOM     19  C   LIG    1        3.580  43.279  21.630  0.00  0.00    +0.139 A 
ATOM     30  O   LIG    1        3.711  43.222  23.009  0.00  0.00    -0.454 OA
ATOM     31  O   LIG    1        1.617  40.405  20.940  0.00  0.00    -0.287 OA
ATOM     32  C   LIG    1        3.121  42.179  23.678  0.00  0.00    +0.146 A 
ATOM     35  C   LIG    1        3.274  42.144  25.064  0.00  0.00    +0.093 A 
ENDROOT
BRANCH  19  20
ATOM     20  C   LIG    1        4.247  44.444  21.012  0.00  0.00    +0.021 A 
ATOM     21  C   LIG    1        4.246  45.679  21.663  0.00  0.00    +0.015 A 
ATOM     22  C   LIG    1        4.875  46.778  21.079  0.00  0.00    +0.050 A 
ATOM     23  C   LIG    1        5.508  46.645  19.843  0.00  0.00    +0.158 A 
ATOM     24  C   LIG    1        5.510  45.412  19.190  0.00  0.00    +0.159 A 
ATOM     29  C   LIG    1        4.881  44.312  19.774  0.00  0.00    +0.060 A 
BRANCH  24  25
ATOM     25  O   LIG    1        6.127  45.270  17.983  0.00  0.00    -0.503 OA
ATOM     26  H   LIG    1        6.562  44.401  17.962  0.00  0.00    +0.292 HD
ENDBRANCH  24  25
BRANCH  23  27
ATOM     27  O   LIG    1        6.118  47.726  19.283  0.00  0.00    -0.503 OA
ATOM     28  H   LIG    1        5.446  48.281  18.850  0.00  0.00    +0.292 HD
ENDBRANCH  23  27
ENDBRANCH  19  20
BRANCH  15  33
ATOM     33  O   LIG    1        1.092  39.146  23.181  0.00  0.00    -0.506 OA
ATOM     34  H   LIG    1        0.142  39.313  23.274  0.00  0.00    +0.292 HD
ENDBRANCH  15  33
BRANCH  13  12
ATOM     12  O   LIG    1        2.845  41.071  27.155  0.00  0.00    -0.461 OA
BRANCH  12   2
ATOM      1  O   LIG    1        5.121  41.566  27.288  0.00  0.00    -0.331 OA
ATOM      2  C   LIG    1        3.818  41.953  27.715  0.00  0.00    +0.339 C 
ATOM      3  C   LIG    1        3.705  41.871  29.237  0.00  0.00    +0.214 C 
ATOM      4  C   LIG    1        4.814  42.672  29.921  0.00  0.00    +0.180 C 
ATOM      5  C   LIG    1        6.183  42.345  29.323  0.00  0.00    +0.177 C 
ATOM     36  C   LIG    1        6.142  42.427  27.796  0.00  0.00    +0.179 C 
BRANCH   5   6
ATOM      6  O   LIG    1        7.147  43.269  29.820  0.00  0.00    -0.386 OA
ATOM      7  H   LIG    1        6.720  43.809  30.507  0.00  0.00    +0.210 HD
ENDBRANCH   5   6
BRANCH   4   8
ATOM      8  O   LIG    1        4.848  42.346  31.311  0.00  0.00    -0.386 OA
ATOM      9  H   LIG    1        4.731  43.175  31.807  0.00  0.00    +0.210 HD
ENDBRANCH   4   8
BRANCH   3  10
ATOM     10  O   LIG    1        2.435  42.396  29.622  0.00  0.00    -0.383 OA
ATOM     11  H   LIG    1        1.857  41.648  29.853  0.00  0.00    +0.210 HD
ENDBRANCH   3  10
BRANCH  36  37
ATOM     37  C   LIG    1        7.464  41.991  27.172  0.00  0.00    +0.190 C 
BRANCH  37  38
ATOM     38  O   LIG    1        8.277  43.136  26.991  0.00  0.00    -0.392 OA
ATOM     39  H   LIG    1        8.617  43.398  27.864  0.00  0.00    +0.210 HD
ENDBRANCH  37  38
ENDBRANCH  36  37
ENDBRANCH  12   2
ENDBRANCH  13  12
TORSDOF 11
ENDMDL
MODEL 3
REMARK VINA RESULT:      -8.8      2.605      5.132
REMARK  Name = 5280637
REMARK                            x       y       z     vdW  Elec       q    Type
REMARK                         _______ _______ _______ _____ _____    ______ ____
ROOT
ATOM     13  C   LIG    1        3.687  43.530  22.453  0.00  0.00    +0.131 A 
ATOM     14  C   LIG    1        4.081  43.849  23.753  0.00  0.00    +0.092 A 
ATOM     15  C   LIG    1        3.749  43.006  24.814  0.00  0.00    +0.135 A 
ATOM     16  C   LIG    1        3.019  41.841  24.565  0.00  0.00    +0.105 A 
ATOM     17  C   LIG    1        2.652  40.933  25.663  0.00  0.00    +0.197 A 
ATOM     18  C   LIG    1        1.882  39.731  25.285  0.00  0.00    +0.098 A 
ATOM     19  C   LIG    1        1.566  39.530  23.996  0.00  0.00    +0.139 A 
ATOM     30  O   LIG    1        1.906  40.391  22.965  0.00  0.00    -0.454 OA
ATOM     31  O   LIG    1        2.963  41.154  26.825  0.00  0.00    -0.287 OA
ATOM     32  C   LIG    1        2.624  41.521  23.267  0.00  0.00    +0.146 A 
ATOM     35  C   LIG    1        2.957  42.365  22.208  0.00  0.00    +0.093 A 
ENDROOT
BRANCH  19  20
ATOM     20  C   LIG    1        0.790  38.350  23.562  0.00  0.00    +0.021 A 
ATOM     21  C   LIG    1       -0.529  38.183  23.988  0.00  0.00    +0.015 A 
ATOM     22  C   LIG    1       -1.261  37.068  23.579  0.00  0.00    +0.050 A 
ATOM     23  C   LIG    1       -0.676  36.119  22.740  0.00  0.00    +0.158 A 
ATOM     24  C   LIG    1        0.642  36.283  22.313  0.00  0.00    +0.159 A 
ATOM     29  C   LIG    1        1.374  37.398  22.723  0.00  0.00    +0.060 A 
BRANCH  24  25
ATOM     25  O   LIG    1        1.222  35.363  21.493  0.00  0.00    -0.503 OA
ATOM     26  H   LIG    1        0.579  35.117  20.806  0.00  0.00    +0.292 HD
ENDBRANCH  24  25
BRANCH  23  27
ATOM     27  O   LIG    1       -1.401  35.034  22.348  0.00  0.00    -0.503 OA
ATOM     28  H   LIG    1       -0.984  34.230  22.701  0.00  0.00    +0.292 HD
ENDBRANCH  23  27
ENDBRANCH  19  20
BRANCH  15  33
ATOM     33  O   LIG    1        4.157  43.362  26.063  0.00  0.00    -0.506 OA
ATOM     34  H   LIG    1        3.943  42.666  26.703  0.00  0.00    +0.292 HD
ENDBRANCH  15  33
BRANCH  13  12
ATOM     12  O   LIG    1        4.014  44.358  21.420  0.00  0.00    -0.461 OA
BRANCH  12   2
ATOM      1  O   LIG    1        6.236  45.032  21.195  0.00  0.00    -0.331 OA
ATOM      2  C   LIG    1        5.252  44.097  20.760  0.00  0.00    +0.339 C 
ATOM      3  C   LIG    1        5.019  44.225  19.255  0.00  0.00    +0.214 C 
ATOM      4  C   LIG    1        6.330  44.109  18.477  0.00  0.00    +0.180 C 
ATOM      5  C   LIG    1        7.410  45.011  19.075  0.00  0.00    +0.177 C 
ATOM     36  C   LIG    1        7.510  44.809  20.588  0.00  0.00    +0.179 C 
BRANCH   5   6
ATOM      6  O   LIG    1        8.666  44.704  18.474  0.00  0.00    -0.386 OA
ATOM      7  H   LIG    1        9.239  44.318  19.158  0.00  0.00    +0.210 HD
ENDBRANCH   5   6
BRANCH   4   8
ATOM      8  O   LIG    1        6.117  44.511  17.123  0.00  0.00    -0.386 OA
ATOM      9  H   LIG    1        5.971  43.704  16.600  0.00  0.00    +0.210 HD
ENDBRANCH   4   8
BRANCH   3  10
ATOM     10  O   LIG    1        4.133  43.183  18.848  0.00  0.00    -0.383 OA
ATOM     11  H   LIG    1        4.588  42.646  18.177  0.00  0.00    +0.210 HD
ENDBRANCH   3  10
BRANCH  36  37
ATOM     37  C   LIG    1        8.499  45.782  21.223  0.00  0.00    +0.190 C 
BRANCH  37  38
ATOM     38  O   LIG    1        8.688  46.872  20.340  0.00  0.00    -0.392 OA
ATOM     39  H   LIG    1        9.199  46.549  19.578  0.00  0.00    +0.210 HD
ENDBRANCH  37  38
ENDBRANCH  36  37
ENDBRANCH  12   2
ENDBRANCH  13  12
TORSDOF 11
ENDMDL
MODEL 4
REMARK VINA RESULT:      -8.8      1.893      2.644
REMARK  Name = 5280637
REMARK                            x       y       z     vdW  Elec       q    Type
REMARK                         _______ _______ _______ _____ _____    ______ ____
ROOT
ATOM     13  C   LIG    1        5.873  44.208  20.545  0.00  0.00    +0.131 A 
ATOM     14  C   LIG    1        5.002  43.829  19.524  0.00  0.00    +0.092 A 
ATOM     15  C   LIG    1        3.878  43.054  19.813  0.00  0.00    +0.135 A 
ATOM     16  C   LIG    1        3.632  42.662  21.131  0.00  0.00    +0.105 A 
ATOM     17  C   LIG    1        2.457  41.844  21.466  0.00  0.00    +0.197 A 
ATOM     18  C   LIG    1        2.294  41.488  22.891  0.00  0.00    +0.098 A 
ATOM     19  C   LIG    1        3.199  41.919  23.784  0.00  0.00    +0.139 A 
ATOM     30  O   LIG    1        4.311  42.683  23.463  0.00  0.00    -0.454 OA
ATOM     31  O   LIG    1        1.655  41.474  20.620  0.00  0.00    -0.287 OA
ATOM     32  C   LIG    1        4.502  43.041  22.152  0.00  0.00    +0.146 A 
ATOM     35  C   LIG    1        5.625  43.814  21.861  0.00  0.00    +0.093 A 
ENDROOT
BRANCH  19  20
ATOM     20  C   LIG    1        3.093  41.587  25.220  0.00  0.00    +0.021 A 
ATOM     21  C   LIG    1        2.362  40.470  25.629  0.00  0.00    +0.015 A 
ATOM     22  C   LIG    1        2.260  40.158  26.984  0.00  0.00    +0.050 A 
ATOM     23  C   LIG    1        2.891  40.961  27.934  0.00  0.00    +0.158 A 
ATOM     24  C   LIG    1        3.622  42.078  27.528  0.00  0.00    +0.159 A 
ATOM     29  C   LIG    1        3.723  42.391  26.173  0.00  0.00    +0.060 A 
BRANCH  24  25
ATOM     25  O   LIG    1        4.244  42.869  28.448  0.00  0.00    -0.503 OA
ATOM     26  H   LIG    1        4.825  43.489  27.975  0.00  0.00    +0.292 HD
ENDBRANCH  24  25
BRANCH  23  27
ATOM     27  O   LIG    1        2.784  40.647  29.255  0.00  0.00    -0.503 OA
ATOM     28  H   LIG    1        2.732  39.679  29.347  0.00  0.00    +0.292 HD
ENDBRANCH  23  27
ENDBRANCH  19  20
BRANCH  15  33
ATOM     33  O   LIG    1        3.058  42.710  18.781  0.00  0.00    -0.506 OA
ATOM     34  H   LIG    1        3.128  43.354  18.061  0.00  0.00    +0.292 HD
ENDBRANCH  15  33
BRANCH  13  12
ATOM     12  O   LIG    1        6.971  44.965  20.257  0.00  0.00    -0.461 OA
BRANCH  12   2
ATOM      1  O   LIG    1        8.962  43.855  20.751  0.00  0.00    -0.331 OA
ATOM      2  C   LIG    1        8.093  44.278  19.704  0.00  0.00    +0.339 C 
ATOM      3  C   LIG    1        8.817  45.242  18.763  0.00  0.00    +0.214 C 
ATOM      4  C   LIG    1       10.120  44.635  18.241  0.00  0.00    +0.180 C 
ATOM      5  C   LIG    1       10.952  44.047  19.381  0.00  0.00    +0.177 C 
ATOM     36  C   LIG    1       10.097  43.136  20.264  0.00  0.00    +0.179 C 
BRANCH   5   6
ATOM      6  O   LIG    1       12.034  43.296  18.835  0.00  0.00    -0.386 OA
ATOM      7  H   LIG    1       11.864  42.354  19.013  0.00  0.00    +0.210 HD
ENDBRANCH   5   6
BRANCH   4   8
ATOM      8  O   LIG    1       10.896  45.651  17.605  0.00  0.00    -0.386 OA
ATOM      9  H   LIG    1       10.308  46.410  17.447  0.00  0.00    +0.210 HD
ENDBRANCH   4   8
BRANCH   3  10
ATOM     10  O   LIG    1        7.953  45.527  17.663  0.00  0.00    -0.383 OA
ATOM     11  H   LIG    1        8.022  44.794  17.028  0.00  0.00    +0.210 HD
ENDBRANCH   3  10
BRANCH  36  37
ATOM     37  C   LIG    1       10.876  42.631  21.474  0.00  0.00    +0.190 C 
BRANCH  37  38
ATOM     38  O   LIG    1       11.878  43.579  21.793  0.00  0.00    -0.392 OA
ATOM     39  H   LIG    1       11.768  44.337  21.194  0.00  0.00    +0.210 HD
ENDBRANCH  37  38
ENDBRANCH  36  37
ENDBRANCH  12   2
ENDBRANCH  13  12
TORSDOF 11
ENDMDL
MODEL 5
REMARK VINA RESULT:      -8.5      1.877      9.478
REMARK  Name = 5280637
REMARK                            x       y       z     vdW  Elec       q    Type
REMARK                         _______ _______ _______ _____ _____    ______ ____
ROOT
ATOM     13  C   LIG    1        3.730  42.297  25.900  0.00  0.00    +0.131 A 
ATOM     14  C   LIG    1        2.781  41.420  25.376  0.00  0.00    +0.092 A 
ATOM     15  C   LIG    1        2.454  41.467  24.020  0.00  0.00    +0.135 A 
ATOM     16  C   LIG    1        3.084  42.399  23.192  0.00  0.00    +0.105 A 
ATOM     17  C   LIG    1        2.759  42.474  21.760  0.00  0.00    +0.197 A 
ATOM     18  C   LIG    1        3.487  43.496  20.979  0.00  0.00    +0.098 A 
ATOM     19  C   LIG    1        4.384  44.280  21.596  0.00  0.00    +0.139 A 
ATOM     30  O   LIG    1        4.682  44.212  22.948  0.00  0.00    -0.454 OA
ATOM     31  O   LIG    1        1.935  41.738  21.237  0.00  0.00    -0.287 OA
ATOM     32  C   LIG    1        4.033  43.277  23.715  0.00  0.00    +0.146 A 
ATOM     35  C   LIG    1        4.357  43.228  25.070  0.00  0.00    +0.093 A 
ENDROOT
BRANCH  19  20
ATOM     20  C   LIG    1        5.135  45.324  20.868  0.00  0.00    +0.021 A 
ATOM     21  C   LIG    1        4.672  46.641  20.857  0.00  0.00    +0.015 A 
ATOM     22  C   LIG    1        5.380  47.626  20.168  0.00  0.00    +0.050 A 
ATOM     23  C   LIG    1        6.554  47.296  19.490  0.00  0.00    +0.158 A 
ATOM     24  C   LIG    1        7.018  45.981  19.500  0.00  0.00    +0.159 A 
ATOM     29  C   LIG    1        6.310  44.996  20.188  0.00  0.00    +0.060 A 
BRANCH  24  25
ATOM     25  O   LIG    1        8.165  45.648  18.842  0.00  0.00    -0.503 OA
ATOM     26  H   LIG    1        8.599  46.468  18.551  0.00  0.00    +0.292 HD
ENDBRANCH  24  25
BRANCH  23  27
ATOM     27  O   LIG    1        7.236  48.267  18.821  0.00  0.00    -0.503 OA
ATOM     28  H   LIG    1        6.853  49.133  19.042  0.00  0.00    +0.292 HD
ENDBRANCH  23  27
ENDBRANCH  19  20
BRANCH  15  33
ATOM     33  O   LIG    1        1.520  40.589  23.558  0.00  0.00    -0.506 OA
ATOM     34  H   LIG    1        0.864  40.398  24.245  0.00  0.00    +0.292 HD
ENDBRANCH  15  33
BRANCH  13  12
ATOM     12  O   LIG    1        4.045  42.247  27.226  0.00  0.00    -0.461 OA
BRANCH  12   2
ATOM      1  O   LIG    1        2.611  41.956  29.043  0.00  0.00    -0.331 OA
ATOM      2  C   LIG    1        3.339  41.291  28.014  0.00  0.00    +0.339 C 
ATOM      3  C   LIG    1        4.364  40.331  28.619  0.00  0.00    +0.214 C 
ATOM      4  C   LIG    1        3.706  39.361  29.601  0.00  0.00    +0.180 C 
ATOM      5  C   LIG    1        2.805  40.101  30.590  0.00  0.00    +0.177 C 
ATOM     36  C   LIG    1        1.859  41.053  29.855  0.00  0.00    +0.179 C 
BRANCH   5   6
ATOM      6  O   LIG    1        2.040  39.153  31.330  0.00  0.00    -0.386 OA
ATOM      7  H   LIG    1        1.376  39.642  31.846  0.00  0.00    +0.210 HD
ENDBRANCH   5   6
BRANCH   4   8
ATOM      8  O   LIG    1        4.717  38.680  30.346  0.00  0.00    -0.386 OA
ATOM      9  H   LIG    1        4.352  38.493  31.228  0.00  0.00    +0.210 HD
ENDBRANCH   4   8
BRANCH   3  10
ATOM     10  O   LIG    1        4.967  39.592  27.556  0.00  0.00    -0.383 OA
ATOM     11  H   LIG    1        5.574  38.941  27.949  0.00  0.00    +0.210 HD
ENDBRANCH   3  10
BRANCH  36  37
ATOM     37  C   LIG    1        1.032  41.888  30.828  0.00  0.00    +0.190 C 
BRANCH  37  38
ATOM     38  O   LIG    1        1.854  42.252  31.921  0.00  0.00    -0.392 OA
ATOM     39  H   LIG    1        2.698  42.575  31.561  0.00  0.00    +0.210 HD
ENDBRANCH  37  38
ENDBRANCH  36  37
ENDBRANCH  12   2
ENDBRANCH  13  12
TORSDOF 11
ENDMDL
MODEL 6
REMARK VINA RESULT:      -8.3      3.089      6.464
REMARK  Name = 5280637
REMARK                            x       y       z     vdW  Elec       q    Type
REMARK                         _______ _______ _______ _____ _____    ______ ____
ROOT
ATOM     13  C   LIG    1        9.377  44.443  19.894  0.00  0.00    +0.131 A 
ATOM     14  C   LIG    1        9.128  45.773  19.555  0.00  0.00    +0.092 A 
ATOM     15  C   LIG    1        7.862  46.323  19.757  0.00  0.00    +0.135 A 
ATOM     16  C   LIG    1        6.847  45.533  20.302  0.00  0.00    +0.105 A 
ATOM     17  C   LIG    1        5.502  46.085  20.526  0.00  0.00    +0.197 A 
ATOM     18  C   LIG    1        4.507  45.161  21.108  0.00  0.00    +0.098 A 
ATOM     19  C   LIG    1        4.869  43.902  21.398  0.00  0.00    +0.139 A 
ATOM     30  O   LIG    1        6.136  43.382  21.178  0.00  0.00    -0.454 OA
ATOM     31  O   LIG    1        5.215  47.241  20.248  0.00  0.00    -0.287 OA
ATOM     32  C   LIG    1        7.095  44.204  20.641  0.00  0.00    +0.146 A 
ATOM     35  C   LIG    1        8.361  43.656  20.437  0.00  0.00    +0.093 A 
ENDROOT
BRANCH  19  20
ATOM     20  C   LIG    1        3.915  42.931  21.973  0.00  0.00    +0.021 A 
ATOM     21  C   LIG    1        3.119  42.149  21.134  0.00  0.00    +0.015 A 
ATOM     22  C   LIG    1        2.217  41.234  21.677  0.00  0.00    +0.050 A 
ATOM     23  C   LIG    1        2.109  41.099  23.061  0.00  0.00    +0.158 A 
ATOM     24  C   LIG    1        2.902  41.880  23.902  0.00  0.00    +0.159 A 
ATOM     29  C   LIG    1        3.804  42.795  23.359  0.00  0.00    +0.060 A 
BRANCH  24  25
ATOM     25  O   LIG    1        2.805  41.755  25.255  0.00  0.00    -0.503 OA
ATOM     26  H   LIG    1        3.601  42.143  25.656  0.00  0.00    +0.292 HD
ENDBRANCH  24  25
BRANCH  23  27
ATOM     27  O   LIG    1        1.224  40.203  23.579  0.00  0.00    -0.503 OA
ATOM     28  H   LIG    1        1.084  39.487  22.936  0.00  0.00    +0.292 HD
ENDBRANCH  23  27
ENDBRANCH  19  20
BRANCH  15  33
ATOM     33  O   LIG    1        7.670  47.626  19.409  0.00  0.00    -0.506 OA
ATOM     34  H   LIG    1        7.147  47.688  18.596  0.00  0.00    +0.292 HD
ENDBRANCH  15  33
BRANCH  13  12
ATOM     12  O   LIG    1       10.617  43.910  19.693  0.00  0.00    -0.461 OA
BRANCH  12   2
ATOM      1  O   LIG    1       11.534  44.364  21.789  0.00  0.00    -0.331 OA
ATOM      2  C   LIG    1       11.260  43.343  20.833  0.00  0.00    +0.339 C 
ATOM      3  C   LIG    1       12.559  42.687  20.363  0.00  0.00    +0.214 C 
ATOM      4  C   LIG    1       13.388  42.184  21.545  0.00  0.00    +0.180 C 
ATOM      5  C   LIG    1       13.523  43.259  22.624  0.00  0.00    +0.177 C 
ATOM     36  C   LIG    1       12.158  43.856  22.970  0.00  0.00    +0.179 C 
BRANCH   5   6
ATOM      6  O   LIG    1       14.097  42.684  23.794  0.00  0.00    -0.386 OA
ATOM      7  H   LIG    1       14.217  43.392  24.449  0.00  0.00    +0.210 HD
ENDBRANCH   5   6
BRANCH   4   8
ATOM      8  O   LIG    1       14.699  41.841  21.095  0.00  0.00    -0.386 OA
ATOM      9  H   LIG    1       15.031  42.590  20.569  0.00  0.00    +0.210 HD
ENDBRANCH   4   8
BRANCH   3  10
ATOM     10  O   LIG    1       12.225  41.587  19.517  0.00  0.00    -0.383 OA
ATOM     11  H   LIG    1       11.260  41.588  19.388  0.00  0.00    +0.210 HD
ENDBRANCH   3  10
BRANCH  36  37
ATOM     37  C   LIG    1       12.281  45.012  23.958  0.00  0.00    +0.190 C 
BRANCH  37  38
ATOM     38  O   LIG    1       13.629  45.446  23.977  0.00  0.00    -0.392 OA
ATOM     39  H   LIG    1       13.825  45.839  23.110  0.00  0.00    +0.210 HD
ENDBRANCH  37  38
ENDBRANCH  36  37
ENDBRANCH  12   2
ENDBRANCH  13  12
TORSDOF 11
ENDMDL
MODEL 7
REMARK VINA RESULT:      -8.0      2.809      5.127
REMARK  Name = 5280637
REMARK                            x       y       z     vdW  Elec       q    Type
REMARK                         _______ _______ _______ _____ _____    ______ ____
ROOT
ATOM     13  C   LIG    1        8.293  44.774  19.513  0.00  0.00    +0.131 A 
ATOM     14  C   LIG    1        7.556  44.644  18.336  0.00  0.00    +0.092 A 
ATOM     15  C   LIG    1        6.252  44.150  18.377  0.00  0.00    +0.135 A 
ATOM     16  C   LIG    1        5.690  43.788  19.603  0.00  0.00    +0.105 A 
ATOM     17  C   LIG    1        4.318  43.263  19.677  0.00  0.00    +0.197 A 
ATOM     18  C   LIG    1        3.825  42.914  21.025  0.00  0.00    +0.098 A 
ATOM     19  C   LIG    1        4.629  43.090  22.086  0.00  0.00    +0.139 A 
ATOM     30  O   LIG    1        5.924  43.578  22.012  0.00  0.00    -0.454 OA
ATOM     31  O   LIG    1        3.619  43.120  18.684  0.00  0.00    -0.287 OA
ATOM     32  C   LIG    1        6.425  43.919  20.780  0.00  0.00    +0.146 A 
ATOM     35  C   LIG    1        7.729  44.412  20.737  0.00  0.00    +0.093 A 
ENDROOT
BRANCH  19  20
ATOM     20  C   LIG    1        4.193  42.751  23.456  0.00  0.00    +0.021 A 
ATOM     21  C   LIG    1        4.721  43.439  24.550  0.00  0.00    +0.015 A 
ATOM     22  C   LIG    1        4.311  43.117  25.844  0.00  0.00    +0.050 A 
ATOM     23  C   LIG    1        3.370  42.107  26.047  0.00  0.00    +0.158 A 
ATOM     24  C   LIG    1        2.841  41.418  24.955  0.00  0.00    +0.159 A 
ATOM     29  C   LIG    1        3.252  41.740  23.661  0.00  0.00    +0.060 A 
BRANCH  24  25
ATOM     25  O   LIG    1        1.921  40.431  25.142  0.00  0.00    -0.503 OA
ATOM     26  H   LIG    1        2.364  39.573  25.028  0.00  0.00    +0.292 HD
ENDBRANCH  24  25
BRANCH  23  27
ATOM     27  O   LIG    1        2.978  41.802  27.315  0.00  0.00    -0.503 OA
ATOM     28  H   LIG    1        2.006  41.775  27.349  0.00  0.00    +0.292 HD
ENDBRANCH  23  27
ENDBRANCH  19  20
BRANCH  15  33
ATOM     33  O   LIG    1        5.575  44.041  17.200  0.00  0.00    -0.506 OA
ATOM     34  H   LIG    1        4.626  44.181  17.338  0.00  0.00    +0.292 HD
ENDBRANCH  15  33
BRANCH  13  12
ATOM     12  O   LIG    1        9.568  45.257  19.469  0.00  0.00    -0.461 OA
BRANCH  12   2
ATOM      1  O   LIG    1       11.209  43.795  20.251  0.00  0.00    -0.331 OA
ATOM      2  C   LIG    1       10.587  44.334  19.088  0.00  0.00    +0.339 C 
ATOM      3  C   LIG    1       11.608  45.087  18.235  0.00  0.00    +0.214 C 
ATOM      4  C   LIG    1       12.816  44.207  17.907  0.00  0.00    +0.180 C 
ATOM      5  C   LIG    1       13.356  43.519  19.161  0.00  0.00    +0.177 C 
ATOM     36  C   LIG    1       12.225  42.840  19.938  0.00  0.00    +0.179 C 
BRANCH   5   6
ATOM      6  O   LIG    1       14.321  42.541  18.783  0.00  0.00    -0.386 OA
ATOM      7  H   LIG    1       15.096  43.007  18.425  0.00  0.00    +0.210 HD
ENDBRANCH   5   6
BRANCH   4   8
ATOM      8  O   LIG    1       13.859  45.016  17.362  0.00  0.00    -0.386 OA
ATOM      9  H   LIG    1       14.632  44.440  17.225  0.00  0.00    +0.210 HD
ENDBRANCH   4   8
BRANCH   3  10
ATOM     10  O   LIG    1       10.971  45.487  17.022  0.00  0.00    -0.383 OA
ATOM     11  H   LIG    1       10.479  44.723  16.674  0.00  0.00    +0.210 HD
ENDBRANCH   3  10
BRANCH  36  37
ATOM     37  C   LIG    1       12.721  42.247  21.253  0.00  0.00    +0.190 C 
BRANCH  37  38
ATOM     38  O   LIG    1       12.365  40.878  21.292  0.00  0.00    -0.392 OA
ATOM     39  H   LIG    1       13.180  40.357  21.179  0.00  0.00    +0.210 HD
ENDBRANCH  37  38
ENDBRANCH  36  37
ENDBRANCH  12   2
ENDBRANCH  13  12
TORSDOF 11
ENDMDL
MODEL 8
REMARK VINA RESULT:      -7.9      3.700     10.314
REMARK  Name = 5280637
REMARK                            x       y       z     vdW  Elec       q    Type
REMARK                         _______ _______ _______ _____ _____    ______ ____
ROOT
ATOM     13  C   LIG    1        1.416  39.147  24.534  0.00  0.00    +0.131 A 
ATOM     14  C   LIG    1        1.690  39.425  25.874  0.00  0.00    +0.092 A 
ATOM     15  C   LIG    1        2.431  40.556  26.218  0.00  0.00    +0.135 A 
ATOM     16  C   LIG    1        2.897  41.407  25.212  0.00  0.00    +0.105 A 
ATOM     17  C   LIG    1        3.682  42.606  25.544  0.00  0.00    +0.197 A 
ATOM     18  C   LIG    1        4.121  43.434  24.402  0.00  0.00    +0.098 A 
ATOM     19  C   LIG    1        3.789  43.065  23.155  0.00  0.00    +0.139 A 
ATOM     30  O   LIG    1        3.055  41.930  22.845  0.00  0.00    -0.454 OA
ATOM     31  O   LIG    1        3.961  42.906  26.696  0.00  0.00    -0.287 OA
ATOM     32  C   LIG    1        2.623  41.130  23.873  0.00  0.00    +0.146 A 
ATOM     35  C   LIG    1        1.883  39.999  23.532  0.00  0.00    +0.093 A 
ENDROOT
BRANCH  19  20
ATOM     20  C   LIG    1        4.208  43.849  21.975  0.00  0.00    +0.021 A 
ATOM     21  C   LIG    1        4.300  45.240  22.055  0.00  0.00    +0.015 A 
ATOM     22  C   LIG    1        4.694  45.981  20.940  0.00  0.00    +0.050 A 
ATOM     23  C   LIG    1        4.997  45.332  19.743  0.00  0.00    +0.158 A 
ATOM     24  C   LIG    1        4.905  43.942  19.661  0.00  0.00    +0.159 A 
ATOM     29  C   LIG    1        4.511  43.202  20.775  0.00  0.00    +0.060 A 
BRANCH  24  25
ATOM     25  O   LIG    1        5.201  43.298  18.497  0.00  0.00    -0.503 OA
ATOM     26  H   LIG    1        4.434  43.370  17.904  0.00  0.00    +0.292 HD
ENDBRANCH  24  25
BRANCH  23  27
ATOM     27  O   LIG    1        5.380  46.066  18.662  0.00  0.00    -0.503 OA
ATOM     28  H   LIG    1        4.618  46.580  18.342  0.00  0.00    +0.292 HD
ENDBRANCH  23  27
ENDBRANCH  19  20
BRANCH  15  33
ATOM     33  O   LIG    1        2.672  40.783  27.539  0.00  0.00    -0.506 OA
ATOM     34  H   LIG    1        3.390  40.215  27.857  0.00  0.00    +0.292 HD
ENDBRANCH  15  33
BRANCH  13  12
ATOM     12  O   LIG    1        0.691  38.040  24.203  0.00  0.00    -0.461 OA
BRANCH  12   2
ATOM      1  O   LIG    1       -0.582  37.570  26.101  0.00  0.00    -0.331 OA
ATOM      2  C   LIG    1       -0.632  37.962  24.732  0.00  0.00    +0.339 C 
ATOM      3  C   LIG    1       -1.407  36.933  23.907  0.00  0.00    +0.214 C 
ATOM      4  C   LIG    1       -2.793  36.676  24.500  0.00  0.00    +0.180 C 
ATOM      5  C   LIG    1       -2.712  36.417  26.005  0.00  0.00    +0.177 C 
ATOM     36  C   LIG    1       -1.878  37.497  26.698  0.00  0.00    +0.179 C 
BRANCH   5   6
ATOM      6  O   LIG    1       -4.027  36.412  26.554  0.00  0.00    -0.386 OA
ATOM      7  H   LIG    1       -4.338  35.491  26.579  0.00  0.00    +0.210 HD
ENDBRANCH   5   6
BRANCH   4   8
ATOM      8  O   LIG    1       -3.367  35.523  23.883  0.00  0.00    -0.386 OA
ATOM      9  H   LIG    1       -4.266  35.419  24.241  0.00  0.00    +0.210 HD
ENDBRANCH   4   8
BRANCH   3  10
ATOM     10  O   LIG    1       -1.546  37.436  22.579  0.00  0.00    -0.383 OA
ATOM     11  H   LIG    1       -0.699  37.312  22.119  0.00  0.00    +0.210 HD
ENDBRANCH   3  10
BRANCH  36  37
ATOM     37  C   LIG    1       -1.685  37.196  28.181  0.00  0.00    +0.190 C 
BRANCH  37  38
ATOM     38  O   LIG    1       -2.858  37.579  28.875  0.00  0.00    -0.392 OA
ATOM     39  H   LIG    1       -3.465  36.818  28.872  0.00  0.00    +0.210 HD
ENDBRANCH  37  38
ENDBRANCH  36  37
ENDBRANCH  12   2
ENDBRANCH  13  12
TORSDOF 11
ENDMDL
MODEL 9
REMARK VINA RESULT:      -7.9      2.983      9.094
REMARK  Name = 5280637
REMARK                            x       y       z     vdW  Elec       q    Type
REMARK                         _______ _______ _______ _____ _____    ______ ____
ROOT
ATOM     13  C   LIG    1        5.206  42.798  20.552  0.00  0.00    +0.131 A 
ATOM     14  C   LIG    1        4.754  44.099  20.329  0.00  0.00    +0.092 A 
ATOM     15  C   LIG    1        5.658  45.109  20.000  0.00  0.00    +0.135 A 
ATOM     16  C   LIG    1        7.018  44.809  19.894  0.00  0.00    +0.105 A 
ATOM     17  C   LIG    1        7.995  45.853  19.550  0.00  0.00    +0.197 A 
ATOM     18  C   LIG    1        9.406  45.423  19.464  0.00  0.00    +0.098 A 
ATOM     19  C   LIG    1        9.717  44.138  19.694  0.00  0.00    +0.139 A 
ATOM     30  O   LIG    1        8.795  43.158  20.027  0.00  0.00    -0.454 OA
ATOM     31  O   LIG    1        7.667  47.013  19.345  0.00  0.00    -0.287 OA
ATOM     32  C   LIG    1        7.471  43.509  20.116  0.00  0.00    +0.146 A 
ATOM     35  C   LIG    1        6.566  42.502  20.446  0.00  0.00    +0.093 A 
ENDROOT
BRANCH  19  20
ATOM     20  C   LIG    1       11.111  43.653  19.631  0.00  0.00    +0.021 A 
ATOM     21  C   LIG    1       12.013  44.226  18.732  0.00  0.00    +0.015 A 
ATOM     22  C   LIG    1       13.328  43.767  18.671  0.00  0.00    +0.050 A 
ATOM     23  C   LIG    1       13.747  42.735  19.511  0.00  0.00    +0.158 A 
ATOM     24  C   LIG    1       12.848  42.160  20.410  0.00  0.00    +0.159 A 
ATOM     29  C   LIG    1       11.532  42.619  20.471  0.00  0.00    +0.060 A 
BRANCH  24  25
ATOM     25  O   LIG    1       13.246  41.152  21.236  0.00  0.00    -0.503 OA
ATOM     26  H   LIG    1       13.510  41.540  22.087  0.00  0.00    +0.292 HD
ENDBRANCH  24  25
BRANCH  23  27
ATOM     27  O   LIG    1       15.034  42.295  19.442  0.00  0.00    -0.503 OA
ATOM     28  H   LIG    1       15.553  42.721  20.145  0.00  0.00    +0.292 HD
ENDBRANCH  23  27
ENDBRANCH  19  20
BRANCH  15  33
ATOM     33  O   LIG    1        5.166  46.362  19.793  0.00  0.00    -0.506 OA
ATOM     34  H   LIG    1        4.302  46.464  20.220  0.00  0.00    +0.292 HD
ENDBRANCH  15  33
BRANCH  13  12
ATOM     12  O   LIG    1        4.318  41.814  20.875  0.00  0.00    -0.461 OA
BRANCH  12   2
ATOM      1  O   LIG    1        4.644  41.612  23.176  0.00  0.00    -0.331 OA
ATOM      2  C   LIG    1        3.696  41.911  22.155  0.00  0.00    +0.339 C 
ATOM      3  C   LIG    1        2.537  40.914  22.191  0.00  0.00    +0.214 C 
ATOM      4  C   LIG    1        1.907  40.843  23.582  0.00  0.00    +0.180 C 
ATOM      5  C   LIG    1        2.973  40.683  24.666  0.00  0.00    +0.177 C 
ATOM     36  C   LIG    1        4.088  41.716  24.488  0.00  0.00    +0.179 C 
BRANCH   5   6
ATOM      6  O   LIG    1        2.373  40.853  25.947  0.00  0.00    -0.386 OA
ATOM      7  H   LIG    1        2.488  40.025  26.444  0.00  0.00    +0.210 HD
ENDBRANCH   5   6
BRANCH   4   8
ATOM      8  O   LIG    1        1.032  39.716  23.651  0.00  0.00    -0.386 OA
ATOM      9  H   LIG    1        0.143  40.024  23.404  0.00  0.00    +0.210 HD
ENDBRANCH   4   8
BRANCH   3  10
ATOM     10  O   LIG    1        1.554  41.335  21.246  0.00  0.00    -0.383 OA
ATOM     11  H   LIG    1        1.759  40.919  20.391  0.00  0.00    +0.210 HD
ENDBRANCH   3  10
BRANCH  36  37
ATOM     37  C   LIG    1        5.222  41.500  25.486  0.00  0.00    +0.190 C 
BRANCH  37  38
ATOM     38  O   LIG    1        4.895  42.171  26.690  0.00  0.00    -0.392 OA
ATOM     39  H   LIG    1        5.723  42.508  27.074  0.00  0.00    +0.210 HD
ENDBRANCH  37  38
ENDBRANCH  36  37
ENDBRANCH  12   2
ENDBRANCH  13  12
TORSDOF 11
ENDMDL
