MODEL 1
REMARK VINA RESULT:    -9.092      0.000      0.000
REMARK INTER + INTRA:         -14.046
REMARK INTER:                 -13.019
REMARK INTRA:                  -1.027
REMARK UNBOUND:                -0.968
REMARK  Name = 5280637
REMARK                            x       y       z     vdW  Elec       q    Type
REMARK                         _______ _______ _______ _____ _____    ______ ____
ROOT
ATOM     13  C   LIG    1        4.112  44.022  21.761  0.00  0.00    +0.131 A 
ATOM     14  C   LIG    1        3.317  43.135  21.035  0.00  0.00    +0.092 A 
ATOM     15  C   LIG    1        2.662  42.088  21.683  0.00  0.00    +0.135 A 
ATOM     16  C   LIG    1        2.807  41.934  23.064  0.00  0.00    +0.105 A 
ATOM     17  C   LIG    1        2.130  40.840  23.776  0.00  0.00    +0.197 A 
ATOM     18  C   LIG    1        2.352  40.774  25.235  0.00  0.00    +0.098 A 
ATOM     19  C   LIG    1        3.135  41.692  25.823  0.00  0.00    +0.139 A 
ATOM     30  O   LIG    1        3.779  42.718  25.148  0.00  0.00    -0.454 OA
ATOM     31  O   LIG    1        1.422  40.025  23.200  0.00  0.00    -0.287 OA
ATOM     32  C   LIG    1        3.600  42.821  23.791  0.00  0.00    +0.146 A 
ATOM     35  C   LIG    1        4.255  43.866  23.141  0.00  0.00    +0.093 A 
ENDROOT
BRANCH  19  20
ATOM     20  C   LIG    1        3.400  41.671  27.276  0.00  0.00    +0.021 A 
ATOM     21  C   LIG    1        2.620  40.877  28.119  0.00  0.00    +0.015 A 
ATOM     22  C   LIG    1        2.869  40.858  29.492  0.00  0.00    +0.050 A 
ATOM     23  C   LIG    1        3.901  41.632  30.024  0.00  0.00    +0.158 A 
ATOM     24  C   LIG    1        4.681  42.427  29.184  0.00  0.00    +0.159 A 
ATOM     29  C   LIG    1        4.432  42.445  27.811  0.00  0.00    +0.060 A 
BRANCH  24  25
ATOM     25  O   LIG    1        5.692  43.185  29.693  0.00  0.00    -0.503 OA
ATOM     26  H   LIG    1        5.900  42.858  30.585  0.00  0.00    +0.292 HD
ENDBRANCH  24  25
BRANCH  23  27
ATOM     27  O   LIG    1        4.133  41.606  31.366  0.00  0.00    -0.503 OA
ATOM     28  H   LIG    1        4.816  42.265  31.582  0.00  0.00    +0.292 HD
ENDBRANCH  23  27
ENDBRANCH  19  20
BRANCH  15  33
ATOM     33  O   LIG    1        1.899  41.248  20.929  0.00  0.00    -0.506 OA
ATOM     34  H   LIG    1        2.008  41.443  19.986  0.00  0.00    +0.292 HD
ENDBRANCH  15  33
BRANCH  13  12
ATOM     12  O   LIG    1        4.751  45.044  21.122  0.00  0.00    -0.461 OA
BRANCH  12   2
ATOM      1  O   LIG    1        7.032  45.458  21.382  0.00  0.00    -0.331 OA
ATOM      2  C   LIG    1        6.053  44.763  20.613  0.00  0.00    +0.339 C 
ATOM      3  C   LIG    1        6.096  45.217  19.154  0.00  0.00    +0.214 C 
ATOM      4  C   LIG    1        7.505  45.091  18.573  0.00  0.00    +0.180 C 
ATOM      5  C   LIG    1        8.546  45.708  19.506  0.00  0.00    +0.177 C 
ATOM     36  C   LIG    1        8.365  45.197  20.937  0.00  0.00    +0.179 C 
BRANCH   5   6
ATOM      6  O   LIG    1        9.852  45.369  19.046  0.00  0.00    -0.386 OA
ATOM      7  H   LIG    1        9.857  44.420  18.830  0.00  0.00    +0.210 HD
ENDBRANCH   5   6
BRANCH   4   8
ATOM      8  O   LIG    1        7.567  45.779  17.322  0.00  0.00    -0.386 OA
ATOM      9  H   LIG    1        8.470  45.673  16.977  0.00  0.00    +0.210 HD
ENDBRANCH   4   8
BRANCH   3  10
ATOM     10  O   LIG    1        5.199  44.400  18.403  0.00  0.00    -0.383 OA
ATOM     11  H   LIG    1        4.292  44.700  18.587  0.00  0.00    +0.210 HD
ENDBRANCH   3  10
BRANCH  36  37
ATOM     37  C   LIG    1        9.317  45.888  21.908  0.00  0.00    +0.190 C 
BRANCH  37  38
ATOM     38  O   LIG    1        9.888  47.009  21.258  0.00  0.00    -0.392 OA
ATOM     39  H   LIG    1       10.855  46.937  21.340  0.00  0.00    +0.210 HD
ENDBRANCH  37  38
ENDBRANCH  36  37
ENDBRANCH  12   2
ENDBRANCH  13  12
TORSDOF 11
ENDMDL
MODEL 2
REMARK VINA RESULT:    -9.080      2.005      8.273
REMARK INTER + INTRA:         -14.029
REMARK INTER:                 -13.291
REMARK INTRA:                  -0.738
REMARK UNBOUND:                -0.968
REMARK  Name = 5280637
REMARK                            x       y       z     vdW  Elec       q    Type
REMARK                         _______ _______ _______ _____ _____    ______ ____
ROOT
ATOM     13  C   LIG    1        2.676  41.137  25.797  0.00  0.00    +0.131 A 
ATOM     14  C   LIG    1        1.953  40.135  25.150  0.00  0.00    +0.092 A 
ATOM     15  C   LIG    1        1.806  40.161  23.762  0.00  0.00    +0.135 A 
ATOM     16  C   LIG    1        2.387  41.196  23.027  0.00  0.00    +0.105 A 
ATOM     17  C   LIG    1        2.249  41.251  21.564  0.00  0.00    +0.197 A 
ATOM     18  C   LIG    1        2.905  42.389  20.888  0.00  0.00    +0.098 A 
ATOM     19  C   LIG    1        3.579  43.289  21.621  0.00  0.00    +0.139 A 
ATOM     30  O   LIG    1        3.702  43.239  23.001  0.00  0.00    -0.454 OA
ATOM     31  O   LIG    1        1.626  40.407  20.934  0.00  0.00    -0.287 OA
ATOM     32  C   LIG    1        3.111  42.198  23.672  0.00  0.00    +0.146 A 
ATOM     35  C   LIG    1        3.256  42.171  25.059  0.00  0.00    +0.093 A 
ENDROOT
BRANCH  19  20
ATOM     20  C   LIG    1        4.248  44.451  21.001  0.00  0.00    +0.021 A 
ATOM     21  C   LIG    1        4.253  45.686  21.652  0.00  0.00    +0.015 A 
ATOM     22  C   LIG    1        4.883  46.784  21.066  0.00  0.00    +0.050 A 
ATOM     23  C   LIG    1        5.511  46.649  19.828  0.00  0.00    +0.158 A 
ATOM     24  C   LIG    1        5.507  45.416  19.175  0.00  0.00    +0.159 A 
ATOM     29  C   LIG    1        4.877  44.318  19.761  0.00  0.00    +0.060 A 
BRANCH  24  25
ATOM     25  O   LIG    1        6.119  45.273  17.966  0.00  0.00    -0.503 OA
ATOM     26  H   LIG    1        5.435  45.265  17.276  0.00  0.00    +0.292 HD
ENDBRANCH  24  25
BRANCH  23  27
ATOM     27  O   LIG    1        6.122  47.728  19.265  0.00  0.00    -0.503 OA
ATOM     28  H   LIG    1        5.625  47.998  18.474  0.00  0.00    +0.292 HD
ENDBRANCH  23  27
ENDBRANCH  19  20
BRANCH  15  33
ATOM     33  O   LIG    1        1.091  39.159  23.179  0.00  0.00    -0.506 OA
ATOM     34  H   LIG    1        0.912  38.452  23.816  0.00  0.00    +0.292 HD
ENDBRANCH  15  33
BRANCH  13  12
ATOM     12  O   LIG    1        2.816  41.108  27.153  0.00  0.00    -0.461 OA
BRANCH  12   2
ATOM      1  O   LIG    1        5.098  41.575  27.296  0.00  0.00    -0.331 OA
ATOM      2  C   LIG    1        3.797  41.981  27.712  0.00  0.00    +0.339 C 
ATOM      3  C   LIG    1        3.675  41.911  29.235  0.00  0.00    +0.214 C 
ATOM      4  C   LIG    1        4.790  42.703  29.919  0.00  0.00    +0.180 C 
ATOM      5  C   LIG    1        6.158  42.354  29.331  0.00  0.00    +0.177 C 
ATOM     36  C   LIG    1        6.127  42.427  27.803  0.00  0.00    +0.179 C 
BRANCH   5   6
ATOM      6  O   LIG    1        7.131  43.269  29.827  0.00  0.00    -0.386 OA
ATOM      7  H   LIG    1        6.727  43.773  30.554  0.00  0.00    +0.210 HD
ENDBRANCH   5   6
BRANCH   4   8
ATOM      8  O   LIG    1        4.813  42.386  31.312  0.00  0.00    -0.386 OA
ATOM      9  H   LIG    1        5.708  42.581  31.640  0.00  0.00    +0.210 HD
ENDBRANCH   4   8
BRANCH   3  10
ATOM     10  O   LIG    1        2.410  42.455  29.609  0.00  0.00    -0.383 OA
ATOM     11  H   LIG    1        1.728  42.041  29.053  0.00  0.00    +0.210 HD
ENDBRANCH   3  10
BRANCH  36  37
ATOM     37  C   LIG    1        7.447  41.969  27.190  0.00  0.00    +0.190 C 
BRANCH  37  38
ATOM     38  O   LIG    1        8.316  43.084  27.108  0.00  0.00    -0.392 OA
ATOM     39  H   LIG    1        8.363  43.488  27.992  0.00  0.00    +0.210 HD
ENDBRANCH  37  38
ENDBRANCH  36  37
ENDBRANCH  12   2
ENDBRANCH  13  12
TORSDOF 11
ENDMDL
MODEL 3
REMARK VINA RESULT:    -8.829      2.544      5.095
REMARK INTER + INTRA:         -13.667
REMARK INTER:                 -12.667
REMARK INTRA:                  -1.000
REMARK UNBOUND:                -0.968
REMARK  Name = 5280637
REMARK                            x       y       z     vdW  Elec       q    Type
REMARK                         _______ _______ _______ _____ _____    ______ ____
ROOT
ATOM     13  C   LIG    1        3.685  43.558  22.493  0.00  0.00    +0.131 A 
ATOM     14  C   LIG    1        4.096  43.869  23.789  0.00  0.00    +0.092 A 
ATOM     15  C   LIG    1        3.764  43.026  24.850  0.00  0.00    +0.135 A 
ATOM     16  C   LIG    1        3.019  41.870  24.606  0.00  0.00    +0.105 A 
ATOM     17  C   LIG    1        2.653  40.963  25.704  0.00  0.00    +0.197 A 
ATOM     18  C   LIG    1        1.865  39.770  25.330  0.00  0.00    +0.098 A 
ATOM     19  C   LIG    1        1.535  39.577  24.043  0.00  0.00    +0.139 A 
ATOM     30  O   LIG    1        1.875  40.437  23.011  0.00  0.00    -0.454 OA
ATOM     31  O   LIG    1        2.976  41.177  26.863  0.00  0.00    -0.287 OA
ATOM     32  C   LIG    1        2.609  41.558  23.310  0.00  0.00    +0.146 A 
ATOM     35  C   LIG    1        2.941  42.403  22.251  0.00  0.00    +0.093 A 
ENDROOT
BRANCH  19  20
ATOM     20  C   LIG    1        0.742  38.407  23.612  0.00  0.00    +0.021 A 
ATOM     21  C   LIG    1       -0.584  38.268  24.026  0.00  0.00    +0.015 A 
ATOM     22  C   LIG    1       -1.332  37.163  23.620  0.00  0.00    +0.050 A 
ATOM     23  C   LIG    1       -0.756  36.194  22.798  0.00  0.00    +0.158 A 
ATOM     24  C   LIG    1        0.569  36.330  22.384  0.00  0.00    +0.159 A 
ATOM     29  C   LIG    1        1.318  37.435  22.790  0.00  0.00    +0.060 A 
BRANCH  24  25
ATOM     25  O   LIG    1        1.142  35.390  21.580  0.00  0.00    -0.503 OA
ATOM     26  H   LIG    1        0.462  35.053  20.973  0.00  0.00    +0.292 HD
ENDBRANCH  24  25
BRANCH  23  27
ATOM     27  O   LIG    1       -1.497  35.120  22.409  0.00  0.00    -0.503 OA
ATOM     28  H   LIG    1       -1.634  35.160  21.447  0.00  0.00    +0.292 HD
ENDBRANCH  23  27
ENDBRANCH  19  20
BRANCH  15  33
ATOM     33  O   LIG    1        4.188  43.374  26.098  0.00  0.00    -0.506 OA
ATOM     34  H   LIG    1        4.532  44.279  26.100  0.00  0.00    +0.292 HD
ENDBRANCH  15  33
BRANCH  13  12
ATOM     12  O   LIG    1        4.012  44.386  21.458  0.00  0.00    -0.461 OA
BRANCH  12   2
ATOM      1  O   LIG    1        6.246  45.029  21.265  0.00  0.00    -0.331 OA
ATOM      2  C   LIG    1        5.249  44.124  20.798  0.00  0.00    +0.339 C 
ATOM      3  C   LIG    1        5.026  44.301  19.296  0.00  0.00    +0.214 C 
ATOM      4  C   LIG    1        6.340  44.187  18.521  0.00  0.00    +0.180 C 
ATOM      5  C   LIG    1        7.432  45.052  19.151  0.00  0.00    +0.177 C 
ATOM     36  C   LIG    1        7.520  44.803  20.659  0.00  0.00    +0.179 C 
BRANCH   5   6
ATOM      6  O   LIG    1        8.685  44.742  18.548  0.00  0.00    -0.386 OA
ATOM      7  H   LIG    1        8.516  44.450  17.637  0.00  0.00    +0.210 HD
ENDBRANCH   5   6
BRANCH   4   8
ATOM      8  O   LIG    1        6.141  44.633  17.179  0.00  0.00    -0.386 OA
ATOM      9  H   LIG    1        5.621  43.950  16.720  0.00  0.00    +0.210 HD
ENDBRANCH   4   8
BRANCH   3  10
ATOM     10  O   LIG    1        4.126  43.287  18.853  0.00  0.00    -0.383 OA
ATOM     11  H   LIG    1        4.417  42.988  17.975  0.00  0.00    +0.210 HD
ENDBRANCH   3  10
BRANCH  36  37
ATOM     37  C   LIG    1        8.521  45.739  21.328  0.00  0.00    +0.190 C 
BRANCH  37  38
ATOM     38  O   LIG    1        8.828  46.788  20.427  0.00  0.00    -0.392 OA
ATOM     39  H   LIG    1        7.989  47.126  20.070  0.00  0.00    +0.210 HD
ENDBRANCH  37  38
ENDBRANCH  36  37
ENDBRANCH  12   2
ENDBRANCH  13  12
TORSDOF 11
ENDMDL
MODEL 4
REMARK VINA RESULT:    -8.795      1.906      2.715
REMARK INTER + INTRA:         -13.619
REMARK INTER:                 -12.592
REMARK INTRA:                  -1.026
REMARK UNBOUND:                -0.968
REMARK  Name = 5280637
REMARK                            x       y       z     vdW  Elec       q    Type
REMARK                         _______ _______ _______ _____ _____    ______ ____
ROOT
ATOM     13  C   LIG    1        5.864  44.238  20.508  0.00  0.00    +0.131 A 
ATOM     14  C   LIG    1        4.989  43.877  19.484  0.00  0.00    +0.092 A 
ATOM     15  C   LIG    1        3.858  43.110  19.765  0.00  0.00    +0.135 A 
ATOM     16  C   LIG    1        3.609  42.706  21.079  0.00  0.00    +0.105 A 
ATOM     17  C   LIG    1        2.426  41.896  21.407  0.00  0.00    +0.197 A 
ATOM     18  C   LIG    1        2.261  41.528  22.828  0.00  0.00    +0.098 A 
ATOM     19  C   LIG    1        3.170  41.941  23.724  0.00  0.00    +0.139 A 
ATOM     30  O   LIG    1        4.288  42.698  23.412  0.00  0.00    -0.454 OA
ATOM     31  O   LIG    1        1.621  41.542  20.557  0.00  0.00    -0.287 OA
ATOM     32  C   LIG    1        4.483  43.067  22.104  0.00  0.00    +0.146 A 
ATOM     35  C   LIG    1        5.613  43.833  21.820  0.00  0.00    +0.093 A 
ENDROOT
BRANCH  19  20
ATOM     20  C   LIG    1        3.060  41.596  25.157  0.00  0.00    +0.021 A 
ATOM     21  C   LIG    1        2.324  40.478  25.554  0.00  0.00    +0.015 A 
ATOM     22  C   LIG    1        2.220  40.153  26.907  0.00  0.00    +0.050 A 
ATOM     23  C   LIG    1        2.853  40.945  27.865  0.00  0.00    +0.158 A 
ATOM     24  C   LIG    1        3.588  42.063  27.471  0.00  0.00    +0.159 A 
ATOM     29  C   LIG    1        3.692  42.388  26.118  0.00  0.00    +0.060 A 
BRANCH  24  25
ATOM     25  O   LIG    1        4.211  42.843  28.399  0.00  0.00    -0.503 OA
ATOM     26  H   LIG    1        4.499  43.664  27.965  0.00  0.00    +0.292 HD
ENDBRANCH  24  25
BRANCH  23  27
ATOM     27  O   LIG    1        2.743  40.618  29.183  0.00  0.00    -0.503 OA
ATOM     28  H   LIG    1        2.797  41.430  29.717  0.00  0.00    +0.292 HD
ENDBRANCH  23  27
ENDBRANCH  19  20
BRANCH  15  33
ATOM     33  O   LIG    1        3.036  42.783  18.730  0.00  0.00    -0.506 OA
ATOM     34  H   LIG    1        2.125  42.670  19.041  0.00  0.00    +0.292 HD
ENDBRANCH  15  33
BRANCH  13  12
ATOM     12  O   LIG    1        6.969  44.987  20.228  0.00  0.00    -0.461 OA
BRANCH  12   2
ATOM      1  O   LIG    1        8.960  43.880  20.731  0.00  0.00    -0.331 OA
ATOM      2  C   LIG    1        8.089  44.293  19.681  0.00  0.00    +0.339 C 
ATOM      3  C   LIG    1        8.813  45.246  18.728  0.00  0.00    +0.214 C 
ATOM      4  C   LIG    1       10.114  44.632  18.211  0.00  0.00    +0.180 C 
ATOM      5  C   LIG    1       10.948  44.055  19.355  0.00  0.00    +0.177 C 
ATOM     36  C   LIG    1       10.093  43.154  20.249  0.00  0.00    +0.179 C 
BRANCH   5   6
ATOM      6  O   LIG    1       12.028  43.297  18.816  0.00  0.00    -0.386 OA
ATOM      7  H   LIG    1       12.838  43.828  18.899  0.00  0.00    +0.210 HD
ENDBRANCH   5   6
BRANCH   4   8
ATOM      8  O   LIG    1       10.891  45.641  17.562  0.00  0.00    -0.386 OA
ATOM      9  H   LIG    1       11.210  45.267  16.723  0.00  0.00    +0.210 HD
ENDBRANCH   4   8
BRANCH   3  10
ATOM     10  O   LIG    1        7.948  45.521  17.627  0.00  0.00    -0.383 OA
ATOM     11  H   LIG    1        8.026  46.466  17.411  0.00  0.00    +0.210 HD
ENDBRANCH   3  10
BRANCH  36  37
ATOM     37  C   LIG    1       10.873  42.661  21.464  0.00  0.00    +0.190 C 
BRANCH  37  38
ATOM     38  O   LIG    1       11.752  41.632  21.047  0.00  0.00    -0.392 OA
ATOM     39  H   LIG    1       12.649  42.006  21.011  0.00  0.00    +0.210 HD
ENDBRANCH  37  38
ENDBRANCH  36  37
ENDBRANCH  12   2
ENDBRANCH  13  12
TORSDOF 11
ENDMDL
MODEL 5
REMARK VINA RESULT:    -8.764      3.500      9.580
REMARK INTER + INTRA:         -13.574
REMARK INTER:                 -12.662
REMARK INTRA:                  -0.912
REMARK UNBOUND:                -0.968
REMARK  Name = 5280637
REMARK                            x       y       z     vdW  Elec       q    Type
REMARK                         _______ _______ _______ _____ _____    ______ ____
ROOT
ATOM     13  C   LIG    1        1.761  39.568  22.820  0.00  0.00    +0.131 A 
ATOM     14  C   LIG    1        1.735  39.705  24.208  0.00  0.00    +0.092 A 
ATOM     15  C   LIG    1        2.391  40.775  24.819  0.00  0.00    +0.135 A 
ATOM     16  C   LIG    1        3.072  41.706  24.031  0.00  0.00    +0.105 A 
ATOM     17  C   LIG    1        3.774  42.842  24.646  0.00  0.00    +0.197 A 
ATOM     18  C   LIG    1        4.459  43.766  23.719  0.00  0.00    +0.098 A 
ATOM     19  C   LIG    1        4.407  43.530  22.398  0.00  0.00    +0.139 A 
ATOM     30  O   LIG    1        3.751  42.453  21.822  0.00  0.00    -0.454 OA
ATOM     31  O   LIG    1        3.795  43.021  25.856  0.00  0.00    -0.287 OA
ATOM     32  C   LIG    1        3.098  41.570  22.644  0.00  0.00    +0.146 A 
ATOM     35  C   LIG    1        2.443  40.500  22.036  0.00  0.00    +0.093 A 
ENDROOT
BRANCH  19  20
ATOM     20  C   LIG    1        5.080  44.414  21.424  0.00  0.00    +0.021 A 
ATOM     21  C   LIG    1        5.988  43.882  20.506  0.00  0.00    +0.015 A 
ATOM     22  C   LIG    1        6.624  44.716  19.587  0.00  0.00    +0.050 A 
ATOM     23  C   LIG    1        6.354  46.085  19.584  0.00  0.00    +0.158 A 
ATOM     24  C   LIG    1        5.449  46.619  20.501  0.00  0.00    +0.159 A 
ATOM     29  C   LIG    1        4.812  45.784  21.420  0.00  0.00    +0.060 A 
BRANCH  24  25
ATOM     25  O   LIG    1        5.177  47.954  20.505  0.00  0.00    -0.503 OA
ATOM     26  H   LIG    1        5.939  48.423  20.126  0.00  0.00    +0.292 HD
ENDBRANCH  24  25
BRANCH  23  27
ATOM     27  O   LIG    1        6.983  46.889  18.683  0.00  0.00    -0.503 OA
ATOM     28  H   LIG    1        6.845  46.532  17.788  0.00  0.00    +0.292 HD
ENDBRANCH  23  27
ENDBRANCH  19  20
BRANCH  15  33
ATOM     33  O   LIG    1        2.337  40.864  26.177  0.00  0.00    -0.506 OA
ATOM     34  H   LIG    1        3.230  40.861  26.554  0.00  0.00    +0.292 HD
ENDBRANCH  15  33
BRANCH  13  12
ATOM     12  O   LIG    1        1.119  38.520  22.228  0.00  0.00    -0.461 OA
BRANCH  12   2
ATOM      1  O   LIG    1        1.909  36.549  23.195  0.00  0.00    -0.331 OA
ATOM      2  C   LIG    1        0.785  37.417  23.070  0.00  0.00    +0.339 C 
ATOM      3  C   LIG    1       -0.394  36.681  22.434  0.00  0.00    +0.214 C 
ATOM      4  C   LIG    1       -0.721  35.395  23.194  0.00  0.00    +0.180 C 
ATOM      5  C   LIG    1        0.538  34.566  23.449  0.00  0.00    +0.177 C 
ATOM     36  C   LIG    1        1.647  35.434  24.049  0.00  0.00    +0.179 C 
BRANCH   5   6
ATOM      6  O   LIG    1        0.230  33.505  24.350  0.00  0.00    -0.386 OA
ATOM      7  H   LIG    1        0.104  33.890  25.234  0.00  0.00    +0.210 HD
ENDBRANCH   5   6
BRANCH   4   8
ATOM      8  O   LIG    1       -1.624  34.602  22.421  0.00  0.00    -0.386 OA
ATOM      9  H   LIG    1       -1.391  33.669  22.569  0.00  0.00    +0.210 HD
ENDBRANCH   4   8
BRANCH   3  10
ATOM     10  O   LIG    1       -1.528  37.546  22.457  0.00  0.00    -0.383 OA
ATOM     11  H   LIG    1       -1.500  38.102  21.659  0.00  0.00    +0.210 HD
ENDBRANCH   3  10
BRANCH  36  37
ATOM     37  C   LIG    1        2.950  34.656  24.203  0.00  0.00    +0.190 C 
BRANCH  37  38
ATOM     38  O   LIG    1        3.073  33.762  23.112  0.00  0.00    -0.392 OA
ATOM     39  H   LIG    1        2.432  33.043  23.245  0.00  0.00    +0.210 HD
ENDBRANCH  37  38
ENDBRANCH  36  37
ENDBRANCH  12   2
ENDBRANCH  13  12
TORSDOF 11
ENDMDL
MODEL 6
REMARK VINA RESULT:    -8.417      1.918      9.463
REMARK INTER + INTRA:         -13.074
REMARK INTER:                 -12.344
REMARK INTRA:                  -0.731
REMARK UNBOUND:                -0.968
REMARK  Name = 5280637
REMARK                            x       y       z     vdW  Elec       q    Type
REMARK                         _______ _______ _______ _____ _____    ______ ____
ROOT
ATOM     13  C   LIG    1        3.546  41.996  25.896  0.00  0.00    +0.131 A 
ATOM     14  C   LIG    1        2.607  41.122  25.348  0.00  0.00    +0.092 A 
ATOM     15  C   LIG    1        2.310  41.176  23.985  0.00  0.00    +0.135 A 
ATOM     16  C   LIG    1        2.960  42.111  23.175  0.00  0.00    +0.105 A 
ATOM     17  C   LIG    1        2.668  42.193  21.736  0.00  0.00    +0.197 A 
ATOM     18  C   LIG    1        3.414  43.216  20.976  0.00  0.00    +0.098 A 
ATOM     19  C   LIG    1        4.299  43.996  21.617  0.00  0.00    +0.139 A 
ATOM     30  O   LIG    1        4.566  43.922  22.975  0.00  0.00    -0.454 OA
ATOM     31  O   LIG    1        1.854  41.460  21.192  0.00  0.00    -0.287 OA
ATOM     32  C   LIG    1        3.899  42.984  23.722  0.00  0.00    +0.146 A 
ATOM     35  C   LIG    1        4.193  42.929  25.084  0.00  0.00    +0.093 A 
ENDROOT
BRANCH  19  20
ATOM     20  C   LIG    1        5.067  45.042  20.910  0.00  0.00    +0.021 A 
ATOM     21  C   LIG    1        4.623  46.366  20.920  0.00  0.00    +0.015 A 
ATOM     22  C   LIG    1        5.347  47.352  20.252  0.00  0.00    +0.050 A 
ATOM     23  C   LIG    1        6.519  47.018  19.573  0.00  0.00    +0.158 A 
ATOM     24  C   LIG    1        6.965  45.696  19.560  0.00  0.00    +0.159 A 
ATOM     29  C   LIG    1        6.240  44.709  20.228  0.00  0.00    +0.060 A 
BRANCH  24  25
ATOM     25  O   LIG    1        8.109  45.359  18.901  0.00  0.00    -0.503 OA
ATOM     26  H   LIG    1        7.922  45.354  17.947  0.00  0.00    +0.292 HD
ENDBRANCH  24  25
BRANCH  23  27
ATOM     27  O   LIG    1        7.217  47.990  18.923  0.00  0.00    -0.503 OA
ATOM     28  H   LIG    1        6.597  48.671  18.610  0.00  0.00    +0.292 HD
ENDBRANCH  23  27
ENDBRANCH  19  20
BRANCH  15  33
ATOM     33  O   LIG    1        1.386  40.302  23.498  0.00  0.00    -0.506 OA
ATOM     34  H   LIG    1        1.620  39.392  23.736  0.00  0.00    +0.292 HD
ENDBRANCH  15  33
BRANCH  13  12
ATOM     12  O   LIG    1        3.831  41.940  27.229  0.00  0.00    -0.461 OA
BRANCH  12   2
ATOM      1  O   LIG    1        2.433  41.632  29.071  0.00  0.00    -0.331 OA
ATOM      2  C   LIG    1        3.106  40.980  27.997  0.00  0.00    +0.339 C 
ATOM      3  C   LIG    1        4.107  39.956  28.533  0.00  0.00    +0.214 C 
ATOM      4  C   LIG    1        3.435  38.973  29.493  0.00  0.00    +0.180 C 
ATOM      5  C   LIG    1        2.591  39.707  30.536  0.00  0.00    +0.177 C 
ATOM     36  C   LIG    1        1.666  40.726  29.866  0.00  0.00    +0.179 C 
BRANCH   5   6
ATOM      6  O   LIG    1        1.807  38.761  31.258  0.00  0.00    -0.386 OA
ATOM      7  H   LIG    1        2.212  38.642  32.134  0.00  0.00    +0.210 HD
ENDBRANCH   5   6
BRANCH   4   8
ATOM      8  O   LIG    1        4.436  38.222  30.183  0.00  0.00    -0.386 OA
ATOM      9  H   LIG    1        3.980  37.530  30.693  0.00  0.00    +0.210 HD
ENDBRANCH   4   8
BRANCH   3  10
ATOM     10  O   LIG    1        4.651  39.238  27.426  0.00  0.00    -0.383 OA
ATOM     11  H   LIG    1        5.399  39.751  27.073  0.00  0.00    +0.210 HD
ENDBRANCH   3  10
BRANCH  36  37
ATOM     37  C   LIG    1        0.900  41.552  30.894  0.00  0.00    +0.190 C 
BRANCH  37  38
ATOM     38  O   LIG    1        1.739  42.599  31.347  0.00  0.00    -0.392 OA
ATOM     39  H   LIG    1        1.505  42.786  32.272  0.00  0.00    +0.210 HD
ENDBRANCH  37  38
ENDBRANCH  36  37
ENDBRANCH  12   2
ENDBRANCH  13  12
TORSDOF 11
ENDMDL
MODEL 7
REMARK VINA RESULT:    -8.387      2.516      5.236
REMARK INTER + INTRA:         -13.032
REMARK INTER:                 -12.102
REMARK INTRA:                  -0.929
REMARK UNBOUND:                -0.968
REMARK  Name = 5280637
REMARK                            x       y       z     vdW  Elec       q    Type
REMARK                         _______ _______ _______ _____ _____    ______ ____
ROOT
ATOM     13  C   LIG    1        6.426  42.576  22.589  0.00  0.00    +0.131 A 
ATOM     14  C   LIG    1        6.411  43.306  23.778  0.00  0.00    +0.092 A 
ATOM     15  C   LIG    1        5.423  43.069  24.734  0.00  0.00    +0.135 A 
ATOM     16  C   LIG    1        4.450  42.097  24.493  0.00  0.00    +0.105 A 
ATOM     17  C   LIG    1        3.395  41.825  25.481  0.00  0.00    +0.197 A 
ATOM     18  C   LIG    1        2.420  40.775  25.123  0.00  0.00    +0.098 A 
ATOM     19  C   LIG    1        2.543  40.136  23.949  0.00  0.00    +0.139 A 
ATOM     30  O   LIG    1        3.534  40.400  23.016  0.00  0.00    -0.454 OA
ATOM     31  O   LIG    1        3.321  42.431  26.541  0.00  0.00    -0.287 OA
ATOM     32  C   LIG    1        4.464  41.366  23.306  0.00  0.00    +0.146 A 
ATOM     35  C   LIG    1        5.452  41.605  22.351  0.00  0.00    +0.093 A 
ENDROOT
BRANCH  19  20
ATOM     20  C   LIG    1        1.593  39.084  23.534  0.00  0.00    +0.021 A 
ATOM     21  C   LIG    1        0.414  38.879  24.255  0.00  0.00    +0.015 A 
ATOM     22  C   LIG    1       -0.482  37.885  23.864  0.00  0.00    +0.050 A 
ATOM     23  C   LIG    1       -0.203  37.093  22.749  0.00  0.00    +0.158 A 
ATOM     24  C   LIG    1        0.974  37.295  22.028  0.00  0.00    +0.159 A 
ATOM     29  C   LIG    1        1.870  38.289  22.419  0.00  0.00    +0.060 A 
BRANCH  24  25
ATOM     25  O   LIG    1        1.255  36.528  20.937  0.00  0.00    -0.503 OA
ATOM     26  H   LIG    1        2.139  36.770  20.613  0.00  0.00    +0.292 HD
ENDBRANCH  24  25
BRANCH  23  27
ATOM     27  O   LIG    1       -1.086  36.125  22.378  0.00  0.00    -0.503 OA
ATOM     28  H   LIG    1       -0.651  35.524  21.749  0.00  0.00    +0.292 HD
ENDBRANCH  23  27
ENDBRANCH  19  20
BRANCH  15  33
ATOM     33  O   LIG    1        5.452  43.809  25.878  0.00  0.00    -0.506 OA
ATOM     34  H   LIG    1        6.298  43.695  26.336  0.00  0.00    +0.292 HD
ENDBRANCH  15  33
BRANCH  13  12
ATOM     12  O   LIG    1        7.394  42.812  21.657  0.00  0.00    -0.461 OA
BRANCH  12   2
ATOM      1  O   LIG    1        6.351  44.766  20.924  0.00  0.00    -0.331 OA
ATOM      2  C   LIG    1        7.598  44.173  21.279  0.00  0.00    +0.339 C 
ATOM      3  C   LIG    1        8.558  44.191  20.090  0.00  0.00    +0.214 C 
ATOM      4  C   LIG    1        8.715  45.603  19.524  0.00  0.00    +0.180 C 
ATOM      5  C   LIG    1        7.355  46.267  19.307  0.00  0.00    +0.177 C 
ATOM     36  C   LIG    1        6.484  46.141  20.558  0.00  0.00    +0.179 C 
BRANCH   5   6
ATOM      6  O   LIG    1        7.547  47.646  19.002  0.00  0.00    -0.386 OA
ATOM      7  H   LIG    1        7.868  47.708  18.086  0.00  0.00    +0.210 HD
ENDBRANCH   5   6
BRANCH   4   8
ATOM      8  O   LIG    1        9.382  45.538  18.262  0.00  0.00    -0.386 OA
ATOM      9  H   LIG    1        8.709  45.347  17.587  0.00  0.00    +0.210 HD
ENDBRANCH   4   8
BRANCH   3  10
ATOM     10  O   LIG    1        9.829  43.715  20.533  0.00  0.00    -0.383 OA
ATOM     11  H   LIG    1        9.992  42.854  20.111  0.00  0.00    +0.210 HD
ENDBRANCH   3  10
BRANCH  36  37
ATOM     37  C   LIG    1        5.080  46.693  20.326  0.00  0.00    +0.190 C 
BRANCH  37  38
ATOM     38  O   LIG    1        5.118  48.099  20.481  0.00  0.00    -0.392 OA
ATOM     39  H   LIG    1        6.050  48.376  20.446  0.00  0.00    +0.210 HD
ENDBRANCH  37  38
ENDBRANCH  36  37
ENDBRANCH  12   2
ENDBRANCH  13  12
TORSDOF 11
ENDMDL
MODEL 8
REMARK VINA RESULT:    -8.352      3.089      6.483
REMARK INTER + INTRA:         -12.981
REMARK INTER:                 -11.961
REMARK INTRA:                  -1.021
REMARK UNBOUND:                -0.968
REMARK  Name = 5280637
REMARK                            x       y       z     vdW  Elec       q    Type
REMARK                         _______ _______ _______ _____ _____    ______ ____
ROOT
ATOM     13  C   LIG    1        9.409  44.437  19.860  0.00  0.00    +0.131 A 
ATOM     14  C   LIG    1        9.175  45.770  19.520  0.00  0.00    +0.092 A 
ATOM     15  C   LIG    1        7.911  46.331  19.710  0.00  0.00    +0.135 A 
ATOM     16  C   LIG    1        6.883  45.549  20.242  0.00  0.00    +0.105 A 
ATOM     17  C   LIG    1        5.541  46.111  20.452  0.00  0.00    +0.197 A 
ATOM     18  C   LIG    1        4.531  45.195  21.021  0.00  0.00    +0.098 A 
ATOM     19  C   LIG    1        4.880  43.932  21.314  0.00  0.00    +0.139 A 
ATOM     30  O   LIG    1        6.144  43.402  21.107  0.00  0.00    -0.454 OA
ATOM     31  O   LIG    1        5.267  47.270  20.173  0.00  0.00    -0.287 OA
ATOM     32  C   LIG    1        7.116  44.216  20.582  0.00  0.00    +0.146 A 
ATOM     35  C   LIG    1        8.379  43.658  20.391  0.00  0.00    +0.093 A 
ENDROOT
BRANCH  19  20
ATOM     20  C   LIG    1        3.911  42.969  21.877  0.00  0.00    +0.021 A 
ATOM     21  C   LIG    1        3.093  42.220  21.028  0.00  0.00    +0.015 A 
ATOM     22  C   LIG    1        2.178  41.312  21.560  0.00  0.00    +0.050 A 
ATOM     23  C   LIG    1        2.078  41.150  22.942  0.00  0.00    +0.158 A 
ATOM     24  C   LIG    1        2.893  41.898  23.792  0.00  0.00    +0.159 A 
ATOM     29  C   LIG    1        3.808  42.806  23.260  0.00  0.00    +0.060 A 
BRANCH  24  25
ATOM     25  O   LIG    1        2.804  41.747  25.143  0.00  0.00    -0.503 OA
ATOM     26  H   LIG    1        2.001  41.236  25.342  0.00  0.00    +0.292 HD
ENDBRANCH  24  25
BRANCH  23  27
ATOM     27  O   LIG    1        1.179  40.261  23.449  0.00  0.00    -0.503 OA
ATOM     28  H   LIG    1        0.283  40.627  23.352  0.00  0.00    +0.292 HD
ENDBRANCH  23  27
ENDBRANCH  19  20
BRANCH  15  33
ATOM     33  O   LIG    1        7.734  47.636  19.362  0.00  0.00    -0.506 OA
ATOM     34  H   LIG    1        7.797  48.208  20.142  0.00  0.00    +0.292 HD
ENDBRANCH  15  33
BRANCH  13  12
ATOM     12  O   LIG    1       10.646  43.894  19.672  0.00  0.00    -0.461 OA
BRANCH  12   2
ATOM      1  O   LIG    1       11.521  44.322  21.791  0.00  0.00    -0.331 OA
ATOM      2  C   LIG    1       11.268  43.313  20.817  0.00  0.00    +0.339 C 
ATOM      3  C   LIG    1       12.577  42.667  20.362  0.00  0.00    +0.214 C 
ATOM      4  C   LIG    1       13.385  42.150  21.554  0.00  0.00    +0.180 C 
ATOM      5  C   LIG    1       13.497  43.210  22.649  0.00  0.00    +0.177 C 
ATOM     36  C   LIG    1       12.124  43.800  22.977  0.00  0.00    +0.179 C 
BRANCH   5   6
ATOM      6  O   LIG    1       14.050  42.620  23.822  0.00  0.00    -0.386 OA
ATOM      7  H   LIG    1       14.639  41.898  23.546  0.00  0.00    +0.210 HD
ENDBRANCH   5   6
BRANCH   4   8
ATOM      8  O   LIG    1       14.705  41.815  21.124  0.00  0.00    -0.386 OA
ATOM      9  H   LIG    1       14.907  42.367  20.348  0.00  0.00    +0.210 HD
ENDBRANCH   4   8
BRANCH   3  10
ATOM     10  O   LIG    1       12.262  41.577  19.496  0.00  0.00    -0.383 OA
ATOM     11  H   LIG    1       12.996  40.941  19.533  0.00  0.00    +0.210 HD
ENDBRANCH   3  10
BRANCH  36  37
ATOM     37  C   LIG    1       12.226  44.943  23.983  0.00  0.00    +0.190 C 
BRANCH  37  38
ATOM     38  O   LIG    1       13.554  45.432  23.974  0.00  0.00    -0.392 OA
ATOM     39  H   LIG    1       13.805  45.592  23.048  0.00  0.00    +0.210 HD
ENDBRANCH  37  38
ENDBRANCH  36  37
ENDBRANCH  12   2
ENDBRANCH  13  12
TORSDOF 11
ENDMDL
MODEL 9
REMARK VINA RESULT:    -8.159      1.617      2.418
REMARK INTER + INTRA:         -12.704
REMARK INTER:                 -11.736
REMARK INTRA:                  -0.968
REMARK UNBOUND:                -0.968
REMARK  Name = 5280637
REMARK                            x       y       z     vdW  Elec       q    Type
REMARK                         _______ _______ _______ _____ _____    ______ ____
ROOT
ATOM     13  C   LIG    1        5.946  42.100  21.803  0.00  0.00    +0.131 A 
ATOM     14  C   LIG    1        4.784  41.668  21.164  0.00  0.00    +0.092 A 
ATOM     15  C   LIG    1        3.655  41.332  21.912  0.00  0.00    +0.135 A 
ATOM     16  C   LIG    1        3.697  41.432  23.305  0.00  0.00    +0.105 A 
ATOM     17  C   LIG    1        2.524  41.084  24.121  0.00  0.00    +0.197 A 
ATOM     18  C   LIG    1        2.680  41.229  25.583  0.00  0.00    +0.098 A 
ATOM     19  C   LIG    1        3.849  41.662  26.080  0.00  0.00    +0.139 A 
ATOM     30  O   LIG    1        4.956  41.981  25.309  0.00  0.00    -0.454 OA
ATOM     31  O   LIG    1        1.476  40.696  23.625  0.00  0.00    -0.287 OA
ATOM     32  C   LIG    1        4.858  41.865  23.945  0.00  0.00    +0.146 A 
ATOM     35  C   LIG    1        5.985  42.199  23.195  0.00  0.00    +0.093 A 
ENDROOT
BRANCH  19  20
ATOM     20  C   LIG    1        4.065  41.817  27.533  0.00  0.00    +0.021 A 
ATOM     21  C   LIG    1        5.324  42.175  28.020  0.00  0.00    +0.015 A 
ATOM     22  C   LIG    1        5.529  42.321  29.392  0.00  0.00    +0.050 A 
ATOM     23  C   LIG    1        4.474  42.110  30.281  0.00  0.00    +0.158 A 
ATOM     24  C   LIG    1        3.216  41.752  29.797  0.00  0.00    +0.159 A 
ATOM     29  C   LIG    1        3.011  41.607  28.425  0.00  0.00    +0.060 A 
BRANCH  24  25
ATOM     25  O   LIG    1        2.178  41.546  30.656  0.00  0.00    -0.503 OA
ATOM     26  H   LIG    1        2.396  41.967  31.505  0.00  0.00    +0.292 HD
ENDBRANCH  24  25
BRANCH  23  27
ATOM     27  O   LIG    1        4.686  42.255  31.619  0.00  0.00    -0.503 OA
ATOM     28  H   LIG    1        4.088  41.659  32.101  0.00  0.00    +0.292 HD
ENDBRANCH  23  27
ENDBRANCH  19  20
BRANCH  15  33
ATOM     33  O   LIG    1        2.546  40.915  21.241  0.00  0.00    -0.506 OA
ATOM     34  H   LIG    1        2.747  40.779  20.303  0.00  0.00    +0.292 HD
ENDBRANCH  15  33
BRANCH  13  12
ATOM     12  O   LIG    1        7.047  42.426  21.067  0.00  0.00    -0.461 OA
BRANCH  12   2
ATOM      1  O   LIG    1        6.249  44.568  20.596  0.00  0.00    -0.331 OA
ATOM      2  C   LIG    1        7.386  43.811  21.005  0.00  0.00    +0.339 C 
ATOM      3  C   LIG    1        8.526  43.971  19.999  0.00  0.00    +0.214 C 
ATOM      4  C   LIG    1        8.852  45.446  19.758  0.00  0.00    +0.180 C 
ATOM      5  C   LIG    1        7.585  46.254  19.481  0.00  0.00    +0.177 C 
ATOM     36  C   LIG    1        6.517  45.970  20.538  0.00  0.00    +0.179 C 
BRANCH   5   6
ATOM      6  O   LIG    1        7.901  47.644  19.491  0.00  0.00    -0.386 OA
ATOM      7  H   LIG    1        8.600  47.788  20.152  0.00  0.00    +0.210 HD
ENDBRANCH   5   6
BRANCH   4   8
ATOM      8  O   LIG    1        9.711  45.563  18.622  0.00  0.00    -0.386 OA
ATOM      9  H   LIG    1        9.641  46.478  18.299  0.00  0.00    +0.210 HD
ENDBRANCH   4   8
BRANCH   3  10
ATOM     10  O   LIG    1        9.679  43.310  20.520  0.00  0.00    -0.383 OA
ATOM     11  H   LIG    1        9.825  43.628  21.427  0.00  0.00    +0.210 HD
ENDBRANCH   3  10
BRANCH  36  37
ATOM     37  C   LIG    1        5.203  46.676  20.217  0.00  0.00    +0.190 C 
BRANCH  37  38
ATOM     38  O   LIG    1        5.315  48.033  20.603  0.00  0.00    -0.392 OA
ATOM     39  H   LIG    1        4.832  48.567  19.948  0.00  0.00    +0.210 HD
ENDBRANCH  37  38
ENDBRANCH  36  37
ENDBRANCH  12   2
ENDBRANCH  13  12
TORSDOF 11
ENDMDL
