REMARK VINA RESULT:      -5.4      0.000      0.000
REMARK  5 active torsions:
REMARK  status: ('A' for Active; 'I' for Inactive)
REMARK    1  A    between atoms: C_3  and  O_1 
REMARK    2  A    between atoms: C_4  and  O_14 
REMARK    3  A    between atoms: C_7  and  C_8 
REMARK    4  A    between atoms: C_9  and  C_10 
REMARK    5  A    between atoms: C_10  and  O_12 
ROOT
ATOM      1  C   LIG     1     185.623 165.878 161.850  0.00  0.00     0.162 A 
ATOM      2  C   LIG     1     185.966 166.018 163.195  0.00  0.00     0.158 A 
ATOM      3  C   LIG     1     184.967 166.099 164.164  0.00  0.00     0.050 A 
ATOM      4  C   LIG     1     183.624 166.040 163.790  0.00  0.00     0.012 A 
ATOM      5  C   LIG     1     183.282 165.900 162.446  0.00  0.00    -0.021 A 
ATOM      6  C   LIG     1     184.280 165.819 161.475  0.00  0.00     0.057 A 
ENDROOT
BRANCH   5   7
ATOM      7  C   LIG     1     181.882 165.838 162.055  0.00  0.00     0.015 C 
ATOM      8  C   LIG     1     181.033 166.889 162.015  0.00  0.00     0.092 C 
BRANCH   8   9
ATOM      9  C   LIG     1     179.633 166.695 161.589  0.00  0.00     0.330 C 
ATOM     10  O   LIG     1     179.211 165.807 160.867  0.00  0.00    -0.246 OA
BRANCH   9  11
ATOM     11  O   LIG     1     178.874 167.673 162.136  0.00  0.00    -0.478 OA
ATOM     12  H   LIG     1     179.339 168.537 162.146  0.00  0.00     0.295 HD
ENDBRANCH   9  11
ENDBRANCH   8   9
ENDBRANCH   5   7
BRANCH   1  13
ATOM     13  O   LIG     1     186.590 165.800 160.893  0.00  0.00    -0.491 OA
ATOM     14  C   LIG     1     187.014 167.025 160.299  0.00  0.00     0.277 C 
ENDBRANCH   1  13
BRANCH   2  15
ATOM     15  O   LIG     1     187.273 166.078 163.573  0.00  0.00    -0.503 OA
ATOM     16  H   LIG     1     187.369 166.742 164.278  0.00  0.00     0.292 HD
ENDBRANCH   2  15
TORSDOF 5
