REMARK VINA RESULT:      -4.7      2.112      3.319
REMARK  4 active torsions:
REMARK  status: ('A' for Active; 'I' for Inactive)
REMARK    1  A    between atoms: O_1  and  C_10 
REMARK    2  A    between atoms: O_1  and  C_11 
REMARK    3  A    between atoms: N_3  and  C_7 
REMARK    4  A    between atoms: C_4  and  C_10 
ROOT
HETATM    1  O   UNK     0     178.679 187.038 166.620  0.00  0.00    -0.318 OA
ENDROOT
BRANCH   1   2
HETATM    2  C   UNK     0     178.916 187.507 165.357  0.00  0.00     0.293 C 
HETATM    3  O   UNK     0     179.270 188.665 165.103  0.00  0.00    -0.259 OA
BRANCH   2   4
HETATM    4  C   UNK     0     178.698 186.475 164.355  0.00  0.00     0.039 A 
HETATM    5  C   UNK     0     177.704 185.516 164.547  0.00  0.00     0.020 A 
HETATM    6  C   UNK     0     177.495 184.525 163.587  0.00  0.00     0.030 A 
HETATM    7  C   UNK     0     178.280 184.495 162.434  0.00  0.00     0.025 A 
HETATM    8  C   UNK     0     179.274 185.454 162.242  0.00  0.00     0.030 A 
HETATM    9  C   UNK     0     179.484 186.444 163.203  0.00  0.00     0.020 A 
BRANCH   7  10
HETATM   10  N   UNK     0     178.069 183.494 161.464  0.00  0.00    -0.399 N 
HETATM   11  H   UNK     0     178.789 182.807 161.280  0.00  0.00     0.156 HD
HETATM   12  H   UNK     0     177.199 183.464 160.949  0.00  0.00     0.156 HD
ENDBRANCH   7  10
ENDBRANCH   2   4
ENDBRANCH   1   2
BRANCH   1  13
HETATM   13  C   UNK     0     177.898 187.872 167.483  0.00  0.00     0.174 C 
HETATM   14  C   UNK     0     176.534 187.245 167.671  0.00  0.00     0.034 C 
ENDBRANCH   1  13
TORSDOF 4
