REMARK VINA RESULT:      -4.6      3.339      4.463
REMARK  4 active torsions:
REMARK  status: ('A' for Active; 'I' for Inactive)
REMARK    1  A    between atoms: O_1  and  C_10 
REMARK    2  A    between atoms: O_1  and  C_11 
REMARK    3  A    between atoms: N_3  and  C_7 
REMARK    4  A    between atoms: C_4  and  C_10 
ROOT
HETATM    1  O   UNK     0     181.803 183.248 164.576  0.00  0.00    -0.318 OA
ENDROOT
BRANCH   1   2
HETATM    2  C   UNK     0     181.756 183.521 163.235  0.00  0.00     0.293 C 
HETATM    3  O   UNK     0     182.291 182.819 162.367  0.00  0.00    -0.259 OA
BRANCH   2   4
HETATM    4  C   UNK     0     181.003 184.734 162.963  0.00  0.00     0.039 A 
HETATM    5  C   UNK     0     179.700 184.651 162.471  0.00  0.00     0.020 A 
HETATM    6  C   UNK     0     178.978 185.815 162.208  0.00  0.00     0.030 A 
HETATM    7  C   UNK     0     179.558 187.063 162.439  0.00  0.00     0.025 A 
HETATM    8  C   UNK     0     180.860 187.146 162.930  0.00  0.00     0.030 A 
HETATM    9  C   UNK     0     181.583 185.982 163.192  0.00  0.00     0.020 A 
BRANCH   7  10
HETATM   10  N   UNK     0     178.828 188.239 162.173  0.00  0.00    -0.399 N 
HETATM   11  H   UNK     0     178.311 188.331 161.308  0.00  0.00     0.156 HD
HETATM   12  H   UNK     0     178.821 188.994 162.847  0.00  0.00     0.156 HD
ENDBRANCH   7  10
ENDBRANCH   2   4
ENDBRANCH   1   2
BRANCH   1  13
HETATM   13  C   UNK     0     180.820 182.340 165.086  0.00  0.00     0.174 C 
HETATM   14  C   UNK     0     179.917 183.081 166.048  0.00  0.00     0.034 C 
ENDBRANCH   1  13
TORSDOF 4
