REMARK VINA RESULT:      -7.6      5.597      7.616
REMARK  Name = 9823887
REMARK                            x       y       z     vdW  Elec       q    Type
REMARK                         _______ _______ _______ _____ _____    ______ ____
ROOT
ATOM      1  O   LIG    1      181.916 186.265 170.425  0.00  0.00    -0.341 OA
ATOM      2  C   LIG    1      180.497 186.384 170.351  0.00  0.00    +0.282 C 
ATOM      3  C   LIG    1      179.826 185.093 170.824  0.00  0.00    +0.201 C 
ATOM      4  C   LIG    1      180.315 184.689 172.214  0.00  0.00    +0.179 C 
ATOM      5  C   LIG    1      181.840 184.728 172.298  0.00  0.00    +0.177 C 
ATOM     22  C   LIG    1      182.380 186.055 171.759  0.00  0.00    +0.178 C 
ENDROOT
BRANCH   5   6
ATOM      6  O   LIG    1      182.242 184.572 173.657  0.00  0.00    -0.386 OA
ATOM      7  H   LIG    1      181.551 184.064 174.117  0.00  0.00    +0.210 HD
ENDBRANCH   5   6
BRANCH   4   8
ATOM      8  O   LIG    1      179.891 183.354 172.498  0.00  0.00    -0.386 OA
ATOM      9  H   LIG    1      180.479 183.002 173.187  0.00  0.00    +0.210 HD
ENDBRANCH   4   8
BRANCH   3  10
ATOM     10  O   LIG    1      178.416 185.311 170.861  0.00  0.00    -0.384 OA
ATOM     11  H   LIG    1      178.074 184.933 171.689  0.00  0.00    +0.210 HD
ENDBRANCH   3  10
BRANCH   2  12
ATOM     12  O   LIG    1      180.102 186.616 169.001  0.00  0.00    -0.345 OA
BRANCH  12  13
ATOM     13  C   LIG    1      180.854 185.821 168.098  0.00  0.00    +0.190 C 
BRANCH  13  14
ATOM     14  C   LIG    1      180.020 185.548 166.887  0.00  0.00    +0.001 C 
ATOM     15  C   LIG    1      180.538 185.192 165.701  0.00  0.00    +0.006 C 
BRANCH  15  16
ATOM     16  C   LIG    1      179.756 184.899 164.487  0.00  0.00    -0.025 A 
ATOM     17  C   LIG    1      178.751 183.947 164.540  0.00  0.00    +0.008 A 
ATOM     18  C   LIG    1      178.012 183.670 163.390  0.00  0.00    +0.001 A 
ATOM     19  C   LIG    1      178.287 184.348 162.203  0.00  0.00    +0.000 A 
ATOM     20  C   LIG    1      179.302 185.304 162.165  0.00  0.00    +0.001 A 
ATOM     21  C   LIG    1      180.042 185.581 163.315  0.00  0.00    +0.008 A 
ENDBRANCH  15  16
ENDBRANCH  13  14
ENDBRANCH  12  13
ENDBRANCH   2  12
BRANCH  22  23
ATOM     23  C   LIG    1      183.905 186.072 171.725  0.00  0.00    +0.197 C 
BRANCH  23  24
ATOM     24  O   LIG    1      184.387 185.997 173.054  0.00  0.00    -0.346 OA
BRANCH  24  25
ATOM     25  C   LIG    1      185.782 185.717 173.095  0.00  0.00    +0.281 C 
ATOM     26  C   LIG    1      186.300 185.852 174.535  0.00  0.00    +0.201 C 
ATOM     27  C   LIG    1      185.867 184.676 175.417  0.00  0.00    +0.178 C 
ATOM     28  C   LIG    1      186.170 183.351 174.714  0.00  0.00    +0.171 C 
ATOM     29  C   LIG    1      185.581 183.341 173.309  0.00  0.00    +0.197 C 
ATOM     36  O   LIG    1      186.088 184.431 172.544  0.00  0.00    -0.346 OA
BRANCH  28  30
ATOM     30  O   LIG    1      185.652 182.271 175.477  0.00  0.00    -0.387 OA
ATOM     31  H   LIG    1      186.279 181.531 175.402  0.00  0.00    +0.210 HD
ENDBRANCH  28  30
BRANCH  27  32
ATOM     32  O   LIG    1      184.467 184.762 175.674  0.00  0.00    -0.386 OA
ATOM     33  H   LIG    1      184.134 183.856 175.791  0.00  0.00    +0.210 HD
ENDBRANCH  27  32
BRANCH  26  34
ATOM     34  O   LIG    1      187.724 185.907 174.488  0.00  0.00    -0.384 OA
ATOM     35  H   LIG    1      188.035 185.276 173.818  0.00  0.00    +0.210 HD
ENDBRANCH  26  34
ENDBRANCH  24  25
ENDBRANCH  23  24
ENDBRANCH  22  23
TORSDOF 13
