REMARK VINA RESULT:      -8.1      0.000      0.000
REMARK  Name = 9823887
REMARK                            x       y       z     vdW  Elec       q    Type
REMARK                         _______ _______ _______ _____ _____    ______ ____
ROOT
ATOM      1  O   LIG    1      182.659 181.114 173.816  0.00  0.00    -0.341 OA
ATOM      2  C   LIG    1      182.483 180.620 172.491  0.00  0.00    +0.282 C 
ATOM      3  C   LIG    1      181.163 181.121 171.904  0.00  0.00    +0.201 C 
ATOM      4  C   LIG    1      181.059 182.644 171.987  0.00  0.00    +0.179 C 
ATOM      5  C   LIG    1      181.412 183.147 173.386  0.00  0.00    +0.177 C 
ATOM     22  C   LIG    1      182.732 182.540 173.866  0.00  0.00    +0.178 C 
ENDROOT
BRANCH   5   6
ATOM      6  O   LIG    1      181.527 184.568 173.362  0.00  0.00    -0.386 OA
ATOM      7  H   LIG    1      180.665 184.943 173.613  0.00  0.00    +0.210 HD
ENDBRANCH   5   6
BRANCH   4   8
ATOM      8  O   LIG    1      179.719 183.046 171.698  0.00  0.00    -0.386 OA
ATOM      9  H   LIG    1      179.618 183.047 170.731  0.00  0.00    +0.210 HD
ENDBRANCH   4   8
BRANCH   3  10
ATOM     10  O   LIG    1      181.099 180.716 170.537  0.00  0.00    -0.384 OA
ATOM     11  H   LIG    1      181.938 180.957 170.111  0.00  0.00    +0.210 HD
ENDBRANCH   3  10
BRANCH   2  12
ATOM     12  O   LIG    1      182.444 179.195 172.508  0.00  0.00    -0.345 OA
BRANCH  12  13
ATOM     13  C   LIG    1      183.536 178.639 171.794  0.00  0.00    +0.190 C 
BRANCH  13  14
ATOM     14  C   LIG    1      183.160 177.269 171.328  0.00  0.00    +0.001 C 
ATOM     15  C   LIG    1      182.317 176.468 171.998  0.00  0.00    +0.006 C 
BRANCH  15  16
ATOM     16  C   LIG    1      181.907 175.119 171.571  0.00  0.00    -0.025 A 
ATOM     17  C   LIG    1      182.707 174.415 170.685  0.00  0.00    +0.008 A 
ATOM     18  C   LIG    1      182.318 173.138 170.281  0.00  0.00    +0.001 A 
ATOM     19  C   LIG    1      181.135 172.582 170.767  0.00  0.00    +0.000 A 
ATOM     20  C   LIG    1      180.340 173.303 171.658  0.00  0.00    +0.001 A 
ATOM     21  C   LIG    1      180.729 174.580 172.062  0.00  0.00    +0.008 A 
ENDBRANCH  15  16
ENDBRANCH  13  14
ENDBRANCH  12  13
ENDBRANCH   2  12
BRANCH  22  23
ATOM     23  C   LIG    1      183.047 182.936 175.305  0.00  0.00    +0.197 C 
BRANCH  23  24
ATOM     24  O   LIG    1      184.391 183.378 175.367  0.00  0.00    -0.346 OA
BRANCH  24  25
ATOM     25  C   LIG    1      184.483 184.797 175.319  0.00  0.00    +0.281 C 
ATOM     26  C   LIG    1      185.669 185.274 176.172  0.00  0.00    +0.201 C 
ATOM     27  C   LIG    1      187.015 184.996 175.494  0.00  0.00    +0.178 C 
ATOM     28  C   LIG    1      186.986 185.488 174.046  0.00  0.00    +0.171 C 
ATOM     29  C   LIG    1      185.778 184.923 173.310  0.00  0.00    +0.197 C 
ATOM     36  O   LIG    1      184.570 185.285 173.976  0.00  0.00    -0.346 OA
BRANCH  28  30
ATOM     30  O   LIG    1      188.188 185.114 173.386  0.00  0.00    -0.387 OA
ATOM     31  H   LIG    1      188.873 185.756 173.638  0.00  0.00    +0.210 HD
ENDBRANCH  28  30
BRANCH  27  32
ATOM     32  O   LIG    1      187.277 183.593 175.510  0.00  0.00    -0.386 OA
ATOM     33  H   LIG    1      188.029 183.443 176.108  0.00  0.00    +0.210 HD
ENDBRANCH  27  32
BRANCH  26  34
ATOM     34  O   LIG    1      185.526 186.677 176.381  0.00  0.00    -0.384 OA
ATOM     35  H   LIG    1      184.649 186.948 176.063  0.00  0.00    +0.210 HD
ENDBRANCH  26  34
ENDBRANCH  24  25
ENDBRANCH  23  24
ENDBRANCH  22  23
TORSDOF 13
