REMARK VINA RESULT:      -7.8      5.766      8.065
REMARK  Name = 9823887
REMARK                            x       y       z     vdW  Elec       q    Type
REMARK                         _______ _______ _______ _____ _____    ______ ____
ROOT
ATOM      1  O   LIG    1      186.856 183.365 169.116  0.00  0.00    -0.341 OA
ATOM      2  C   LIG    1      188.022 182.873 168.460  0.00  0.00    +0.282 C 
ATOM      3  C   LIG    1      189.033 184.001 168.245  0.00  0.00    +0.201 C 
ATOM      4  C   LIG    1      189.350 184.721 169.555  0.00  0.00    +0.179 C 
ATOM      5  C   LIG    1      188.072 185.092 170.307  0.00  0.00    +0.177 C 
ATOM     22  C   LIG    1      187.137 183.885 170.417  0.00  0.00    +0.178 C 
ENDROOT
BRANCH   5   6
ATOM      6  O   LIG    1      188.409 185.547 171.615  0.00  0.00    -0.386 OA
ATOM      7  H   LIG    1      187.586 185.616 172.129  0.00  0.00    +0.210 HD
ENDBRANCH   5   6
BRANCH   4   8
ATOM      8  O   LIG    1      190.063 185.927 169.275  0.00  0.00    -0.386 OA
ATOM      9  H   LIG    1      190.016 186.484 170.070  0.00  0.00    +0.210 HD
ENDBRANCH   4   8
BRANCH   3  10
ATOM     10  O   LIG    1      190.230 183.434 167.713  0.00  0.00    -0.384 OA
ATOM     11  H   LIG    1      189.979 182.762 167.058  0.00  0.00    +0.210 HD
ENDBRANCH   3  10
BRANCH   2  12
ATOM     12  O   LIG    1      187.671 182.347 167.181  0.00  0.00    -0.345 OA
BRANCH  12  13
ATOM     13  C   LIG    1      186.519 181.523 167.260  0.00  0.00    +0.190 C 
BRANCH  13  14
ATOM     14  C   LIG    1      185.555 181.939 166.197  0.00  0.00    +0.001 C 
ATOM     15  C   LIG    1      185.889 182.053 164.902  0.00  0.00    +0.006 C 
BRANCH  15  16
ATOM     16  C   LIG    1      184.971 182.445 163.819  0.00  0.00    -0.025 A 
ATOM     17  C   LIG    1      183.614 182.198 163.956  0.00  0.00    +0.008 A 
ATOM     18  C   LIG    1      182.746 182.569 162.931  0.00  0.00    +0.001 A 
ATOM     19  C   LIG    1      183.244 183.182 161.781  0.00  0.00    +0.000 A 
ATOM     20  C   LIG    1      184.611 183.424 161.657  0.00  0.00    +0.001 A 
ATOM     21  C   LIG    1      185.481 183.053 162.683  0.00  0.00    +0.008 A 
ENDBRANCH  15  16
ENDBRANCH  13  14
ENDBRANCH  12  13
ENDBRANCH   2  12
BRANCH  22  23
ATOM     23  C   LIG    1      185.805 184.258 171.061  0.00  0.00    +0.197 C 
BRANCH  23  24
ATOM     24  O   LIG    1      186.058 184.762 172.360  0.00  0.00    -0.346 OA
BRANCH  24  25
ATOM     25  C   LIG    1      185.467 183.947 173.366  0.00  0.00    +0.281 C 
ATOM     26  C   LIG    1      186.539 183.500 174.373  0.00  0.00    +0.201 C 
ATOM     27  C   LIG    1      186.964 184.639 175.306  0.00  0.00    +0.178 C 
ATOM     28  C   LIG    1      185.730 185.323 175.896  0.00  0.00    +0.171 C 
ATOM     29  C   LIG    1      184.765 185.736 174.792  0.00  0.00    +0.197 C 
ATOM     36  O   LIG    1      184.375 184.605 174.017  0.00  0.00    -0.346 OA
BRANCH  28  30
ATOM     30  O   LIG    1      186.125 186.456 176.658  0.00  0.00    -0.387 OA
ATOM     31  H   LIG    1      187.092 186.533 176.590  0.00  0.00    +0.210 HD
ENDBRANCH  28  30
BRANCH  27  32
ATOM     32  O   LIG    1      187.729 185.595 174.575  0.00  0.00    -0.386 OA
ATOM     33  H   LIG    1      187.399 185.597 173.660  0.00  0.00    +0.210 HD
ENDBRANCH  27  32
BRANCH  26  34
ATOM     34  O   LIG    1      185.998 182.432 175.147  0.00  0.00    -0.384 OA
ATOM     35  H   LIG    1      186.011 182.693 176.082  0.00  0.00    +0.210 HD
ENDBRANCH  26  34
ENDBRANCH  24  25
ENDBRANCH  23  24
ENDBRANCH  22  23
TORSDOF 13
