MODEL 1
REMARK VINA RESULT:      -5.6      0.000      0.000
REMARK  Name = 3PE
REMARK  37 active torsions:
REMARK  status: ('A' for Active; 'I' for Inactive)
REMARK    1  A    between atoms: P_1  and  O_3
REMARK    2  A    between atoms: P_1  and  O_5
REMARK    3  A    between atoms: O_3  and  C_9
REMARK    4  A    between atoms: O_5  and  C_7
REMARK    5  A    between atoms: C_7  and  C_8
REMARK    6  A    between atoms: C_9  and  C_10
REMARK    7  A    between atoms: C_10  and  C_11
REMARK    8  A    between atoms: C_10  and  O_31
REMARK    9  A    between atoms: C_11  and  O_12
REMARK   10  A    between atoms: O_12  and  C_14
REMARK   11  A    between atoms: C_14  and  C_15
REMARK   12  A    between atoms: C_15  and  C_16
REMARK   13  A    between atoms: C_16  and  C_17
REMARK   14  A    between atoms: C_17  and  C_18
REMARK   15  A    between atoms: C_18  and  C_19
REMARK   16  A    between atoms: C_19  and  C_20
REMARK   17  A    between atoms: C_20  and  C_21
REMARK   18  A    between atoms: C_21  and  C_22
REMARK   19  A    between atoms: C_22  and  C_23
REMARK   20  A    between atoms: C_23  and  C_24
REMARK   21  A    between atoms: C_24  and  C_25
REMARK   22  A    between atoms: C_25  and  C_26
REMARK   23  A    between atoms: C_26  and  C_27
REMARK   24  A    between atoms: C_27  and  C_28
REMARK   25  A    between atoms: C_28  and  C_29
REMARK   26  A    between atoms: O_31  and  C_33
REMARK   27  A    between atoms: C_33  and  C_34
REMARK   28  A    between atoms: C_34  and  C_35
REMARK   29  A    between atoms: C_35  and  C_36
REMARK   30  A    between atoms: C_36  and  C_37
REMARK   31  A    between atoms: C_37  and  C_38
REMARK   32  A    between atoms: C_38  and  C_39
REMARK   33  A    between atoms: C_39  and  C_40
REMARK   34  A    between atoms: C_40  and  C_41
REMARK   35  A    between atoms: C_41  and  C_42
REMARK   36  A    between atoms: C_42  and  C_43
REMARK   37  A    between atoms: C_43  and  C_44
REMARK                            x       y       z     vdW  Elec       q    Type
REMARK                         _______ _______ _______ _____ _____    ______ ____
ROOT
ATOM      1  C   UNL     1     180.384 180.311 170.865  0.00  0.00    +0.242 C 
ENDROOT
BRANCH   1   2
ATOM      2  C   UNL     1     179.450 181.384 171.416  0.00  0.00    +0.196 C 
BRANCH   2   3
ATOM      3  O   UNL     1     179.807 181.648 172.752  0.00  0.00    -0.310 OA
BRANCH   3   4
ATOM      4  P   UNL     1     180.549 183.065 173.131  0.00  0.00    +0.214 P 
ATOM      5  O   UNL     1     180.720 183.898 171.907  0.00  0.00    -0.517 OA
ATOM      6  O   UNL     1     179.874 183.538 174.373  0.00  0.00    -0.437 OA
BRANCH   4   7
ATOM      7  O   UNL     1     182.078 182.552 173.493  0.00  0.00    -0.312 OA
BRANCH   7   8
ATOM      8  C   UNL     1     182.629 182.863 174.750  0.00  0.00    +0.170 C 
BRANCH   8   9
ATOM      9  C   UNL     1     183.488 184.099 174.603  0.00  0.00    +0.142 C 
ATOM     10  N   UNL     1     184.795 183.945 175.289  0.00  0.00    -0.129 NA
ENDBRANCH   8   9
ENDBRANCH   7   8
ENDBRANCH   4   7
ENDBRANCH   3   4
ENDBRANCH   2   3
ENDBRANCH   1   2
BRANCH   1  11
ATOM     11  C   UNL     1     181.153 180.811 169.661  0.00  0.00    +0.254 C 
BRANCH  11  12
ATOM     12  O   UNL     1     180.848 179.929 168.585  0.00  0.00    -0.444 OA
BRANCH  12  13
ATOM     13  C   UNL     1     179.851 180.250 167.767  0.00  0.00    +0.317 C 
ATOM     14  O   UNL     1     179.440 181.374 167.643  0.00  0.00    -0.250 OA
BRANCH  13  15
ATOM     15  C   UNL     1     179.335 179.041 167.039  0.00  0.00    +0.110 C 
BRANCH  15  16
ATOM     16  C   UNL     1     178.793 177.951 167.948  0.00  0.00    +0.012 C 
BRANCH  16  17
ATOM     17  C   UNL     1     177.671 178.481 168.828  0.00  0.00    +0.001 C 
BRANCH  17  18
ATOM     18  C   UNL     1     176.769 177.388 169.381  0.00  0.00    +0.000 C 
BRANCH  18  19
ATOM     19  C   UNL     1     177.471 176.046 169.528  0.00  0.00    +0.000 C 
BRANCH  19  20
ATOM     20  C   UNL     1     176.528 174.918 169.922  0.00  0.00    +0.000 C 
BRANCH  20  21
ATOM     21  C   UNL     1     176.681 173.680 169.053  0.00  0.00    +0.000 C 
BRANCH  21  22
ATOM     22  C   UNL     1     175.647 172.600 169.338  0.00  0.00    +0.000 C 
BRANCH  22  23
ATOM     23  C   UNL     1     175.298 172.486 170.816  0.00  0.00    +0.000 C 
BRANCH  23  24
ATOM     24  C   UNL     1     173.804 172.589 171.093  0.00  0.00    +0.000 C 
BRANCH  24  25
ATOM     25  C   UNL     1     173.078 173.494 170.108  0.00  0.00    +0.000 C 
BRANCH  25  26
ATOM     26  C   UNL     1     172.110 174.468 170.762  0.00  0.00    +0.000 C 
BRANCH  26  27
ATOM     27  C   UNL     1     171.873 175.716 169.924  0.00  0.00    +0.000 C 
BRANCH  27  28
ATOM     28  C   UNL     1     173.159 176.344 169.405  0.00  0.00    +0.000 C 
BRANCH  28  29
ATOM     29  C   UNL     1     173.222 176.413 167.886  0.00  0.00    +0.000 C 
ATOM     30  C   UNL     1     173.947 177.649 167.367  0.00  0.00    +0.000 C 
ENDBRANCH  28  29
ENDBRANCH  27  28
ENDBRANCH  26  27
ENDBRANCH  25  26
ENDBRANCH  24  25
ENDBRANCH  23  24
ENDBRANCH  22  23
ENDBRANCH  21  22
ENDBRANCH  20  21
ENDBRANCH  19  20
ENDBRANCH  18  19
ENDBRANCH  17  18
ENDBRANCH  16  17
ENDBRANCH  15  16
ENDBRANCH  13  15
ENDBRANCH  12  13
ENDBRANCH  11  12
ENDBRANCH   1  11
BRANCH   1  31
ATOM     31  O   UNL     1     181.405 179.890 171.784  0.00  0.00    -0.446 OA
BRANCH  31  32
ATOM     32  C   UNL     1     181.769 178.634 171.935  0.00  0.00    +0.317 C 
ATOM     33  O   UNL     1     182.852 178.305 172.370  0.00  0.00    -0.250 OA
BRANCH  32  34
ATOM     34  C   UNL     1     180.683 177.682 171.516  0.00  0.00    +0.110 C 
BRANCH  34  35
ATOM     35  C   UNL     1     179.858 177.116 172.659  0.00  0.00    +0.012 C 
BRANCH  35  36
ATOM     36  C   UNL     1     178.430 177.643 172.624  0.00  0.00    +0.001 C 
BRANCH  36  37
ATOM     37  C   UNL     1     177.478 176.847 173.508  0.00  0.00    +0.000 C 
BRANCH  37  38
ATOM     38  C   UNL     1     178.110 175.569 174.041  0.00  0.00    +0.000 C 
BRANCH  38  39
ATOM     39  C   UNL     1     177.491 174.299 173.473  0.00  0.00    +0.000 C 
BRANCH  39  40
ATOM     40  C   UNL     1     178.503 173.189 173.220  0.00  0.00    +0.000 C 
BRANCH  40  41
ATOM     41  C   UNL     1     179.062 173.195 171.803  0.00  0.00    +0.000 C 
BRANCH  41  42
ATOM     42  C   UNL     1     180.581 173.091 171.754  0.00  0.00    +0.000 C 
BRANCH  42  43
ATOM     43  C   UNL     1     181.169 173.353 170.374  0.00  0.00    +0.000 C 
BRANCH  43  44
ATOM     44  C   UNL     1     180.773 174.711 169.806  0.00  0.00    +0.000 C 
ATOM     45  C   UNL     1     180.692 174.737 168.285  0.00  0.00    +0.000 C 
ENDBRANCH  43  44
ENDBRANCH  42  43
ENDBRANCH  41  42
ENDBRANCH  40  41
ENDBRANCH  39  40
ENDBRANCH  38  39
ENDBRANCH  37  38
ENDBRANCH  36  37
ENDBRANCH  35  36
ENDBRANCH  34  35
ENDBRANCH  32  34
ENDBRANCH  31  32
ENDBRANCH   1  31
TORSDOF 37
ENDMDL
MODEL 2
REMARK VINA RESULT:      -5.5      1.592      2.944
REMARK  Name = 3PE
REMARK  37 active torsions:
REMARK  status: ('A' for Active; 'I' for Inactive)
REMARK    1  A    between atoms: P_1  and  O_3
REMARK    2  A    between atoms: P_1  and  O_5
REMARK    3  A    between atoms: O_3  and  C_9
REMARK    4  A    between atoms: O_5  and  C_7
REMARK    5  A    between atoms: C_7  and  C_8
REMARK    6  A    between atoms: C_9  and  C_10
REMARK    7  A    between atoms: C_10  and  C_11
REMARK    8  A    between atoms: C_10  and  O_31
REMARK    9  A    between atoms: C_11  and  O_12
REMARK   10  A    between atoms: O_12  and  C_14
REMARK   11  A    between atoms: C_14  and  C_15
REMARK   12  A    between atoms: C_15  and  C_16
REMARK   13  A    between atoms: C_16  and  C_17
REMARK   14  A    between atoms: C_17  and  C_18
REMARK   15  A    between atoms: C_18  and  C_19
REMARK   16  A    between atoms: C_19  and  C_20
REMARK   17  A    between atoms: C_20  and  C_21
REMARK   18  A    between atoms: C_21  and  C_22
REMARK   19  A    between atoms: C_22  and  C_23
REMARK   20  A    between atoms: C_23  and  C_24
REMARK   21  A    between atoms: C_24  and  C_25
REMARK   22  A    between atoms: C_25  and  C_26
REMARK   23  A    between atoms: C_26  and  C_27
REMARK   24  A    between atoms: C_27  and  C_28
REMARK   25  A    between atoms: C_28  and  C_29
REMARK   26  A    between atoms: O_31  and  C_33
REMARK   27  A    between atoms: C_33  and  C_34
REMARK   28  A    between atoms: C_34  and  C_35
REMARK   29  A    between atoms: C_35  and  C_36
REMARK   30  A    between atoms: C_36  and  C_37
REMARK   31  A    between atoms: C_37  and  C_38
REMARK   32  A    between atoms: C_38  and  C_39
REMARK   33  A    between atoms: C_39  and  C_40
REMARK   34  A    between atoms: C_40  and  C_41
REMARK   35  A    between atoms: C_41  and  C_42
REMARK   36  A    between atoms: C_42  and  C_43
REMARK   37  A    between atoms: C_43  and  C_44
REMARK                            x       y       z     vdW  Elec       q    Type
REMARK                         _______ _______ _______ _____ _____    ______ ____
ROOT
ATOM      1  C   UNL     1     181.275 179.882 172.482  0.00  0.00    +0.242 C 
ENDROOT
BRANCH   1   2
ATOM      2  C   UNL     1     181.908 181.259 172.663  0.00  0.00    +0.196 C 
BRANCH   2   3
ATOM      3  O   UNL     1     182.901 181.169 173.657  0.00  0.00    -0.310 OA
BRANCH   3   4
ATOM      4  P   UNL     1     183.028 182.352 174.791  0.00  0.00    +0.214 P 
ATOM      5  O   UNL     1     182.025 183.423 174.529  0.00  0.00    -0.517 OA
ATOM      6  O   UNL     1     183.158 181.634 176.090  0.00  0.00    -0.437 OA
BRANCH   4   7
ATOM      7  O   UNL     1     184.475 183.042 174.390  0.00  0.00    -0.312 OA
BRANCH   7   8
ATOM      8  C   UNL     1     184.890 184.208 175.060  0.00  0.00    +0.170 C 
BRANCH   8   9
ATOM      9  C   UNL     1     185.557 185.124 174.058  0.00  0.00    +0.142 C 
ATOM     10  N   UNL     1     187.036 185.060 174.153  0.00  0.00    -0.129 NA
ENDBRANCH   8   9
ENDBRANCH   7   8
ENDBRANCH   4   7
ENDBRANCH   3   4
ENDBRANCH   2   3
ENDBRANCH   1   2
BRANCH   1  11
ATOM     11  C   UNL     1     180.465 179.808 171.206  0.00  0.00    +0.254 C 
BRANCH  11  12
ATOM     12  O   UNL     1     181.371 180.035 170.131  0.00  0.00    -0.444 OA
BRANCH  12  13
ATOM     13  C   UNL     1     180.873 180.331 168.935  0.00  0.00    +0.317 C 
ATOM     14  O   UNL     1     181.532 180.811 168.050  0.00  0.00    -0.250 OA
BRANCH  13  15
ATOM     15  C   UNL     1     179.415 179.979 168.852  0.00  0.00    +0.110 C 
BRANCH  15  16
ATOM     16  C   UNL     1     179.067 179.031 167.717  0.00  0.00    +0.012 C 
BRANCH  16  17
ATOM     17  C   UNL     1     179.365 177.589 168.098  0.00  0.00    +0.001 C 
BRANCH  17  18
ATOM     18  C   UNL     1     178.325 176.982 169.029  0.00  0.00    +0.000 C 
BRANCH  18  19
ATOM     19  C   UNL     1     178.409 175.466 169.118  0.00  0.00    +0.000 C 
BRANCH  19  20
ATOM     20  C   UNL     1     177.053 174.803 169.317  0.00  0.00    +0.000 C 
BRANCH  20  21
ATOM     21  C   UNL     1     177.111 173.285 169.232  0.00  0.00    +0.000 C 
BRANCH  21  22
ATOM     22  C   UNL     1     176.022 172.585 170.033  0.00  0.00    +0.000 C 
BRANCH  22  23
ATOM     23  C   UNL     1     174.928 173.534 170.504  0.00  0.00    +0.000 C 
BRANCH  23  24
ATOM     24  C   UNL     1     173.525 172.970 170.330  0.00  0.00    +0.000 C 
BRANCH  24  25
ATOM     25  C   UNL     1     172.736 173.667 169.230  0.00  0.00    +0.000 C 
BRANCH  25  26
ATOM     26  C   UNL     1     173.521 174.741 168.493  0.00  0.00    +0.000 C 
BRANCH  26  27
ATOM     27  C   UNL     1     173.042 176.148 168.816  0.00  0.00    +0.000 C 
BRANCH  27  28
ATOM     28  C   UNL     1     173.859 176.825 169.908  0.00  0.00    +0.000 C 
BRANCH  28  29
ATOM     29  C   UNL     1     174.730 177.960 169.389  0.00  0.00    +0.000 C 
ATOM     30  C   UNL     1     174.715 178.088 167.870  0.00  0.00    +0.000 C 
ENDBRANCH  28  29
ENDBRANCH  27  28
ENDBRANCH  26  27
ENDBRANCH  25  26
ENDBRANCH  24  25
ENDBRANCH  23  24
ENDBRANCH  22  23
ENDBRANCH  21  22
ENDBRANCH  20  21
ENDBRANCH  19  20
ENDBRANCH  18  19
ENDBRANCH  17  18
ENDBRANCH  16  17
ENDBRANCH  15  16
ENDBRANCH  13  15
ENDBRANCH  12  13
ENDBRANCH  11  12
ENDBRANCH   1  11
BRANCH   1  31
ATOM     31  O   UNL     1     182.223 178.809 172.360  0.00  0.00    -0.446 OA
BRANCH  31  32
ATOM     32  C   UNL     1     181.892 177.538 172.456  0.00  0.00    +0.317 C 
ATOM     33  O   UNL     1     181.129 177.113 173.297  0.00  0.00    -0.250 OA
BRANCH  32  34
ATOM     34  C   UNL     1     182.562 176.704 171.399  0.00  0.00    +0.110 C 
BRANCH  34  35
ATOM     35  C   UNL     1     181.618 175.857 170.564  0.00  0.00    +0.012 C 
BRANCH  35  36
ATOM     36  C   UNL     1     182.349 174.690 169.915  0.00  0.00    +0.001 C 
BRANCH  36  37
ATOM     37  C   UNL     1     182.106 173.364 170.625  0.00  0.00    +0.000 C 
BRANCH  37  38
ATOM     38  C   UNL     1     180.632 173.124 170.922  0.00  0.00    +0.000 C 
BRANCH  38  39
ATOM     39  C   UNL     1     180.373 172.566 172.315  0.00  0.00    +0.000 C 
BRANCH  39  40
ATOM     40  C   UNL     1     179.670 173.549 173.242  0.00  0.00    +0.000 C 
BRANCH  40  41
ATOM     41  C   UNL     1     178.878 174.618 172.500  0.00  0.00    +0.000 C 
BRANCH  41  42
ATOM     42  C   UNL     1     177.914 175.385 173.396  0.00  0.00    +0.000 C 
BRANCH  42  43
ATOM     43  C   UNL     1     176.617 175.780 172.704  0.00  0.00    +0.000 C 
BRANCH  43  44
ATOM     44  C   UNL     1     176.387 177.286 172.684  0.00  0.00    +0.000 C 
ATOM     45  C   UNL     1     177.670 178.099 172.556  0.00  0.00    +0.000 C 
ENDBRANCH  43  44
ENDBRANCH  42  43
ENDBRANCH  41  42
ENDBRANCH  40  41
ENDBRANCH  39  40
ENDBRANCH  38  39
ENDBRANCH  37  38
ENDBRANCH  36  37
ENDBRANCH  35  36
ENDBRANCH  34  35
ENDBRANCH  32  34
ENDBRANCH  31  32
ENDBRANCH   1  31
TORSDOF 37
ENDMDL
MODEL 3
REMARK VINA RESULT:      -5.4      1.552      2.327
REMARK  Name = 3PE
REMARK  37 active torsions:
REMARK  status: ('A' for Active; 'I' for Inactive)
REMARK    1  A    between atoms: P_1  and  O_3
REMARK    2  A    between atoms: P_1  and  O_5
REMARK    3  A    between atoms: O_3  and  C_9
REMARK    4  A    between atoms: O_5  and  C_7
REMARK    5  A    between atoms: C_7  and  C_8
REMARK    6  A    between atoms: C_9  and  C_10
REMARK    7  A    between atoms: C_10  and  C_11
REMARK    8  A    between atoms: C_10  and  O_31
REMARK    9  A    between atoms: C_11  and  O_12
REMARK   10  A    between atoms: O_12  and  C_14
REMARK   11  A    between atoms: C_14  and  C_15
REMARK   12  A    between atoms: C_15  and  C_16
REMARK   13  A    between atoms: C_16  and  C_17
REMARK   14  A    between atoms: C_17  and  C_18
REMARK   15  A    between atoms: C_18  and  C_19
REMARK   16  A    between atoms: C_19  and  C_20
REMARK   17  A    between atoms: C_20  and  C_21
REMARK   18  A    between atoms: C_21  and  C_22
REMARK   19  A    between atoms: C_22  and  C_23
REMARK   20  A    between atoms: C_23  and  C_24
REMARK   21  A    between atoms: C_24  and  C_25
REMARK   22  A    between atoms: C_25  and  C_26
REMARK   23  A    between atoms: C_26  and  C_27
REMARK   24  A    between atoms: C_27  and  C_28
REMARK   25  A    between atoms: C_28  and  C_29
REMARK   26  A    between atoms: O_31  and  C_33
REMARK   27  A    between atoms: C_33  and  C_34
REMARK   28  A    between atoms: C_34  and  C_35
REMARK   29  A    between atoms: C_35  and  C_36
REMARK   30  A    between atoms: C_36  and  C_37
REMARK   31  A    between atoms: C_37  and  C_38
REMARK   32  A    between atoms: C_38  and  C_39
REMARK   33  A    between atoms: C_39  and  C_40
REMARK   34  A    between atoms: C_40  and  C_41
REMARK   35  A    between atoms: C_41  and  C_42
REMARK   36  A    between atoms: C_42  and  C_43
REMARK   37  A    between atoms: C_43  and  C_44
REMARK                            x       y       z     vdW  Elec       q    Type
REMARK                         _______ _______ _______ _____ _____    ______ ____
ROOT
ATOM      1  C   UNL     1     179.335 181.092 170.100  0.00  0.00    +0.242 C 
ENDROOT
BRANCH   1   2
ATOM      2  C   UNL     1     179.700 182.519 170.499  0.00  0.00    +0.196 C 
BRANCH   2   3
ATOM      3  O   UNL     1     180.937 182.495 171.172  0.00  0.00    -0.310 OA
BRANCH   3   4
ATOM      4  P   UNL     1     181.094 183.263 172.616  0.00  0.00    +0.214 P 
ATOM      5  O   UNL     1     181.245 184.731 172.402  0.00  0.00    -0.517 OA
ATOM      6  O   UNL     1     180.058 182.653 173.496  0.00  0.00    -0.437 OA
BRANCH   4   7
ATOM      7  O   UNL     1     182.595 182.764 173.096  0.00  0.00    -0.312 OA
BRANCH   7   8
ATOM      8  C   UNL     1     183.690 183.634 172.943  0.00  0.00    +0.170 C 
BRANCH   8   9
ATOM      9  C   UNL     1     184.471 183.210 171.719  0.00  0.00    +0.142 C 
ATOM     10  N   UNL     1     185.710 184.008 171.553  0.00  0.00    -0.129 NA
ENDBRANCH   8   9
ENDBRANCH   7   8
ENDBRANCH   4   7
ENDBRANCH   3   4
ENDBRANCH   2   3
ENDBRANCH   1   2
BRANCH   1  11
ATOM     11  C   UNL     1     179.667 180.821 168.648  0.00  0.00    +0.254 C 
BRANCH  11  12
ATOM     12  O   UNL     1     180.048 179.451 168.564  0.00  0.00    -0.444 OA
BRANCH  12  13
ATOM     13  C   UNL     1     179.512 178.703 167.605  0.00  0.00    +0.317 C 
ATOM     14  O   UNL     1     179.034 179.166 166.603  0.00  0.00    -0.250 OA
BRANCH  13  15
ATOM     15  C   UNL     1     179.598 177.242 167.944  0.00  0.00    +0.110 C 
BRANCH  15  16
ATOM     16  C   UNL     1     180.001 176.960 169.381  0.00  0.00    +0.012 C 
BRANCH  16  17
ATOM     17  C   UNL     1     179.142 175.857 169.983  0.00  0.00    +0.001 C 
BRANCH  17  18
ATOM     18  C   UNL     1     178.814 174.742 169.000  0.00  0.00    +0.000 C 
BRANCH  18  19
ATOM     19  C   UNL     1     177.774 173.764 169.526  0.00  0.00    +0.000 C 
BRANCH  19  20
ATOM     20  C   UNL     1     176.422 174.413 169.784  0.00  0.00    +0.000 C 
BRANCH  20  21
ATOM     21  C   UNL     1     175.443 173.490 170.495  0.00  0.00    +0.000 C 
BRANCH  21  22
ATOM     22  C   UNL     1     174.342 174.226 171.245  0.00  0.00    +0.000 C 
BRANCH  22  23
ATOM     23  C   UNL     1     172.973 174.068 170.597  0.00  0.00    +0.000 C 
BRANCH  23  24
ATOM     24  C   UNL     1     172.399 175.378 170.073  0.00  0.00    +0.000 C 
BRANCH  24  25
ATOM     25  C   UNL     1     172.185 175.373 168.566  0.00  0.00    +0.000 C 
BRANCH  25  26
ATOM     26  C   UNL     1     173.151 176.267 167.802  0.00  0.00    +0.000 C 
BRANCH  26  27
ATOM     27  C   UNL     1     173.973 177.163 168.715  0.00  0.00    +0.000 C 
BRANCH  27  28
ATOM     28  C   UNL     1     174.966 178.037 167.962  0.00  0.00    +0.000 C 
BRANCH  28  29
ATOM     29  C   UNL     1     176.072 178.592 168.850  0.00  0.00    +0.000 C 
ATOM     30  C   UNL     1     175.784 179.995 169.368  0.00  0.00    +0.000 C 
ENDBRANCH  28  29
ENDBRANCH  27  28
ENDBRANCH  26  27
ENDBRANCH  25  26
ENDBRANCH  24  25
ENDBRANCH  23  24
ENDBRANCH  22  23
ENDBRANCH  21  22
ENDBRANCH  20  21
ENDBRANCH  19  20
ENDBRANCH  18  19
ENDBRANCH  17  18
ENDBRANCH  16  17
ENDBRANCH  15  16
ENDBRANCH  13  15
ENDBRANCH  12  13
ENDBRANCH  11  12
ENDBRANCH   1  11
BRANCH   1  31
ATOM     31  O   UNL     1     180.053 180.077 170.820  0.00  0.00    -0.446 OA
BRANCH  31  32
ATOM     32  C   UNL     1     179.541 179.411 171.834  0.00  0.00    +0.317 C 
ATOM     33  O   UNL     1     180.214 178.778 172.620  0.00  0.00    -0.250 OA
BRANCH  32  34
ATOM     34  C   UNL     1     178.045 179.548 171.896  0.00  0.00    +0.110 C 
BRANCH  34  35
ATOM     35  C   UNL     1     177.363 178.638 172.903  0.00  0.00    +0.012 C 
BRANCH  35  36
ATOM     36  C   UNL     1     176.812 177.387 172.234  0.00  0.00    +0.001 C 
BRANCH  36  37
ATOM     37  C   UNL     1     177.038 176.123 173.052  0.00  0.00    +0.000 C 
BRANCH  37  38
ATOM     38  C   UNL     1     178.299 176.197 173.902  0.00  0.00    +0.000 C 
BRANCH  38  39
ATOM     39  C   UNL     1     179.146 174.932 173.851  0.00  0.00    +0.000 C 
BRANCH  39  40
ATOM     40  C   UNL     1     178.440 173.754 173.194  0.00  0.00    +0.000 C 
BRANCH  40  41
ATOM     41  C   UNL     1     179.399 172.708 172.641  0.00  0.00    +0.000 C 
BRANCH  41  42
ATOM     42  C   UNL     1     180.692 173.305 172.098  0.00  0.00    +0.000 C 
BRANCH  42  43
ATOM     43  C   UNL     1     181.177 172.649 170.812  0.00  0.00    +0.000 C 
BRANCH  43  44
ATOM     44  C   UNL     1     182.415 173.322 170.230  0.00  0.00    +0.000 C 
ATOM     45  C   UNL     1     182.646 174.734 170.754  0.00  0.00    +0.000 C 
ENDBRANCH  43  44
ENDBRANCH  42  43
ENDBRANCH  41  42
ENDBRANCH  40  41
ENDBRANCH  39  40
ENDBRANCH  38  39
ENDBRANCH  37  38
ENDBRANCH  36  37
ENDBRANCH  35  36
ENDBRANCH  34  35
ENDBRANCH  32  34
ENDBRANCH  31  32
ENDBRANCH   1  31
TORSDOF 37
ENDMDL
MODEL 4
REMARK VINA RESULT:      -5.4      2.104      5.703
REMARK  Name = 3PE
REMARK  37 active torsions:
REMARK  status: ('A' for Active; 'I' for Inactive)
REMARK    1  A    between atoms: P_1  and  O_3
REMARK    2  A    between atoms: P_1  and  O_5
REMARK    3  A    between atoms: O_3  and  C_9
REMARK    4  A    between atoms: O_5  and  C_7
REMARK    5  A    between atoms: C_7  and  C_8
REMARK    6  A    between atoms: C_9  and  C_10
REMARK    7  A    between atoms: C_10  and  C_11
REMARK    8  A    between atoms: C_10  and  O_31
REMARK    9  A    between atoms: C_11  and  O_12
REMARK   10  A    between atoms: O_12  and  C_14
REMARK   11  A    between atoms: C_14  and  C_15
REMARK   12  A    between atoms: C_15  and  C_16
REMARK   13  A    between atoms: C_16  and  C_17
REMARK   14  A    between atoms: C_17  and  C_18
REMARK   15  A    between atoms: C_18  and  C_19
REMARK   16  A    between atoms: C_19  and  C_20
REMARK   17  A    between atoms: C_20  and  C_21
REMARK   18  A    between atoms: C_21  and  C_22
REMARK   19  A    between atoms: C_22  and  C_23
REMARK   20  A    between atoms: C_23  and  C_24
REMARK   21  A    between atoms: C_24  and  C_25
REMARK   22  A    between atoms: C_25  and  C_26
REMARK   23  A    between atoms: C_26  and  C_27
REMARK   24  A    between atoms: C_27  and  C_28
REMARK   25  A    between atoms: C_28  and  C_29
REMARK   26  A    between atoms: O_31  and  C_33
REMARK   27  A    between atoms: C_33  and  C_34
REMARK   28  A    between atoms: C_34  and  C_35
REMARK   29  A    between atoms: C_35  and  C_36
REMARK   30  A    between atoms: C_36  and  C_37
REMARK   31  A    between atoms: C_37  and  C_38
REMARK   32  A    between atoms: C_38  and  C_39
REMARK   33  A    between atoms: C_39  and  C_40
REMARK   34  A    between atoms: C_40  and  C_41
REMARK   35  A    between atoms: C_41  and  C_42
REMARK   36  A    between atoms: C_42  and  C_43
REMARK   37  A    between atoms: C_43  and  C_44
REMARK                            x       y       z     vdW  Elec       q    Type
REMARK                         _______ _______ _______ _____ _____    ______ ____
ROOT
ATOM      1  C   UNL     1     181.984 176.197 171.016  0.00  0.00    +0.242 C 
ENDROOT
BRANCH   1   2
ATOM      2  C   UNL     1     182.782 177.496 170.955  0.00  0.00    +0.196 C 
BRANCH   2   3
ATOM      3  O   UNL     1     181.914 178.538 170.577  0.00  0.00    -0.310 OA
BRANCH   3   4
ATOM      4  P   UNL     1     181.466 179.667 171.684  0.00  0.00    +0.214 P 
ATOM      5  O   UNL     1     180.113 180.199 171.356  0.00  0.00    -0.517 OA
ATOM      6  O   UNL     1     181.833 179.083 173.005  0.00  0.00    -0.437 OA
BRANCH   4   7
ATOM      7  O   UNL     1     182.492 180.912 171.324  0.00  0.00    -0.312 OA
BRANCH   7   8
ATOM      8  C   UNL     1     183.187 181.554 172.365  0.00  0.00    +0.170 C 
BRANCH   8   9
ATOM      9  C   UNL     1     182.217 182.446 173.108  0.00  0.00    +0.142 C 
ATOM     10  N   UNL     1     182.541 182.526 174.554  0.00  0.00    -0.129 NA
ENDBRANCH   8   9
ENDBRANCH   7   8
ENDBRANCH   4   7
ENDBRANCH   3   4
ENDBRANCH   2   3
ENDBRANCH   1   2
BRANCH   1  11
ATOM     11  C   UNL     1     181.605 175.847 172.439  0.00  0.00    +0.254 C 
BRANCH  11  12
ATOM     12  O   UNL     1     180.185 175.927 172.516  0.00  0.00    -0.444 OA
BRANCH  12  13
ATOM     13  C   UNL     1     179.618 175.975 173.718  0.00  0.00    +0.317 C 
ATOM     14  O   UNL     1     180.206 175.704 174.732  0.00  0.00    -0.250 OA
BRANCH  13  15
ATOM     15  C   UNL     1     178.184 176.412 173.624  0.00  0.00    +0.110 C 
BRANCH  15  16
ATOM     16  C   UNL     1     177.871 177.261 172.405  0.00  0.00    +0.012 C 
BRANCH  16  17
ATOM     17  C   UNL     1     176.377 177.274 172.116  0.00  0.00    +0.001 C 
BRANCH  17  18
ATOM     18  C   UNL     1     175.882 176.004 171.438  0.00  0.00    +0.000 C 
BRANCH  18  19
ATOM     19  C   UNL     1     176.683 175.633 170.199  0.00  0.00    +0.000 C 
BRANCH  19  20
ATOM     20  C   UNL     1     177.394 174.293 170.327  0.00  0.00    +0.000 C 
BRANCH  20  21
ATOM     21  C   UNL     1     177.201 173.396 169.113  0.00  0.00    +0.000 C 
BRANCH  21  22
ATOM     22  C   UNL     1     175.784 172.862 168.967  0.00  0.00    +0.000 C 
BRANCH  22  23
ATOM     23  C   UNL     1     175.380 171.929 170.101  0.00  0.00    +0.000 C 
BRANCH  23  24
ATOM     24  C   UNL     1     174.019 172.260 170.698  0.00  0.00    +0.000 C 
BRANCH  24  25
ATOM     25  C   UNL     1     174.115 173.070 171.984  0.00  0.00    +0.000 C 
BRANCH  25  26
ATOM     26  C   UNL     1     174.837 172.352 173.114  0.00  0.00    +0.000 C 
BRANCH  26  27
ATOM     27  C   UNL     1     176.200 172.954 173.420  0.00  0.00    +0.000 C 
BRANCH  27  28
ATOM     28  C   UNL     1     177.348 171.976 173.216  0.00  0.00    +0.000 C 
BRANCH  28  29
ATOM     29  C   UNL     1     178.719 172.630 173.316  0.00  0.00    +0.000 C 
ATOM     30  C   UNL     1     179.818 171.667 173.750  0.00  0.00    +0.000 C 
ENDBRANCH  28  29
ENDBRANCH  27  28
ENDBRANCH  26  27
ENDBRANCH  25  26
ENDBRANCH  24  25
ENDBRANCH  23  24
ENDBRANCH  22  23
ENDBRANCH  21  22
ENDBRANCH  20  21
ENDBRANCH  19  20
ENDBRANCH  18  19
ENDBRANCH  17  18
ENDBRANCH  16  17
ENDBRANCH  15  16
ENDBRANCH  13  15
ENDBRANCH  12  13
ENDBRANCH  11  12
ENDBRANCH   1  11
BRANCH   1  31
ATOM     31  O   UNL     1     180.729 176.243 170.319  0.00  0.00    -0.446 OA
BRANCH  31  32
ATOM     32  C   UNL     1     180.559 175.764 169.104  0.00  0.00    +0.317 C 
ATOM     33  O   UNL     1     181.120 174.769 168.699  0.00  0.00    -0.250 OA
BRANCH  32  34
ATOM     34  C   UNL     1     179.587 176.590 168.308  0.00  0.00    +0.110 C 
BRANCH  34  35
ATOM     35  C   UNL     1     179.343 177.987 168.853  0.00  0.00    +0.012 C 
BRANCH  35  36
ATOM     36  C   UNL     1     178.074 178.594 168.273  0.00  0.00    +0.001 C 
BRANCH  36  37
ATOM     37  C   UNL     1     177.322 179.469 169.267  0.00  0.00    +0.000 C 
BRANCH  37  38
ATOM     38  C   UNL     1     175.811 179.324 169.145  0.00  0.00    +0.000 C 
BRANCH  38  39
ATOM     39  C   UNL     1     175.378 178.145 168.285  0.00  0.00    +0.000 C 
BRANCH  39  40
ATOM     40  C   UNL     1     173.877 177.887 168.319  0.00  0.00    +0.000 C 
BRANCH  40  41
ATOM     41  C   UNL     1     173.468 176.616 167.586  0.00  0.00    +0.000 C 
BRANCH  41  42
ATOM     42  C   UNL     1     173.171 175.450 168.521  0.00  0.00    +0.000 C 
BRANCH  42  43
ATOM     43  C   UNL     1     171.769 175.482 169.115  0.00  0.00    +0.000 C 
BRANCH  43  44
ATOM     44  C   UNL     1     171.753 175.887 170.584  0.00  0.00    +0.000 C 
ATOM     45  C   UNL     1     170.352 175.984 171.176  0.00  0.00    +0.000 C 
ENDBRANCH  43  44
ENDBRANCH  42  43
ENDBRANCH  41  42
ENDBRANCH  40  41
ENDBRANCH  39  40
ENDBRANCH  38  39
ENDBRANCH  37  38
ENDBRANCH  36  37
ENDBRANCH  35  36
ENDBRANCH  34  35
ENDBRANCH  32  34
ENDBRANCH  31  32
ENDBRANCH   1  31
TORSDOF 37
ENDMDL
MODEL 5
REMARK VINA RESULT:      -5.4      1.959      3.860
REMARK  Name = 3PE
REMARK  37 active torsions:
REMARK  status: ('A' for Active; 'I' for Inactive)
REMARK    1  A    between atoms: P_1  and  O_3
REMARK    2  A    between atoms: P_1  and  O_5
REMARK    3  A    between atoms: O_3  and  C_9
REMARK    4  A    between atoms: O_5  and  C_7
REMARK    5  A    between atoms: C_7  and  C_8
REMARK    6  A    between atoms: C_9  and  C_10
REMARK    7  A    between atoms: C_10  and  C_11
REMARK    8  A    between atoms: C_10  and  O_31
REMARK    9  A    between atoms: C_11  and  O_12
REMARK   10  A    between atoms: O_12  and  C_14
REMARK   11  A    between atoms: C_14  and  C_15
REMARK   12  A    between atoms: C_15  and  C_16
REMARK   13  A    between atoms: C_16  and  C_17
REMARK   14  A    between atoms: C_17  and  C_18
REMARK   15  A    between atoms: C_18  and  C_19
REMARK   16  A    between atoms: C_19  and  C_20
REMARK   17  A    between atoms: C_20  and  C_21
REMARK   18  A    between atoms: C_21  and  C_22
REMARK   19  A    between atoms: C_22  and  C_23
REMARK   20  A    between atoms: C_23  and  C_24
REMARK   21  A    between atoms: C_24  and  C_25
REMARK   22  A    between atoms: C_25  and  C_26
REMARK   23  A    between atoms: C_26  and  C_27
REMARK   24  A    between atoms: C_27  and  C_28
REMARK   25  A    between atoms: C_28  and  C_29
REMARK   26  A    between atoms: O_31  and  C_33
REMARK   27  A    between atoms: C_33  and  C_34
REMARK   28  A    between atoms: C_34  and  C_35
REMARK   29  A    between atoms: C_35  and  C_36
REMARK   30  A    between atoms: C_36  and  C_37
REMARK   31  A    between atoms: C_37  and  C_38
REMARK   32  A    between atoms: C_38  and  C_39
REMARK   33  A    between atoms: C_39  and  C_40
REMARK   34  A    between atoms: C_40  and  C_41
REMARK   35  A    between atoms: C_41  and  C_42
REMARK   36  A    between atoms: C_42  and  C_43
REMARK   37  A    between atoms: C_43  and  C_44
REMARK                            x       y       z     vdW  Elec       q    Type
REMARK                         _______ _______ _______ _____ _____    ______ ____
ROOT
ATOM      1  C   UNL     1     181.751 181.820 171.624  0.00  0.00    +0.242 C 
ENDROOT
BRANCH   1   2
ATOM      2  C   UNL     1     181.898 183.319 171.866  0.00  0.00    +0.196 C 
BRANCH   2   3
ATOM      3  O   UNL     1     183.259 183.606 172.088  0.00  0.00    -0.310 OA
BRANCH   3   4
ATOM      4  P   UNL     1     183.680 184.752 173.188  0.00  0.00    +0.214 P 
ATOM      5  O   UNL     1     183.087 186.067 172.811  0.00  0.00    -0.517 OA
ATOM      6  O   UNL     1     183.492 184.104 174.516  0.00  0.00    -0.437 OA
BRANCH   4   7
ATOM      7  O   UNL     1     185.295 184.930 172.880  0.00  0.00    -0.312 OA
BRANCH   7   8
ATOM      8  C   UNL     1     186.105 185.593 173.820  0.00  0.00    +0.170 C 
BRANCH   8   9
ATOM      9  C   UNL     1     187.375 184.794 174.006  0.00  0.00    +0.142 C 
ATOM     10  N   UNL     1     187.440 184.169 175.350  0.00  0.00    -0.129 NA
ENDBRANCH   8   9
ENDBRANCH   7   8
ENDBRANCH   4   7
ENDBRANCH   3   4
ENDBRANCH   2   3
ENDBRANCH   1   2
BRANCH   1  11
ATOM     11  C   UNL     1     182.965 181.058 172.111  0.00  0.00    +0.254 C 
BRANCH  11  12
ATOM     12  O   UNL     1     182.522 179.743 172.433  0.00  0.00    -0.444 OA
BRANCH  12  13
ATOM     13  C   UNL     1     182.971 178.728 171.702  0.00  0.00    +0.317 C 
ATOM     14  O   UNL     1     184.030 178.193 171.902  0.00  0.00    -0.250 OA
BRANCH  13  15
ATOM     15  C   UNL     1     181.988 178.355 170.629  0.00  0.00    +0.110 C 
BRANCH  15  16
ATOM     16  C   UNL     1     181.060 177.213 171.006  0.00  0.00    +0.012 C 
BRANCH  16  17
ATOM     17  C   UNL     1     180.387 176.626 169.773  0.00  0.00    +0.001 C 
BRANCH  17  18
ATOM     18  C   UNL     1     179.440 177.595 169.081  0.00  0.00    +0.000 C 
BRANCH  18  19
ATOM     19  C   UNL     1     178.021 177.061 168.953  0.00  0.00    +0.000 C 
BRANCH  19  20
ATOM     20  C   UNL     1     177.109 177.977 168.148  0.00  0.00    +0.000 C 
BRANCH  20  21
ATOM     21  C   UNL     1     175.698 178.059 168.711  0.00  0.00    +0.000 C 
BRANCH  21  22
ATOM     22  C   UNL     1     174.612 178.038 167.645  0.00  0.00    +0.000 C 
BRANCH  22  23
ATOM     23  C   UNL     1     173.620 176.898 167.830  0.00  0.00    +0.000 C 
BRANCH  23  24
ATOM     24  C   UNL     1     173.729 176.218 169.188  0.00  0.00    +0.000 C 
BRANCH  24  25
ATOM     25  C   UNL     1     173.940 174.714 169.084  0.00  0.00    +0.000 C 
BRANCH  25  26
ATOM     26  C   UNL     1     175.366 174.269 169.372  0.00  0.00    +0.000 C 
BRANCH  26  27
ATOM     27  C   UNL     1     175.613 172.811 169.014  0.00  0.00    +0.000 C 
BRANCH  27  28
ATOM     28  C   UNL     1     175.635 171.892 170.227  0.00  0.00    +0.000 C 
BRANCH  28  29
ATOM     29  C   UNL     1     175.745 172.643 171.547  0.00  0.00    +0.000 C 
ATOM     30  C   UNL     1     176.258 171.779 172.693  0.00  0.00    +0.000 C 
ENDBRANCH  28  29
ENDBRANCH  27  28
ENDBRANCH  26  27
ENDBRANCH  25  26
ENDBRANCH  24  25
ENDBRANCH  23  24
ENDBRANCH  22  23
ENDBRANCH  21  22
ENDBRANCH  20  21
ENDBRANCH  19  20
ENDBRANCH  18  19
ENDBRANCH  17  18
ENDBRANCH  16  17
ENDBRANCH  15  16
ENDBRANCH  13  15
ENDBRANCH  12  13
ENDBRANCH  11  12
ENDBRANCH   1  11
BRANCH   1  31
ATOM     31  O   UNL     1     180.652 181.215 172.325  0.00  0.00    -0.446 OA
BRANCH  31  32
ATOM     32  C   UNL     1     179.501 180.928 171.754  0.00  0.00    +0.317 C 
ATOM     33  O   UNL     1     179.054 181.548 170.813  0.00  0.00    -0.250 OA
BRANCH  32  34
ATOM     34  C   UNL     1     178.834 179.746 172.402  0.00  0.00    +0.110 C 
BRANCH  34  35
ATOM     35  C   UNL     1     177.521 179.328 171.764  0.00  0.00    +0.012 C 
BRANCH  35  36
ATOM     36  C   UNL     1     176.688 178.482 172.717  0.00  0.00    +0.001 C 
BRANCH  36  37
ATOM     37  C   UNL     1     176.164 177.203 172.077  0.00  0.00    +0.000 C 
BRANCH  37  38
ATOM     38  C   UNL     1     177.031 175.993 172.399  0.00  0.00    +0.000 C 
BRANCH  38  39
ATOM     39  C   UNL     1     178.212 176.311 173.306  0.00  0.00    +0.000 C 
BRANCH  39  40
ATOM     40  C   UNL     1     178.663 175.130 174.154  0.00  0.00    +0.000 C 
BRANCH  40  41
ATOM     41  C   UNL     1     179.922 174.454 173.626  0.00  0.00    +0.000 C 
BRANCH  41  42
ATOM     42  C   UNL     1     179.635 173.200 172.810  0.00  0.00    +0.000 C 
BRANCH  42  43
ATOM     43  C   UNL     1     180.146 173.271 171.377  0.00  0.00    +0.000 C 
BRANCH  43  44
ATOM     44  C   UNL     1     179.035 173.498 170.359  0.00  0.00    +0.000 C 
ATOM     45  C   UNL     1     179.424 173.121 168.935  0.00  0.00    +0.000 C 
ENDBRANCH  43  44
ENDBRANCH  42  43
ENDBRANCH  41  42
ENDBRANCH  40  41
ENDBRANCH  39  40
ENDBRANCH  38  39
ENDBRANCH  37  38
ENDBRANCH  36  37
ENDBRANCH  35  36
ENDBRANCH  34  35
ENDBRANCH  32  34
ENDBRANCH  31  32
ENDBRANCH   1  31
TORSDOF 37
ENDMDL
MODEL 6
REMARK VINA RESULT:      -5.3      1.820      5.309
REMARK  Name = 3PE
REMARK  37 active torsions:
REMARK  status: ('A' for Active; 'I' for Inactive)
REMARK    1  A    between atoms: P_1  and  O_3
REMARK    2  A    between atoms: P_1  and  O_5
REMARK    3  A    between atoms: O_3  and  C_9
REMARK    4  A    between atoms: O_5  and  C_7
REMARK    5  A    between atoms: C_7  and  C_8
REMARK    6  A    between atoms: C_9  and  C_10
REMARK    7  A    between atoms: C_10  and  C_11
REMARK    8  A    between atoms: C_10  and  O_31
REMARK    9  A    between atoms: C_11  and  O_12
REMARK   10  A    between atoms: O_12  and  C_14
REMARK   11  A    between atoms: C_14  and  C_15
REMARK   12  A    between atoms: C_15  and  C_16
REMARK   13  A    between atoms: C_16  and  C_17
REMARK   14  A    between atoms: C_17  and  C_18
REMARK   15  A    between atoms: C_18  and  C_19
REMARK   16  A    between atoms: C_19  and  C_20
REMARK   17  A    between atoms: C_20  and  C_21
REMARK   18  A    between atoms: C_21  and  C_22
REMARK   19  A    between atoms: C_22  and  C_23
REMARK   20  A    between atoms: C_23  and  C_24
REMARK   21  A    between atoms: C_24  and  C_25
REMARK   22  A    between atoms: C_25  and  C_26
REMARK   23  A    between atoms: C_26  and  C_27
REMARK   24  A    between atoms: C_27  and  C_28
REMARK   25  A    between atoms: C_28  and  C_29
REMARK   26  A    between atoms: O_31  and  C_33
REMARK   27  A    between atoms: C_33  and  C_34
REMARK   28  A    between atoms: C_34  and  C_35
REMARK   29  A    between atoms: C_35  and  C_36
REMARK   30  A    between atoms: C_36  and  C_37
REMARK   31  A    between atoms: C_37  and  C_38
REMARK   32  A    between atoms: C_38  and  C_39
REMARK   33  A    between atoms: C_39  and  C_40
REMARK   34  A    between atoms: C_40  and  C_41
REMARK   35  A    between atoms: C_41  and  C_42
REMARK   36  A    between atoms: C_42  and  C_43
REMARK   37  A    between atoms: C_43  and  C_44
REMARK                            x       y       z     vdW  Elec       q    Type
REMARK                         _______ _______ _______ _____ _____    ______ ____
ROOT
ATOM      1  C   UNL     1     179.510 179.310 168.849  0.00  0.00    +0.242 C 
ENDROOT
BRANCH   1   2
ATOM      2  C   UNL     1     180.671 179.972 169.583  0.00  0.00    +0.196 C 
BRANCH   2   3
ATOM      3  O   UNL     1     180.387 179.975 170.963  0.00  0.00    -0.310 OA
BRANCH   3   4
ATOM      4  P   UNL     1     181.362 180.803 171.994  0.00  0.00    +0.214 P 
ATOM      5  O   UNL     1     181.927 179.880 173.019  0.00  0.00    -0.517 OA
ATOM      6  O   UNL     1     182.189 181.685 171.123  0.00  0.00    -0.437 OA
BRANCH   4   7
ATOM      7  O   UNL     1     180.265 181.716 172.827  0.00  0.00    -0.312 OA
BRANCH   7   8
ATOM      8  C   UNL     1     180.562 183.063 173.106  0.00  0.00    +0.170 C 
BRANCH   8   9
ATOM      9  C   UNL     1     181.588 183.107 174.216  0.00  0.00    +0.142 C 
ATOM     10  N   UNL     1     182.769 183.925 173.841  0.00  0.00    -0.129 NA
ENDBRANCH   8   9
ENDBRANCH   7   8
ENDBRANCH   4   7
ENDBRANCH   3   4
ENDBRANCH   2   3
ENDBRANCH   1   2
BRANCH   1  11
ATOM     11  C   UNL     1     179.862 177.905 168.409  0.00  0.00    +0.254 C 
BRANCH  11  12
ATOM     12  O   UNL     1     179.575 177.047 169.509  0.00  0.00    -0.444 OA
BRANCH  12  13
ATOM     13  C   UNL     1     180.584 176.411 170.097  0.00  0.00    +0.317 C 
ATOM     14  O   UNL     1     180.929 176.633 171.227  0.00  0.00    -0.250 OA
BRANCH  13  15
ATOM     15  C   UNL     1     181.202 175.403 169.171  0.00  0.00    +0.110 C 
BRANCH  15  16
ATOM     16  C   UNL     1     180.273 174.269 168.775  0.00  0.00    +0.012 C 
BRANCH  16  17
ATOM     17  C   UNL     1     179.747 173.538 170.001  0.00  0.00    +0.001 C 
BRANCH  17  18
ATOM     18  C   UNL     1     178.288 173.125 169.879  0.00  0.00    +0.000 C 
BRANCH  18  19
ATOM     19  C   UNL     1     177.459 174.085 169.040  0.00  0.00    +0.000 C 
BRANCH  19  20
ATOM     20  C   UNL     1     175.959 173.887 169.211  0.00  0.00    +0.000 C 
BRANCH  20  21
ATOM     21  C   UNL     1     175.549 172.422 169.229  0.00  0.00    +0.000 C 
BRANCH  21  22
ATOM     22  C   UNL     1     174.628 172.059 170.386  0.00  0.00    +0.000 C 
BRANCH  22  23
ATOM     23  C   UNL     1     175.220 171.000 171.307  0.00  0.00    +0.000 C 
BRANCH  23  24
ATOM     24  C   UNL     1     176.068 171.582 172.429  0.00  0.00    +0.000 C 
BRANCH  24  25
ATOM     25  C   UNL     1     175.563 172.932 172.918  0.00  0.00    +0.000 C 
BRANCH  25  26
ATOM     26  C   UNL     1     176.650 173.986 173.054  0.00  0.00    +0.000 C 
BRANCH  26  27
ATOM     27  C   UNL     1     176.263 175.318 172.428  0.00  0.00    +0.000 C 
BRANCH  27  28
ATOM     28  C   UNL     1     177.460 176.128 171.952  0.00  0.00    +0.000 C 
BRANCH  28  29
ATOM     29  C   UNL     1     177.833 177.260 172.899  0.00  0.00    +0.000 C 
ATOM     30  C   UNL     1     176.705 178.260 173.119  0.00  0.00    +0.000 C 
ENDBRANCH  28  29
ENDBRANCH  27  28
ENDBRANCH  26  27
ENDBRANCH  25  26
ENDBRANCH  24  25
ENDBRANCH  23  24
ENDBRANCH  22  23
ENDBRANCH  21  22
ENDBRANCH  20  21
ENDBRANCH  19  20
ENDBRANCH  18  19
ENDBRANCH  17  18
ENDBRANCH  16  17
ENDBRANCH  15  16
ENDBRANCH  13  15
ENDBRANCH  12  13
ENDBRANCH  11  12
ENDBRANCH   1  11
BRANCH   1  31
ATOM     31  O   UNL     1     178.326 179.142 169.646  0.00  0.00    -0.446 OA
BRANCH  31  32
ATOM     32  C   UNL     1     177.344 180.017 169.675  0.00  0.00    +0.317 C 
ATOM     33  O   UNL     1     177.524 181.216 169.694  0.00  0.00    -0.250 OA
BRANCH  32  34
ATOM     34  C   UNL     1     175.997 179.348 169.669  0.00  0.00    +0.110 C 
BRANCH  34  35
ATOM     35  C   UNL     1     175.982 177.953 169.066  0.00  0.00    +0.012 C 
BRANCH  35  36
ATOM     36  C   UNL     1     174.900 177.820 168.005  0.00  0.00    +0.001 C 
BRANCH  36  37
ATOM     37  C   UNL     1     173.846 176.778 168.353  0.00  0.00    +0.000 C 
BRANCH  37  38
ATOM     38  C   UNL     1     173.441 176.826 169.820  0.00  0.00    +0.000 C 
BRANCH  38  39
ATOM     39  C   UNL     1     173.071 175.467 170.397  0.00  0.00    +0.000 C 
BRANCH  39  40
ATOM     40  C   UNL     1     171.616 175.369 170.836  0.00  0.00    +0.000 C 
BRANCH  40  41
ATOM     41  C   UNL     1     171.066 173.949 170.784  0.00  0.00    +0.000 C 
BRANCH  41  42
ATOM     42  C   UNL     1     169.984 173.760 169.728  0.00  0.00    +0.000 C 
BRANCH  42  43
ATOM     43  C   UNL     1     170.437 174.114 168.318  0.00  0.00    +0.000 C 
BRANCH  43  44
ATOM     44  C   UNL     1     171.270 173.017 167.666  0.00  0.00    +0.000 C 
ATOM     45  C   UNL     1     172.704 173.437 167.364  0.00  0.00    +0.000 C 
ENDBRANCH  43  44
ENDBRANCH  42  43
ENDBRANCH  41  42
ENDBRANCH  40  41
ENDBRANCH  39  40
ENDBRANCH  38  39
ENDBRANCH  37  38
ENDBRANCH  36  37
ENDBRANCH  35  36
ENDBRANCH  34  35
ENDBRANCH  32  34
ENDBRANCH  31  32
ENDBRANCH   1  31
TORSDOF 37
ENDMDL
MODEL 7
REMARK VINA RESULT:      -5.3      1.805      5.012
REMARK  Name = 3PE
REMARK  37 active torsions:
REMARK  status: ('A' for Active; 'I' for Inactive)
REMARK    1  A    between atoms: P_1  and  O_3
REMARK    2  A    between atoms: P_1  and  O_5
REMARK    3  A    between atoms: O_3  and  C_9
REMARK    4  A    between atoms: O_5  and  C_7
REMARK    5  A    between atoms: C_7  and  C_8
REMARK    6  A    between atoms: C_9  and  C_10
REMARK    7  A    between atoms: C_10  and  C_11
REMARK    8  A    between atoms: C_10  and  O_31
REMARK    9  A    between atoms: C_11  and  O_12
REMARK   10  A    between atoms: O_12  and  C_14
REMARK   11  A    between atoms: C_14  and  C_15
REMARK   12  A    between atoms: C_15  and  C_16
REMARK   13  A    between atoms: C_16  and  C_17
REMARK   14  A    between atoms: C_17  and  C_18
REMARK   15  A    between atoms: C_18  and  C_19
REMARK   16  A    between atoms: C_19  and  C_20
REMARK   17  A    between atoms: C_20  and  C_21
REMARK   18  A    between atoms: C_21  and  C_22
REMARK   19  A    between atoms: C_22  and  C_23
REMARK   20  A    between atoms: C_23  and  C_24
REMARK   21  A    between atoms: C_24  and  C_25
REMARK   22  A    between atoms: C_25  and  C_26
REMARK   23  A    between atoms: C_26  and  C_27
REMARK   24  A    between atoms: C_27  and  C_28
REMARK   25  A    between atoms: C_28  and  C_29
REMARK   26  A    between atoms: O_31  and  C_33
REMARK   27  A    between atoms: C_33  and  C_34
REMARK   28  A    between atoms: C_34  and  C_35
REMARK   29  A    between atoms: C_35  and  C_36
REMARK   30  A    between atoms: C_36  and  C_37
REMARK   31  A    between atoms: C_37  and  C_38
REMARK   32  A    between atoms: C_38  and  C_39
REMARK   33  A    between atoms: C_39  and  C_40
REMARK   34  A    between atoms: C_40  and  C_41
REMARK   35  A    between atoms: C_41  and  C_42
REMARK   36  A    between atoms: C_42  and  C_43
REMARK   37  A    between atoms: C_43  and  C_44
REMARK                            x       y       z     vdW  Elec       q    Type
REMARK                         _______ _______ _______ _____ _____    ______ ____
ROOT
ATOM      1  C   UNL     1     179.918 181.424 171.061  0.00  0.00    +0.242 C 
ENDROOT
BRANCH   1   2
ATOM      2  C   UNL     1     180.686 182.739 171.139  0.00  0.00    +0.196 C 
BRANCH   2   3
ATOM      3  O   UNL     1     181.573 182.677 172.231  0.00  0.00    -0.310 OA
BRANCH   3   4
ATOM      4  P   UNL     1     183.193 182.764 171.971  0.00  0.00    +0.214 P 
ATOM      5  O   UNL     1     183.696 181.469 171.431  0.00  0.00    -0.517 OA
ATOM      6  O   UNL     1     183.411 184.082 171.310  0.00  0.00    -0.437 OA
BRANCH   4   7
ATOM      7  O   UNL     1     183.776 182.816 173.517  0.00  0.00    -0.312 OA
BRANCH   7   8
ATOM      8  C   UNL     1     184.801 183.725 173.836  0.00  0.00    +0.170 C 
BRANCH   8   9
ATOM      9  C   UNL     1     186.093 182.955 173.992  0.00  0.00    +0.142 C 
ATOM     10  N   UNL     1     187.274 183.791 173.663  0.00  0.00    -0.129 NA
ENDBRANCH   8   9
ENDBRANCH   7   8
ENDBRANCH   4   7
ENDBRANCH   3   4
ENDBRANCH   2   3
ENDBRANCH   1   2
BRANCH   1  11
ATOM     11  C   UNL     1     179.694 180.831 172.435  0.00  0.00    +0.254 C 
BRANCH  11  12
ATOM     12  O   UNL     1     179.698 179.415 172.276  0.00  0.00    -0.444 OA
BRANCH  12  13
ATOM     13  C   UNL     1     180.851 178.812 172.005  0.00  0.00    +0.317 C 
ATOM     14  O   UNL     1     181.845 178.970 172.665  0.00  0.00    -0.250 OA
BRANCH  13  15
ATOM     15  C   UNL     1     180.730 177.927 170.798  0.00  0.00    +0.110 C 
BRANCH  15  16
ATOM     16  C   UNL     1     179.321 177.430 170.530  0.00  0.00    +0.012 C 
BRANCH  16  17
ATOM     17  C   UNL     1     179.294 176.471 169.348  0.00  0.00    +0.001 C 
BRANCH  17  18
ATOM     18  C   UNL     1     177.995 175.687 169.235  0.00  0.00    +0.000 C 
BRANCH  18  19
ATOM     19  C   UNL     1     178.113 174.254 169.731  0.00  0.00    +0.000 C 
BRANCH  19  20
ATOM     20  C   UNL     1     179.244 173.483 169.066  0.00  0.00    +0.000 C 
BRANCH  20  21
ATOM     21  C   UNL     1     180.281 172.972 170.055  0.00  0.00    +0.000 C 
BRANCH  21  22
ATOM     22  C   UNL     1     181.546 173.818 170.106  0.00  0.00    +0.000 C 
BRANCH  22  23
ATOM     23  C   UNL     1     181.877 174.309 171.509  0.00  0.00    +0.000 C 
BRANCH  23  24
ATOM     24  C   UNL     1     180.693 174.245 172.465  0.00  0.00    +0.000 C 
BRANCH  24  25
ATOM     25  C   UNL     1     180.612 175.449 173.392  0.00  0.00    +0.000 C 
BRANCH  25  26
ATOM     26  C   UNL     1     179.290 175.568 174.136  0.00  0.00    +0.000 C 
BRANCH  26  27
ATOM     27  C   UNL     1     178.136 174.907 173.398  0.00  0.00    +0.000 C 
BRANCH  27  28
ATOM     28  C   UNL     1     177.120 175.903 172.858  0.00  0.00    +0.000 C 
BRANCH  28  29
ATOM     29  C   UNL     1     177.057 177.193 173.665  0.00  0.00    +0.000 C 
ATOM     30  C   UNL     1     176.587 178.392 172.850  0.00  0.00    +0.000 C 
ENDBRANCH  28  29
ENDBRANCH  27  28
ENDBRANCH  26  27
ENDBRANCH  25  26
ENDBRANCH  24  25
ENDBRANCH  23  24
ENDBRANCH  22  23
ENDBRANCH  21  22
ENDBRANCH  20  21
ENDBRANCH  19  20
ENDBRANCH  18  19
ENDBRANCH  17  18
ENDBRANCH  16  17
ENDBRANCH  15  16
ENDBRANCH  13  15
ENDBRANCH  12  13
ENDBRANCH  11  12
ENDBRANCH   1  11
BRANCH   1  31
ATOM     31  O   UNL     1     178.596 181.545 170.511  0.00  0.00    -0.446 OA
BRANCH  31  32
ATOM     32  C   UNL     1     178.154 180.800 169.520  0.00  0.00    +0.317 C 
ATOM     33  O   UNL     1     178.869 180.385 168.633  0.00  0.00    -0.250 OA
BRANCH  32  34
ATOM     34  C   UNL     1     176.680 180.528 169.638  0.00  0.00    +0.110 C 
BRANCH  34  35
ATOM     35  C   UNL     1     176.286 179.071 169.470  0.00  0.00    +0.012 C 
BRANCH  35  36
ATOM     36  C   UNL     1     175.025 178.931 168.630  0.00  0.00    +0.001 C 
BRANCH  36  37
ATOM     37  C   UNL     1     174.430 177.530 168.674  0.00  0.00    +0.000 C 
BRANCH  37  38
ATOM     38  C   UNL     1     174.645 176.848 170.018  0.00  0.00    +0.000 C 
BRANCH  38  39
ATOM     39  C   UNL     1     173.785 175.608 170.219  0.00  0.00    +0.000 C 
BRANCH  39  40
ATOM     40  C   UNL     1     174.502 174.308 169.879  0.00  0.00    +0.000 C 
BRANCH  40  41
ATOM     41  C   UNL     1     174.125 173.153 170.797  0.00  0.00    +0.000 C 
BRANCH  41  42
ATOM     42  C   UNL     1     174.862 173.178 172.130  0.00  0.00    +0.000 C 
BRANCH  42  43
ATOM     43  C   UNL     1     175.780 171.981 172.344  0.00  0.00    +0.000 C 
BRANCH  43  44
ATOM     44  C   UNL     1     176.161 171.777 173.806  0.00  0.00    +0.000 C 
ATOM     45  C   UNL     1     177.590 171.287 174.002  0.00  0.00    +0.000 C 
ENDBRANCH  43  44
ENDBRANCH  42  43
ENDBRANCH  41  42
ENDBRANCH  40  41
ENDBRANCH  39  40
ENDBRANCH  38  39
ENDBRANCH  37  38
ENDBRANCH  36  37
ENDBRANCH  35  36
ENDBRANCH  34  35
ENDBRANCH  32  34
ENDBRANCH  31  32
ENDBRANCH   1  31
TORSDOF 37
ENDMDL
MODEL 8
REMARK VINA RESULT:      -5.3      1.563      3.353
REMARK  Name = 3PE
REMARK  37 active torsions:
REMARK  status: ('A' for Active; 'I' for Inactive)
REMARK    1  A    between atoms: P_1  and  O_3
REMARK    2  A    between atoms: P_1  and  O_5
REMARK    3  A    between atoms: O_3  and  C_9
REMARK    4  A    between atoms: O_5  and  C_7
REMARK    5  A    between atoms: C_7  and  C_8
REMARK    6  A    between atoms: C_9  and  C_10
REMARK    7  A    between atoms: C_10  and  C_11
REMARK    8  A    between atoms: C_10  and  O_31
REMARK    9  A    between atoms: C_11  and  O_12
REMARK   10  A    between atoms: O_12  and  C_14
REMARK   11  A    between atoms: C_14  and  C_15
REMARK   12  A    between atoms: C_15  and  C_16
REMARK   13  A    between atoms: C_16  and  C_17
REMARK   14  A    between atoms: C_17  and  C_18
REMARK   15  A    between atoms: C_18  and  C_19
REMARK   16  A    between atoms: C_19  and  C_20
REMARK   17  A    between atoms: C_20  and  C_21
REMARK   18  A    between atoms: C_21  and  C_22
REMARK   19  A    between atoms: C_22  and  C_23
REMARK   20  A    between atoms: C_23  and  C_24
REMARK   21  A    between atoms: C_24  and  C_25
REMARK   22  A    between atoms: C_25  and  C_26
REMARK   23  A    between atoms: C_26  and  C_27
REMARK   24  A    between atoms: C_27  and  C_28
REMARK   25  A    between atoms: C_28  and  C_29
REMARK   26  A    between atoms: O_31  and  C_33
REMARK   27  A    between atoms: C_33  and  C_34
REMARK   28  A    between atoms: C_34  and  C_35
REMARK   29  A    between atoms: C_35  and  C_36
REMARK   30  A    between atoms: C_36  and  C_37
REMARK   31  A    between atoms: C_37  and  C_38
REMARK   32  A    between atoms: C_38  and  C_39
REMARK   33  A    between atoms: C_39  and  C_40
REMARK   34  A    between atoms: C_40  and  C_41
REMARK   35  A    between atoms: C_41  and  C_42
REMARK   36  A    between atoms: C_42  and  C_43
REMARK   37  A    between atoms: C_43  and  C_44
REMARK                            x       y       z     vdW  Elec       q    Type
REMARK                         _______ _______ _______ _____ _____    ______ ____
ROOT
ATOM      1  C   UNL     1     179.766 180.161 171.210  0.00  0.00    +0.242 C 
ENDROOT
BRANCH   1   2
ATOM      2  C   UNL     1     180.019 181.626 171.552  0.00  0.00    +0.196 C 
BRANCH   2   3
ATOM      3  O   UNL     1     179.933 181.782 172.949  0.00  0.00    -0.310 OA
BRANCH   3   4
ATOM      4  P   UNL     1     180.617 183.093 173.665  0.00  0.00    +0.214 P 
ATOM      5  O   UNL     1     179.605 183.814 174.489  0.00  0.00    -0.517 OA
ATOM      6  O   UNL     1     181.927 182.611 174.189  0.00  0.00    -0.437 OA
BRANCH   4   7
ATOM      7  O   UNL     1     180.870 184.086 172.368  0.00  0.00    -0.312 OA
BRANCH   7   8
ATOM      8  C   UNL     1     182.036 184.872 172.320  0.00  0.00    +0.170 C 
BRANCH   8   9
ATOM      9  C   UNL     1     182.862 184.430 171.133  0.00  0.00    +0.142 C 
ATOM     10  N   UNL     1     184.117 183.761 171.555  0.00  0.00    -0.129 NA
ENDBRANCH   8   9
ENDBRANCH   7   8
ENDBRANCH   4   7
ENDBRANCH   3   4
ENDBRANCH   2   3
ENDBRANCH   1   2
BRANCH   1  11
ATOM     11  C   UNL     1     178.715 180.017 170.130  0.00  0.00    +0.254 C 
BRANCH  11  12
ATOM     12  O   UNL     1     179.221 180.678 168.975  0.00  0.00    -0.444 OA
BRANCH  12  13
ATOM     13  C   UNL     1     179.219 180.022 167.819  0.00  0.00    +0.317 C 
ATOM     14  O   UNL     1     179.731 180.452 166.819  0.00  0.00    -0.250 OA
BRANCH  13  15
ATOM     15  C   UNL     1     178.513 178.702 167.945  0.00  0.00    +0.110 C 
BRANCH  15  16
ATOM     16  C   UNL     1     179.427 177.494 167.835  0.00  0.00    +0.012 C 
BRANCH  16  17
ATOM     17  C   UNL     1     179.361 176.641 169.094  0.00  0.00    +0.001 C 
BRANCH  17  18
ATOM     18  C   UNL     1     180.598 175.782 169.308  0.00  0.00    +0.000 C 
BRANCH  18  19
ATOM     19  C   UNL     1     180.625 174.538 168.432  0.00  0.00    +0.000 C 
BRANCH  19  20
ATOM     20  C   UNL     1     179.403 173.649 168.620  0.00  0.00    +0.000 C 
BRANCH  20  21
ATOM     21  C   UNL     1     179.163 173.264 170.072  0.00  0.00    +0.000 C 
BRANCH  21  22
ATOM     22  C   UNL     1     177.743 173.533 170.549  0.00  0.00    +0.000 C 
BRANCH  22  23
ATOM     23  C   UNL     1     176.812 173.974 169.427  0.00  0.00    +0.000 C 
BRANCH  23  24
ATOM     24  C   UNL     1     176.032 172.824 168.803  0.00  0.00    +0.000 C 
BRANCH  24  25
ATOM     25  C   UNL     1     174.543 173.112 168.683  0.00  0.00    +0.000 C 
BRANCH  25  26
ATOM     26  C   UNL     1     174.051 174.216 169.607  0.00  0.00    +0.000 C 
BRANCH  26  27
ATOM     27  C   UNL     1     172.596 174.587 169.360  0.00  0.00    +0.000 C 
BRANCH  27  28
ATOM     28  C   UNL     1     172.105 175.717 170.254  0.00  0.00    +0.000 C 
BRANCH  28  29
ATOM     29  C   UNL     1     170.883 175.341 171.081  0.00  0.00    +0.000 C 
ATOM     30  C   UNL     1     170.198 176.540 171.726  0.00  0.00    +0.000 C 
ENDBRANCH  28  29
ENDBRANCH  27  28
ENDBRANCH  26  27
ENDBRANCH  25  26
ENDBRANCH  24  25
ENDBRANCH  23  24
ENDBRANCH  22  23
ENDBRANCH  21  22
ENDBRANCH  20  21
ENDBRANCH  19  20
ENDBRANCH  18  19
ENDBRANCH  17  18
ENDBRANCH  16  17
ENDBRANCH  15  16
ENDBRANCH  13  15
ENDBRANCH  12  13
ENDBRANCH  11  12
ENDBRANCH   1  11
BRANCH   1  31
ATOM     31  O   UNL     1     180.911 179.473 170.679  0.00  0.00    -0.446 OA
BRANCH  31  32
ATOM     32  C   UNL     1     181.535 178.507 171.319  0.00  0.00    +0.317 C 
ATOM     33  O   UNL     1     182.648 178.127 171.023  0.00  0.00    -0.250 OA
BRANCH  32  34
ATOM     34  C   UNL     1     180.709 177.959 172.449  0.00  0.00    +0.110 C 
BRANCH  34  35
ATOM     35  C   UNL     1     181.227 176.661 173.045  0.00  0.00    +0.012 C 
BRANCH  35  36
ATOM     36  C   UNL     1     180.196 175.548 172.925  0.00  0.00    +0.001 C 
BRANCH  36  37
ATOM     37  C   UNL     1     179.235 175.494 174.105  0.00  0.00    +0.000 C 
BRANCH  37  38
ATOM     38  C   UNL     1     177.777 175.469 173.668  0.00  0.00    +0.000 C 
BRANCH  38  39
ATOM     39  C   UNL     1     177.217 176.844 173.328  0.00  0.00    +0.000 C 
BRANCH  39  40
ATOM     40  C   UNL     1     177.057 177.082 171.832  0.00  0.00    +0.000 C 
BRANCH  40  41
ATOM     41  C   UNL     1     175.610 177.011 171.362  0.00  0.00    +0.000 C 
BRANCH  41  42
ATOM     42  C   UNL     1     175.021 178.374 171.019  0.00  0.00    +0.000 C 
BRANCH  42  43
ATOM     43  C   UNL     1     175.171 178.755 169.552  0.00  0.00    +0.000 C 
BRANCH  43  44
ATOM     44  C   UNL     1     175.200 177.547 168.623  0.00  0.00    +0.000 C 
ATOM     45  C   UNL     1     174.055 177.521 167.618  0.00  0.00    +0.000 C 
ENDBRANCH  43  44
ENDBRANCH  42  43
ENDBRANCH  41  42
ENDBRANCH  40  41
ENDBRANCH  39  40
ENDBRANCH  38  39
ENDBRANCH  37  38
ENDBRANCH  36  37
ENDBRANCH  35  36
ENDBRANCH  34  35
ENDBRANCH  32  34
ENDBRANCH  31  32
ENDBRANCH   1  31
TORSDOF 37
ENDMDL
MODEL 9
REMARK VINA RESULT:      -5.3      2.131      6.179
REMARK  Name = 3PE
REMARK  37 active torsions:
REMARK  status: ('A' for Active; 'I' for Inactive)
REMARK    1  A    between atoms: P_1  and  O_3
REMARK    2  A    between atoms: P_1  and  O_5
REMARK    3  A    between atoms: O_3  and  C_9
REMARK    4  A    between atoms: O_5  and  C_7
REMARK    5  A    between atoms: C_7  and  C_8
REMARK    6  A    between atoms: C_9  and  C_10
REMARK    7  A    between atoms: C_10  and  C_11
REMARK    8  A    between atoms: C_10  and  O_31
REMARK    9  A    between atoms: C_11  and  O_12
REMARK   10  A    between atoms: O_12  and  C_14
REMARK   11  A    between atoms: C_14  and  C_15
REMARK   12  A    between atoms: C_15  and  C_16
REMARK   13  A    between atoms: C_16  and  C_17
REMARK   14  A    between atoms: C_17  and  C_18
REMARK   15  A    between atoms: C_18  and  C_19
REMARK   16  A    between atoms: C_19  and  C_20
REMARK   17  A    between atoms: C_20  and  C_21
REMARK   18  A    between atoms: C_21  and  C_22
REMARK   19  A    between atoms: C_22  and  C_23
REMARK   20  A    between atoms: C_23  and  C_24
REMARK   21  A    between atoms: C_24  and  C_25
REMARK   22  A    between atoms: C_25  and  C_26
REMARK   23  A    between atoms: C_26  and  C_27
REMARK   24  A    between atoms: C_27  and  C_28
REMARK   25  A    between atoms: C_28  and  C_29
REMARK   26  A    between atoms: O_31  and  C_33
REMARK   27  A    between atoms: C_33  and  C_34
REMARK   28  A    between atoms: C_34  and  C_35
REMARK   29  A    between atoms: C_35  and  C_36
REMARK   30  A    between atoms: C_36  and  C_37
REMARK   31  A    between atoms: C_37  and  C_38
REMARK   32  A    between atoms: C_38  and  C_39
REMARK   33  A    between atoms: C_39  and  C_40
REMARK   34  A    between atoms: C_40  and  C_41
REMARK   35  A    between atoms: C_41  and  C_42
REMARK   36  A    between atoms: C_42  and  C_43
REMARK   37  A    between atoms: C_43  and  C_44
REMARK                            x       y       z     vdW  Elec       q    Type
REMARK                         _______ _______ _______ _____ _____    ______ ____
ROOT
ATOM      1  C   UNL     1     178.662 179.507 170.308  0.00  0.00    +0.242 C 
ENDROOT
BRANCH   1   2
ATOM      2  C   UNL     1     179.669 180.637 170.498  0.00  0.00    +0.196 C 
BRANCH   2   3
ATOM      3  O   UNL     1     180.965 180.121 170.301  0.00  0.00    -0.310 OA
BRANCH   3   4
ATOM      4  P   UNL     1     181.941 179.856 171.595  0.00  0.00    +0.214 P 
ATOM      5  O   UNL     1     181.122 179.545 172.801  0.00  0.00    -0.517 OA
ATOM      6  O   UNL     1     183.035 178.982 171.085  0.00  0.00    -0.437 OA
BRANCH   4   7
ATOM      7  O   UNL     1     182.531 181.373 171.883  0.00  0.00    -0.312 OA
BRANCH   7   8
ATOM      8  C   UNL     1     183.655 181.527 172.715  0.00  0.00    +0.170 C 
BRANCH   8   9
ATOM      9  C   UNL     1     183.211 182.184 174.003  0.00  0.00    +0.142 C 
ATOM     10  N   UNL     1     182.729 183.569 173.776  0.00  0.00    -0.129 NA
ENDBRANCH   8   9
ENDBRANCH   7   8
ENDBRANCH   4   7
ENDBRANCH   3   4
ENDBRANCH   2   3
ENDBRANCH   1   2
BRANCH   1  11
ATOM     11  C   UNL     1     177.739 179.382 171.501  0.00  0.00    +0.254 C 
BRANCH  11  12
ATOM     12  O   UNL     1     177.961 178.089 172.057  0.00  0.00    -0.444 OA
BRANCH  12  13
ATOM     13  C   UNL     1     176.917 177.416 172.531  0.00  0.00    +0.317 C 
ATOM     14  O   UNL     1     175.784 177.811 172.436  0.00  0.00    -0.250 OA
BRANCH  13  15
ATOM     15  C   UNL     1     177.347 176.129 173.174  0.00  0.00    +0.110 C 
BRANCH  15  16
ATOM     16  C   UNL     1     176.577 174.909 172.700  0.00  0.00    +0.012 C 
BRANCH  16  17
ATOM     17  C   UNL     1     177.378 173.635 172.926  0.00  0.00    +0.001 C 
BRANCH  17  18
ATOM     18  C   UNL     1     178.353 173.326 171.799  0.00  0.00    +0.000 C 
BRANCH  18  19
ATOM     19  C   UNL     1     177.667 173.062 170.466  0.00  0.00    +0.000 C 
BRANCH  19  20
ATOM     20  C   UNL     1     178.263 173.867 169.319  0.00  0.00    +0.000 C 
BRANCH  20  21
ATOM     21  C   UNL     1     178.350 175.356 169.616  0.00  0.00    +0.000 C 
BRANCH  21  22
ATOM     22  C   UNL     1     179.544 176.040 168.965  0.00  0.00    +0.000 C 
BRANCH  22  23
ATOM     23  C   UNL     1     180.501 175.060 168.299  0.00  0.00    +0.000 C 
BRANCH  23  24
ATOM     24  C   UNL     1     181.829 174.923 169.031  0.00  0.00    +0.000 C 
BRANCH  24  25
ATOM     25  C   UNL     1     181.863 173.738 169.986  0.00  0.00    +0.000 C 
BRANCH  25  26
ATOM     26  C   UNL     1     181.972 174.129 171.452  0.00  0.00    +0.000 C 
BRANCH  26  27
ATOM     27  C   UNL     1     182.079 175.633 171.655  0.00  0.00    +0.000 C 
BRANCH  27  28
ATOM     28  C   UNL     1     181.107 176.167 172.698  0.00  0.00    +0.000 C 
BRANCH  28  29
ATOM     29  C   UNL     1     180.699 175.123 173.729  0.00  0.00    +0.000 C 
ATOM     30  C   UNL     1     180.449 175.708 175.114  0.00  0.00    +0.000 C 
ENDBRANCH  28  29
ENDBRANCH  27  28
ENDBRANCH  26  27
ENDBRANCH  25  26
ENDBRANCH  24  25
ENDBRANCH  23  24
ENDBRANCH  22  23
ENDBRANCH  21  22
ENDBRANCH  20  21
ENDBRANCH  19  20
ENDBRANCH  18  19
ENDBRANCH  17  18
ENDBRANCH  16  17
ENDBRANCH  15  16
ENDBRANCH  13  15
ENDBRANCH  12  13
ENDBRANCH  11  12
ENDBRANCH   1  11
BRANCH   1  31
ATOM     31  O   UNL     1     177.773 179.690 169.194  0.00  0.00    -0.446 OA
BRANCH  31  32
ATOM     32  C   UNL     1     176.482 179.441 169.251  0.00  0.00    +0.317 C 
ATOM     33  O   UNL     1     175.668 180.247 169.649  0.00  0.00    -0.250 OA
BRANCH  32  34
ATOM     34  C   UNL     1     176.156 178.059 168.755  0.00  0.00    +0.110 C 
BRANCH  34  35
ATOM     35  C   UNL     1     175.027 177.996 167.742  0.00  0.00    +0.012 C 
BRANCH  35  36
ATOM     36  C   UNL     1     173.878 177.134 168.246  0.00  0.00    +0.001 C 
BRANCH  36  37
ATOM     37  C   UNL     1     173.887 176.950 169.757  0.00  0.00    +0.000 C 
BRANCH  37  38
ATOM     38  C   UNL     1     173.885 175.484 170.166  0.00  0.00    +0.000 C 
BRANCH  38  39
ATOM     39  C   UNL     1     174.625 174.576 169.193  0.00  0.00    +0.000 C 
BRANCH  39  40
ATOM     40  C   UNL     1     174.271 173.103 169.346  0.00  0.00    +0.000 C 
BRANCH  40  41
ATOM     41  C   UNL     1     173.429 172.811 170.581  0.00  0.00    +0.000 C 
BRANCH  41  42
ATOM     42  C   UNL     1     174.216 172.145 171.703  0.00  0.00    +0.000 C 
BRANCH  42  43
ATOM     43  C   UNL     1     174.894 170.846 171.288  0.00  0.00    +0.000 C 
BRANCH  43  44
ATOM     44  C   UNL     1     175.562 170.124 172.453  0.00  0.00    +0.000 C 
ATOM     45  C   UNL     1     175.215 170.712 173.816  0.00  0.00    +0.000 C 
ENDBRANCH  43  44
ENDBRANCH  42  43
ENDBRANCH  41  42
ENDBRANCH  40  41
ENDBRANCH  39  40
ENDBRANCH  38  39
ENDBRANCH  37  38
ENDBRANCH  36  37
ENDBRANCH  35  36
ENDBRANCH  34  35
ENDBRANCH  32  34
ENDBRANCH  31  32
ENDBRANCH   1  31
TORSDOF 37
ENDMDL
MODEL 10
REMARK VINA RESULT:      -5.2      2.179      4.721
REMARK  Name = 3PE
REMARK  37 active torsions:
REMARK  status: ('A' for Active; 'I' for Inactive)
REMARK    1  A    between atoms: P_1  and  O_3
REMARK    2  A    between atoms: P_1  and  O_5
REMARK    3  A    between atoms: O_3  and  C_9
REMARK    4  A    between atoms: O_5  and  C_7
REMARK    5  A    between atoms: C_7  and  C_8
REMARK    6  A    between atoms: C_9  and  C_10
REMARK    7  A    between atoms: C_10  and  C_11
REMARK    8  A    between atoms: C_10  and  O_31
REMARK    9  A    between atoms: C_11  and  O_12
REMARK   10  A    between atoms: O_12  and  C_14
REMARK   11  A    between atoms: C_14  and  C_15
REMARK   12  A    between atoms: C_15  and  C_16
REMARK   13  A    between atoms: C_16  and  C_17
REMARK   14  A    between atoms: C_17  and  C_18
REMARK   15  A    between atoms: C_18  and  C_19
REMARK   16  A    between atoms: C_19  and  C_20
REMARK   17  A    between atoms: C_20  and  C_21
REMARK   18  A    between atoms: C_21  and  C_22
REMARK   19  A    between atoms: C_22  and  C_23
REMARK   20  A    between atoms: C_23  and  C_24
REMARK   21  A    between atoms: C_24  and  C_25
REMARK   22  A    between atoms: C_25  and  C_26
REMARK   23  A    between atoms: C_26  and  C_27
REMARK   24  A    between atoms: C_27  and  C_28
REMARK   25  A    between atoms: C_28  and  C_29
REMARK   26  A    between atoms: O_31  and  C_33
REMARK   27  A    between atoms: C_33  and  C_34
REMARK   28  A    between atoms: C_34  and  C_35
REMARK   29  A    between atoms: C_35  and  C_36
REMARK   30  A    between atoms: C_36  and  C_37
REMARK   31  A    between atoms: C_37  and  C_38
REMARK   32  A    between atoms: C_38  and  C_39
REMARK   33  A    between atoms: C_39  and  C_40
REMARK   34  A    between atoms: C_40  and  C_41
REMARK   35  A    between atoms: C_41  and  C_42
REMARK   36  A    between atoms: C_42  and  C_43
REMARK   37  A    between atoms: C_43  and  C_44
REMARK                            x       y       z     vdW  Elec       q    Type
REMARK                         _______ _______ _______ _____ _____    ______ ____
ROOT
ATOM      1  C   UNL     1     181.764 178.545 171.838  0.00  0.00    +0.242 C 
ENDROOT
BRANCH   1   2
ATOM      2  C   UNL     1     181.552 180.025 171.538  0.00  0.00    +0.196 C 
BRANCH   2   3
ATOM      3  O   UNL     1     181.465 180.723 172.758  0.00  0.00    -0.310 OA
BRANCH   3   4
ATOM      4  P   UNL     1     182.707 181.687 173.235  0.00  0.00    +0.214 P 
ATOM      5  O   UNL     1     182.939 181.539 174.700  0.00  0.00    -0.517 OA
ATOM      6  O   UNL     1     183.765 181.499 172.202  0.00  0.00    -0.437 OA
BRANCH   4   7
ATOM      7  O   UNL     1     182.040 183.191 173.077  0.00  0.00    -0.312 OA
BRANCH   7   8
ATOM      8  C   UNL     1     182.179 183.881 171.859  0.00  0.00    +0.170 C 
BRANCH   8   9
ATOM      9  C   UNL     1     181.475 185.214 171.981  0.00  0.00    +0.142 C 
ATOM     10  N   UNL     1     180.087 185.059 172.484  0.00  0.00    -0.129 NA
ENDBRANCH   8   9
ENDBRANCH   7   8
ENDBRANCH   4   7
ENDBRANCH   3   4
ENDBRANCH   2   3
ENDBRANCH   1   2
BRANCH   1  11
ATOM     11  C   UNL     1     180.533 177.924 172.463  0.00  0.00    +0.254 C 
BRANCH  11  12
ATOM     12  O   UNL     1     180.991 177.054 173.494  0.00  0.00    -0.444 OA
BRANCH  12  13
ATOM     13  C   UNL     1     180.227 176.022 173.836  0.00  0.00    +0.317 C 
ATOM     14  O   UNL     1     180.319 175.461 174.896  0.00  0.00    -0.250 OA
BRANCH  13  15
ATOM     15  C   UNL     1     179.257 175.678 172.742  0.00  0.00    +0.110 C 
BRANCH  15  16
ATOM     16  C   UNL     1     177.889 175.243 173.237  0.00  0.00    +0.012 C 
BRANCH  16  17
ATOM     17  C   UNL     1     177.827 173.734 173.421  0.00  0.00    +0.001 C 
BRANCH  17  18
ATOM     18  C   UNL     1     176.663 173.083 172.687  0.00  0.00    +0.000 C 
BRANCH  18  19
ATOM     19  C   UNL     1     175.709 174.088 172.061  0.00  0.00    +0.000 C 
BRANCH  19  20
ATOM     20  C   UNL     1     174.776 173.466 171.032  0.00  0.00    +0.000 C 
BRANCH  20  21
ATOM     21  C   UNL     1     174.996 174.002 169.625  0.00  0.00    +0.000 C 
BRANCH  21  22
ATOM     22  C   UNL     1     174.392 173.126 168.536  0.00  0.00    +0.000 C 
BRANCH  22  23
ATOM     23  C   UNL     1     173.077 173.671 167.996  0.00  0.00    +0.000 C 
BRANCH  23  24
ATOM     24  C   UNL     1     172.956 175.185 168.116  0.00  0.00    +0.000 C 
BRANCH  24  25
ATOM     25  C   UNL     1     171.662 175.626 168.784  0.00  0.00    +0.000 C 
BRANCH  25  26
ATOM     26  C   UNL     1     171.794 175.881 170.278  0.00  0.00    +0.000 C 
BRANCH  26  27
ATOM     27  C   UNL     1     170.452 175.891 170.996  0.00  0.00    +0.000 C 
BRANCH  27  28
ATOM     28  C   UNL     1     170.076 174.538 171.583  0.00  0.00    +0.000 C 
BRANCH  28  29
ATOM     29  C   UNL     1     171.262 173.593 171.719  0.00  0.00    +0.000 C 
ATOM     30  C   UNL     1     171.124 172.326 170.883  0.00  0.00    +0.000 C 
ENDBRANCH  28  29
ENDBRANCH  27  28
ENDBRANCH  26  27
ENDBRANCH  25  26
ENDBRANCH  24  25
ENDBRANCH  23  24
ENDBRANCH  22  23
ENDBRANCH  21  22
ENDBRANCH  20  21
ENDBRANCH  19  20
ENDBRANCH  18  19
ENDBRANCH  17  18
ENDBRANCH  16  17
ENDBRANCH  15  16
ENDBRANCH  13  15
ENDBRANCH  12  13
ENDBRANCH  11  12
ENDBRANCH   1  11
BRANCH   1  31
ATOM     31  O   UNL     1     182.013 177.737 170.676  0.00  0.00    -0.446 OA
BRANCH  31  32
ATOM     32  C   UNL     1     183.003 176.873 170.594  0.00  0.00    +0.317 C 
ATOM     33  O   UNL     1     184.157 177.163 170.828  0.00  0.00    -0.250 OA
BRANCH  32  34
ATOM     34  C   UNL     1     182.521 175.506 170.194  0.00  0.00    +0.110 C 
BRANCH  34  35
ATOM     35  C   UNL     1     182.515 174.481 171.314  0.00  0.00    +0.012 C 
BRANCH  35  36
ATOM     36  C   UNL     1     181.569 173.329 171.005  0.00  0.00    +0.001 C 
BRANCH  36  37
ATOM     37  C   UNL     1     180.778 173.534 169.721  0.00  0.00    +0.000 C 
BRANCH  37  38
ATOM     38  C   UNL     1     179.285 173.301 169.911  0.00  0.00    +0.000 C 
BRANCH  38  39
ATOM     39  C   UNL     1     178.413 174.368 169.264  0.00  0.00    +0.000 C 
BRANCH  39  40
ATOM     40  C   UNL     1     179.149 175.673 168.991  0.00  0.00    +0.000 C 
BRANCH  40  41
ATOM     41  C   UNL     1     178.312 176.910 169.289  0.00  0.00    +0.000 C 
BRANCH  41  42
ATOM     42  C   UNL     1     176.818 176.621 169.371  0.00  0.00    +0.000 C 
BRANCH  42  43
ATOM     43  C   UNL     1     175.946 177.741 168.817  0.00  0.00    +0.000 C 
BRANCH  43  44
ATOM     44  C   UNL     1     174.762 178.074 169.716  0.00  0.00    +0.000 C 
ATOM     45  C   UNL     1     174.969 177.675 171.172  0.00  0.00    +0.000 C 
ENDBRANCH  43  44
ENDBRANCH  42  43
ENDBRANCH  41  42
ENDBRANCH  40  41
ENDBRANCH  39  40
ENDBRANCH  38  39
ENDBRANCH  37  38
ENDBRANCH  36  37
ENDBRANCH  35  36
ENDBRANCH  34  35
ENDBRANCH  32  34
ENDBRANCH  31  32
ENDBRANCH   1  31
TORSDOF 37
ENDMDL
