REMARK VINA RESULT:      -5.5      1.592      2.944
REMARK  Name = 3PE
REMARK  37 active torsions:
REMARK  status: ('A' for Active; 'I' for Inactive)
REMARK    1  A    between atoms: P_1  and  O_3
REMARK    2  A    between atoms: P_1  and  O_5
REMARK    3  A    between atoms: O_3  and  C_9
REMARK    4  A    between atoms: O_5  and  C_7
REMARK    5  A    between atoms: C_7  and  C_8
REMARK    6  A    between atoms: C_9  and  C_10
REMARK    7  A    between atoms: C_10  and  C_11
REMARK    8  A    between atoms: C_10  and  O_31
REMARK    9  A    between atoms: C_11  and  O_12
REMARK   10  A    between atoms: O_12  and  C_14
REMARK   11  A    between atoms: C_14  and  C_15
REMARK   12  A    between atoms: C_15  and  C_16
REMARK   13  A    between atoms: C_16  and  C_17
REMARK   14  A    between atoms: C_17  and  C_18
REMARK   15  A    between atoms: C_18  and  C_19
REMARK   16  A    between atoms: C_19  and  C_20
REMARK   17  A    between atoms: C_20  and  C_21
REMARK   18  A    between atoms: C_21  and  C_22
REMARK   19  A    between atoms: C_22  and  C_23
REMARK   20  A    between atoms: C_23  and  C_24
REMARK   21  A    between atoms: C_24  and  C_25
REMARK   22  A    between atoms: C_25  and  C_26
REMARK   23  A    between atoms: C_26  and  C_27
REMARK   24  A    between atoms: C_27  and  C_28
REMARK   25  A    between atoms: C_28  and  C_29
REMARK   26  A    between atoms: O_31  and  C_33
REMARK   27  A    between atoms: C_33  and  C_34
REMARK   28  A    between atoms: C_34  and  C_35
REMARK   29  A    between atoms: C_35  and  C_36
REMARK   30  A    between atoms: C_36  and  C_37
REMARK   31  A    between atoms: C_37  and  C_38
REMARK   32  A    between atoms: C_38  and  C_39
REMARK   33  A    between atoms: C_39  and  C_40
REMARK   34  A    between atoms: C_40  and  C_41
REMARK   35  A    between atoms: C_41  and  C_42
REMARK   36  A    between atoms: C_42  and  C_43
REMARK   37  A    between atoms: C_43  and  C_44
REMARK                            x       y       z     vdW  Elec       q    Type
REMARK                         _______ _______ _______ _____ _____    ______ ____
ROOT
ATOM      1  C   UNL     1     181.275 179.882 172.482  0.00  0.00    +0.242 C 
ENDROOT
BRANCH   1   2
ATOM      2  C   UNL     1     181.908 181.259 172.663  0.00  0.00    +0.196 C 
BRANCH   2   3
ATOM      3  O   UNL     1     182.901 181.169 173.657  0.00  0.00    -0.310 OA
BRANCH   3   4
ATOM      4  P   UNL     1     183.028 182.352 174.791  0.00  0.00    +0.214 P 
ATOM      5  O   UNL     1     182.025 183.423 174.529  0.00  0.00    -0.517 OA
ATOM      6  O   UNL     1     183.158 181.634 176.090  0.00  0.00    -0.437 OA
BRANCH   4   7
ATOM      7  O   UNL     1     184.475 183.042 174.390  0.00  0.00    -0.312 OA
BRANCH   7   8
ATOM      8  C   UNL     1     184.890 184.208 175.060  0.00  0.00    +0.170 C 
BRANCH   8   9
ATOM      9  C   UNL     1     185.557 185.124 174.058  0.00  0.00    +0.142 C 
ATOM     10  N   UNL     1     187.036 185.060 174.153  0.00  0.00    -0.129 NA
ENDBRANCH   8   9
ENDBRANCH   7   8
ENDBRANCH   4   7
ENDBRANCH   3   4
ENDBRANCH   2   3
ENDBRANCH   1   2
BRANCH   1  11
ATOM     11  C   UNL     1     180.465 179.808 171.206  0.00  0.00    +0.254 C 
BRANCH  11  12
ATOM     12  O   UNL     1     181.371 180.035 170.131  0.00  0.00    -0.444 OA
BRANCH  12  13
ATOM     13  C   UNL     1     180.873 180.331 168.935  0.00  0.00    +0.317 C 
ATOM     14  O   UNL     1     181.532 180.811 168.050  0.00  0.00    -0.250 OA
BRANCH  13  15
ATOM     15  C   UNL     1     179.415 179.979 168.852  0.00  0.00    +0.110 C 
BRANCH  15  16
ATOM     16  C   UNL     1     179.067 179.031 167.717  0.00  0.00    +0.012 C 
BRANCH  16  17
ATOM     17  C   UNL     1     179.365 177.589 168.098  0.00  0.00    +0.001 C 
BRANCH  17  18
ATOM     18  C   UNL     1     178.325 176.982 169.029  0.00  0.00    +0.000 C 
BRANCH  18  19
ATOM     19  C   UNL     1     178.409 175.466 169.118  0.00  0.00    +0.000 C 
BRANCH  19  20
ATOM     20  C   UNL     1     177.053 174.803 169.317  0.00  0.00    +0.000 C 
BRANCH  20  21
ATOM     21  C   UNL     1     177.111 173.285 169.232  0.00  0.00    +0.000 C 
BRANCH  21  22
ATOM     22  C   UNL     1     176.022 172.585 170.033  0.00  0.00    +0.000 C 
BRANCH  22  23
ATOM     23  C   UNL     1     174.928 173.534 170.504  0.00  0.00    +0.000 C 
BRANCH  23  24
ATOM     24  C   UNL     1     173.525 172.970 170.330  0.00  0.00    +0.000 C 
BRANCH  24  25
ATOM     25  C   UNL     1     172.736 173.667 169.230  0.00  0.00    +0.000 C 
BRANCH  25  26
ATOM     26  C   UNL     1     173.521 174.741 168.493  0.00  0.00    +0.000 C 
BRANCH  26  27
ATOM     27  C   UNL     1     173.042 176.148 168.816  0.00  0.00    +0.000 C 
BRANCH  27  28
ATOM     28  C   UNL     1     173.859 176.825 169.908  0.00  0.00    +0.000 C 
BRANCH  28  29
ATOM     29  C   UNL     1     174.730 177.960 169.389  0.00  0.00    +0.000 C 
ATOM     30  C   UNL     1     174.715 178.088 167.870  0.00  0.00    +0.000 C 
ENDBRANCH  28  29
ENDBRANCH  27  28
ENDBRANCH  26  27
ENDBRANCH  25  26
ENDBRANCH  24  25
ENDBRANCH  23  24
ENDBRANCH  22  23
ENDBRANCH  21  22
ENDBRANCH  20  21
ENDBRANCH  19  20
ENDBRANCH  18  19
ENDBRANCH  17  18
ENDBRANCH  16  17
ENDBRANCH  15  16
ENDBRANCH  13  15
ENDBRANCH  12  13
ENDBRANCH  11  12
ENDBRANCH   1  11
BRANCH   1  31
ATOM     31  O   UNL     1     182.223 178.809 172.360  0.00  0.00    -0.446 OA
BRANCH  31  32
ATOM     32  C   UNL     1     181.892 177.538 172.456  0.00  0.00    +0.317 C 
ATOM     33  O   UNL     1     181.129 177.113 173.297  0.00  0.00    -0.250 OA
BRANCH  32  34
ATOM     34  C   UNL     1     182.562 176.704 171.399  0.00  0.00    +0.110 C 
BRANCH  34  35
ATOM     35  C   UNL     1     181.618 175.857 170.564  0.00  0.00    +0.012 C 
BRANCH  35  36
ATOM     36  C   UNL     1     182.349 174.690 169.915  0.00  0.00    +0.001 C 
BRANCH  36  37
ATOM     37  C   UNL     1     182.106 173.364 170.625  0.00  0.00    +0.000 C 
BRANCH  37  38
ATOM     38  C   UNL     1     180.632 173.124 170.922  0.00  0.00    +0.000 C 
BRANCH  38  39
ATOM     39  C   UNL     1     180.373 172.566 172.315  0.00  0.00    +0.000 C 
BRANCH  39  40
ATOM     40  C   UNL     1     179.670 173.549 173.242  0.00  0.00    +0.000 C 
BRANCH  40  41
ATOM     41  C   UNL     1     178.878 174.618 172.500  0.00  0.00    +0.000 C 
BRANCH  41  42
ATOM     42  C   UNL     1     177.914 175.385 173.396  0.00  0.00    +0.000 C 
BRANCH  42  43
ATOM     43  C   UNL     1     176.617 175.780 172.704  0.00  0.00    +0.000 C 
BRANCH  43  44
ATOM     44  C   UNL     1     176.387 177.286 172.684  0.00  0.00    +0.000 C 
ATOM     45  C   UNL     1     177.670 178.099 172.556  0.00  0.00    +0.000 C 
ENDBRANCH  43  44
ENDBRANCH  42  43
ENDBRANCH  41  42
ENDBRANCH  40  41
ENDBRANCH  39  40
ENDBRANCH  38  39
ENDBRANCH  37  38
ENDBRANCH  36  37
ENDBRANCH  35  36
ENDBRANCH  34  35
ENDBRANCH  32  34
ENDBRANCH  31  32
ENDBRANCH   1  31
TORSDOF 37
