REMARK VINA RESULT:      -5.3      1.563      3.353
REMARK  Name = 3PE
REMARK  37 active torsions:
REMARK  status: ('A' for Active; 'I' for Inactive)
REMARK    1  A    between atoms: P_1  and  O_3
REMARK    2  A    between atoms: P_1  and  O_5
REMARK    3  A    between atoms: O_3  and  C_9
REMARK    4  A    between atoms: O_5  and  C_7
REMARK    5  A    between atoms: C_7  and  C_8
REMARK    6  A    between atoms: C_9  and  C_10
REMARK    7  A    between atoms: C_10  and  C_11
REMARK    8  A    between atoms: C_10  and  O_31
REMARK    9  A    between atoms: C_11  and  O_12
REMARK   10  A    between atoms: O_12  and  C_14
REMARK   11  A    between atoms: C_14  and  C_15
REMARK   12  A    between atoms: C_15  and  C_16
REMARK   13  A    between atoms: C_16  and  C_17
REMARK   14  A    between atoms: C_17  and  C_18
REMARK   15  A    between atoms: C_18  and  C_19
REMARK   16  A    between atoms: C_19  and  C_20
REMARK   17  A    between atoms: C_20  and  C_21
REMARK   18  A    between atoms: C_21  and  C_22
REMARK   19  A    between atoms: C_22  and  C_23
REMARK   20  A    between atoms: C_23  and  C_24
REMARK   21  A    between atoms: C_24  and  C_25
REMARK   22  A    between atoms: C_25  and  C_26
REMARK   23  A    between atoms: C_26  and  C_27
REMARK   24  A    between atoms: C_27  and  C_28
REMARK   25  A    between atoms: C_28  and  C_29
REMARK   26  A    between atoms: O_31  and  C_33
REMARK   27  A    between atoms: C_33  and  C_34
REMARK   28  A    between atoms: C_34  and  C_35
REMARK   29  A    between atoms: C_35  and  C_36
REMARK   30  A    between atoms: C_36  and  C_37
REMARK   31  A    between atoms: C_37  and  C_38
REMARK   32  A    between atoms: C_38  and  C_39
REMARK   33  A    between atoms: C_39  and  C_40
REMARK   34  A    between atoms: C_40  and  C_41
REMARK   35  A    between atoms: C_41  and  C_42
REMARK   36  A    between atoms: C_42  and  C_43
REMARK   37  A    between atoms: C_43  and  C_44
REMARK                            x       y       z     vdW  Elec       q    Type
REMARK                         _______ _______ _______ _____ _____    ______ ____
ROOT
ATOM      1  C   UNL     1     179.766 180.161 171.210  0.00  0.00    +0.242 C 
ENDROOT
BRANCH   1   2
ATOM      2  C   UNL     1     180.019 181.626 171.552  0.00  0.00    +0.196 C 
BRANCH   2   3
ATOM      3  O   UNL     1     179.933 181.782 172.949  0.00  0.00    -0.310 OA
BRANCH   3   4
ATOM      4  P   UNL     1     180.617 183.093 173.665  0.00  0.00    +0.214 P 
ATOM      5  O   UNL     1     179.605 183.814 174.489  0.00  0.00    -0.517 OA
ATOM      6  O   UNL     1     181.927 182.611 174.189  0.00  0.00    -0.437 OA
BRANCH   4   7
ATOM      7  O   UNL     1     180.870 184.086 172.368  0.00  0.00    -0.312 OA
BRANCH   7   8
ATOM      8  C   UNL     1     182.036 184.872 172.320  0.00  0.00    +0.170 C 
BRANCH   8   9
ATOM      9  C   UNL     1     182.862 184.430 171.133  0.00  0.00    +0.142 C 
ATOM     10  N   UNL     1     184.117 183.761 171.555  0.00  0.00    -0.129 NA
ENDBRANCH   8   9
ENDBRANCH   7   8
ENDBRANCH   4   7
ENDBRANCH   3   4
ENDBRANCH   2   3
ENDBRANCH   1   2
BRANCH   1  11
ATOM     11  C   UNL     1     178.715 180.017 170.130  0.00  0.00    +0.254 C 
BRANCH  11  12
ATOM     12  O   UNL     1     179.221 180.678 168.975  0.00  0.00    -0.444 OA
BRANCH  12  13
ATOM     13  C   UNL     1     179.219 180.022 167.819  0.00  0.00    +0.317 C 
ATOM     14  O   UNL     1     179.731 180.452 166.819  0.00  0.00    -0.250 OA
BRANCH  13  15
ATOM     15  C   UNL     1     178.513 178.702 167.945  0.00  0.00    +0.110 C 
BRANCH  15  16
ATOM     16  C   UNL     1     179.427 177.494 167.835  0.00  0.00    +0.012 C 
BRANCH  16  17
ATOM     17  C   UNL     1     179.361 176.641 169.094  0.00  0.00    +0.001 C 
BRANCH  17  18
ATOM     18  C   UNL     1     180.598 175.782 169.308  0.00  0.00    +0.000 C 
BRANCH  18  19
ATOM     19  C   UNL     1     180.625 174.538 168.432  0.00  0.00    +0.000 C 
BRANCH  19  20
ATOM     20  C   UNL     1     179.403 173.649 168.620  0.00  0.00    +0.000 C 
BRANCH  20  21
ATOM     21  C   UNL     1     179.163 173.264 170.072  0.00  0.00    +0.000 C 
BRANCH  21  22
ATOM     22  C   UNL     1     177.743 173.533 170.549  0.00  0.00    +0.000 C 
BRANCH  22  23
ATOM     23  C   UNL     1     176.812 173.974 169.427  0.00  0.00    +0.000 C 
BRANCH  23  24
ATOM     24  C   UNL     1     176.032 172.824 168.803  0.00  0.00    +0.000 C 
BRANCH  24  25
ATOM     25  C   UNL     1     174.543 173.112 168.683  0.00  0.00    +0.000 C 
BRANCH  25  26
ATOM     26  C   UNL     1     174.051 174.216 169.607  0.00  0.00    +0.000 C 
BRANCH  26  27
ATOM     27  C   UNL     1     172.596 174.587 169.360  0.00  0.00    +0.000 C 
BRANCH  27  28
ATOM     28  C   UNL     1     172.105 175.717 170.254  0.00  0.00    +0.000 C 
BRANCH  28  29
ATOM     29  C   UNL     1     170.883 175.341 171.081  0.00  0.00    +0.000 C 
ATOM     30  C   UNL     1     170.198 176.540 171.726  0.00  0.00    +0.000 C 
ENDBRANCH  28  29
ENDBRANCH  27  28
ENDBRANCH  26  27
ENDBRANCH  25  26
ENDBRANCH  24  25
ENDBRANCH  23  24
ENDBRANCH  22  23
ENDBRANCH  21  22
ENDBRANCH  20  21
ENDBRANCH  19  20
ENDBRANCH  18  19
ENDBRANCH  17  18
ENDBRANCH  16  17
ENDBRANCH  15  16
ENDBRANCH  13  15
ENDBRANCH  12  13
ENDBRANCH  11  12
ENDBRANCH   1  11
BRANCH   1  31
ATOM     31  O   UNL     1     180.911 179.473 170.679  0.00  0.00    -0.446 OA
BRANCH  31  32
ATOM     32  C   UNL     1     181.535 178.507 171.319  0.00  0.00    +0.317 C 
ATOM     33  O   UNL     1     182.648 178.127 171.023  0.00  0.00    -0.250 OA
BRANCH  32  34
ATOM     34  C   UNL     1     180.709 177.959 172.449  0.00  0.00    +0.110 C 
BRANCH  34  35
ATOM     35  C   UNL     1     181.227 176.661 173.045  0.00  0.00    +0.012 C 
BRANCH  35  36
ATOM     36  C   UNL     1     180.196 175.548 172.925  0.00  0.00    +0.001 C 
BRANCH  36  37
ATOM     37  C   UNL     1     179.235 175.494 174.105  0.00  0.00    +0.000 C 
BRANCH  37  38
ATOM     38  C   UNL     1     177.777 175.469 173.668  0.00  0.00    +0.000 C 
BRANCH  38  39
ATOM     39  C   UNL     1     177.217 176.844 173.328  0.00  0.00    +0.000 C 
BRANCH  39  40
ATOM     40  C   UNL     1     177.057 177.082 171.832  0.00  0.00    +0.000 C 
BRANCH  40  41
ATOM     41  C   UNL     1     175.610 177.011 171.362  0.00  0.00    +0.000 C 
BRANCH  41  42
ATOM     42  C   UNL     1     175.021 178.374 171.019  0.00  0.00    +0.000 C 
BRANCH  42  43
ATOM     43  C   UNL     1     175.171 178.755 169.552  0.00  0.00    +0.000 C 
BRANCH  43  44
ATOM     44  C   UNL     1     175.200 177.547 168.623  0.00  0.00    +0.000 C 
ATOM     45  C   UNL     1     174.055 177.521 167.618  0.00  0.00    +0.000 C 
ENDBRANCH  43  44
ENDBRANCH  42  43
ENDBRANCH  41  42
ENDBRANCH  40  41
ENDBRANCH  39  40
ENDBRANCH  38  39
ENDBRANCH  37  38
ENDBRANCH  36  37
ENDBRANCH  35  36
ENDBRANCH  34  35
ENDBRANCH  32  34
ENDBRANCH  31  32
ENDBRANCH   1  31
TORSDOF 37
