REMARK VINA RESULT:      -5.4      1.552      2.327
REMARK  Name = 3PE
REMARK  37 active torsions:
REMARK  status: ('A' for Active; 'I' for Inactive)
REMARK    1  A    between atoms: P_1  and  O_3
REMARK    2  A    between atoms: P_1  and  O_5
REMARK    3  A    between atoms: O_3  and  C_9
REMARK    4  A    between atoms: O_5  and  C_7
REMARK    5  A    between atoms: C_7  and  C_8
REMARK    6  A    between atoms: C_9  and  C_10
REMARK    7  A    between atoms: C_10  and  C_11
REMARK    8  A    between atoms: C_10  and  O_31
REMARK    9  A    between atoms: C_11  and  O_12
REMARK   10  A    between atoms: O_12  and  C_14
REMARK   11  A    between atoms: C_14  and  C_15
REMARK   12  A    between atoms: C_15  and  C_16
REMARK   13  A    between atoms: C_16  and  C_17
REMARK   14  A    between atoms: C_17  and  C_18
REMARK   15  A    between atoms: C_18  and  C_19
REMARK   16  A    between atoms: C_19  and  C_20
REMARK   17  A    between atoms: C_20  and  C_21
REMARK   18  A    between atoms: C_21  and  C_22
REMARK   19  A    between atoms: C_22  and  C_23
REMARK   20  A    between atoms: C_23  and  C_24
REMARK   21  A    between atoms: C_24  and  C_25
REMARK   22  A    between atoms: C_25  and  C_26
REMARK   23  A    between atoms: C_26  and  C_27
REMARK   24  A    between atoms: C_27  and  C_28
REMARK   25  A    between atoms: C_28  and  C_29
REMARK   26  A    between atoms: O_31  and  C_33
REMARK   27  A    between atoms: C_33  and  C_34
REMARK   28  A    between atoms: C_34  and  C_35
REMARK   29  A    between atoms: C_35  and  C_36
REMARK   30  A    between atoms: C_36  and  C_37
REMARK   31  A    between atoms: C_37  and  C_38
REMARK   32  A    between atoms: C_38  and  C_39
REMARK   33  A    between atoms: C_39  and  C_40
REMARK   34  A    between atoms: C_40  and  C_41
REMARK   35  A    between atoms: C_41  and  C_42
REMARK   36  A    between atoms: C_42  and  C_43
REMARK   37  A    between atoms: C_43  and  C_44
REMARK                            x       y       z     vdW  Elec       q    Type
REMARK                         _______ _______ _______ _____ _____    ______ ____
ROOT
ATOM      1  C   UNL     1     179.335 181.092 170.100  0.00  0.00    +0.242 C 
ENDROOT
BRANCH   1   2
ATOM      2  C   UNL     1     179.700 182.519 170.499  0.00  0.00    +0.196 C 
BRANCH   2   3
ATOM      3  O   UNL     1     180.937 182.495 171.172  0.00  0.00    -0.310 OA
BRANCH   3   4
ATOM      4  P   UNL     1     181.094 183.263 172.616  0.00  0.00    +0.214 P 
ATOM      5  O   UNL     1     181.245 184.731 172.402  0.00  0.00    -0.517 OA
ATOM      6  O   UNL     1     180.058 182.653 173.496  0.00  0.00    -0.437 OA
BRANCH   4   7
ATOM      7  O   UNL     1     182.595 182.764 173.096  0.00  0.00    -0.312 OA
BRANCH   7   8
ATOM      8  C   UNL     1     183.690 183.634 172.943  0.00  0.00    +0.170 C 
BRANCH   8   9
ATOM      9  C   UNL     1     184.471 183.210 171.719  0.00  0.00    +0.142 C 
ATOM     10  N   UNL     1     185.710 184.008 171.553  0.00  0.00    -0.129 NA
ENDBRANCH   8   9
ENDBRANCH   7   8
ENDBRANCH   4   7
ENDBRANCH   3   4
ENDBRANCH   2   3
ENDBRANCH   1   2
BRANCH   1  11
ATOM     11  C   UNL     1     179.667 180.821 168.648  0.00  0.00    +0.254 C 
BRANCH  11  12
ATOM     12  O   UNL     1     180.048 179.451 168.564  0.00  0.00    -0.444 OA
BRANCH  12  13
ATOM     13  C   UNL     1     179.512 178.703 167.605  0.00  0.00    +0.317 C 
ATOM     14  O   UNL     1     179.034 179.166 166.603  0.00  0.00    -0.250 OA
BRANCH  13  15
ATOM     15  C   UNL     1     179.598 177.242 167.944  0.00  0.00    +0.110 C 
BRANCH  15  16
ATOM     16  C   UNL     1     180.001 176.960 169.381  0.00  0.00    +0.012 C 
BRANCH  16  17
ATOM     17  C   UNL     1     179.142 175.857 169.983  0.00  0.00    +0.001 C 
BRANCH  17  18
ATOM     18  C   UNL     1     178.814 174.742 169.000  0.00  0.00    +0.000 C 
BRANCH  18  19
ATOM     19  C   UNL     1     177.774 173.764 169.526  0.00  0.00    +0.000 C 
BRANCH  19  20
ATOM     20  C   UNL     1     176.422 174.413 169.784  0.00  0.00    +0.000 C 
BRANCH  20  21
ATOM     21  C   UNL     1     175.443 173.490 170.495  0.00  0.00    +0.000 C 
BRANCH  21  22
ATOM     22  C   UNL     1     174.342 174.226 171.245  0.00  0.00    +0.000 C 
BRANCH  22  23
ATOM     23  C   UNL     1     172.973 174.068 170.597  0.00  0.00    +0.000 C 
BRANCH  23  24
ATOM     24  C   UNL     1     172.399 175.378 170.073  0.00  0.00    +0.000 C 
BRANCH  24  25
ATOM     25  C   UNL     1     172.185 175.373 168.566  0.00  0.00    +0.000 C 
BRANCH  25  26
ATOM     26  C   UNL     1     173.151 176.267 167.802  0.00  0.00    +0.000 C 
BRANCH  26  27
ATOM     27  C   UNL     1     173.973 177.163 168.715  0.00  0.00    +0.000 C 
BRANCH  27  28
ATOM     28  C   UNL     1     174.966 178.037 167.962  0.00  0.00    +0.000 C 
BRANCH  28  29
ATOM     29  C   UNL     1     176.072 178.592 168.850  0.00  0.00    +0.000 C 
ATOM     30  C   UNL     1     175.784 179.995 169.368  0.00  0.00    +0.000 C 
ENDBRANCH  28  29
ENDBRANCH  27  28
ENDBRANCH  26  27
ENDBRANCH  25  26
ENDBRANCH  24  25
ENDBRANCH  23  24
ENDBRANCH  22  23
ENDBRANCH  21  22
ENDBRANCH  20  21
ENDBRANCH  19  20
ENDBRANCH  18  19
ENDBRANCH  17  18
ENDBRANCH  16  17
ENDBRANCH  15  16
ENDBRANCH  13  15
ENDBRANCH  12  13
ENDBRANCH  11  12
ENDBRANCH   1  11
BRANCH   1  31
ATOM     31  O   UNL     1     180.053 180.077 170.820  0.00  0.00    -0.446 OA
BRANCH  31  32
ATOM     32  C   UNL     1     179.541 179.411 171.834  0.00  0.00    +0.317 C 
ATOM     33  O   UNL     1     180.214 178.778 172.620  0.00  0.00    -0.250 OA
BRANCH  32  34
ATOM     34  C   UNL     1     178.045 179.548 171.896  0.00  0.00    +0.110 C 
BRANCH  34  35
ATOM     35  C   UNL     1     177.363 178.638 172.903  0.00  0.00    +0.012 C 
BRANCH  35  36
ATOM     36  C   UNL     1     176.812 177.387 172.234  0.00  0.00    +0.001 C 
BRANCH  36  37
ATOM     37  C   UNL     1     177.038 176.123 173.052  0.00  0.00    +0.000 C 
BRANCH  37  38
ATOM     38  C   UNL     1     178.299 176.197 173.902  0.00  0.00    +0.000 C 
BRANCH  38  39
ATOM     39  C   UNL     1     179.146 174.932 173.851  0.00  0.00    +0.000 C 
BRANCH  39  40
ATOM     40  C   UNL     1     178.440 173.754 173.194  0.00  0.00    +0.000 C 
BRANCH  40  41
ATOM     41  C   UNL     1     179.399 172.708 172.641  0.00  0.00    +0.000 C 
BRANCH  41  42
ATOM     42  C   UNL     1     180.692 173.305 172.098  0.00  0.00    +0.000 C 
BRANCH  42  43
ATOM     43  C   UNL     1     181.177 172.649 170.812  0.00  0.00    +0.000 C 
BRANCH  43  44
ATOM     44  C   UNL     1     182.415 173.322 170.230  0.00  0.00    +0.000 C 
ATOM     45  C   UNL     1     182.646 174.734 170.754  0.00  0.00    +0.000 C 
ENDBRANCH  43  44
ENDBRANCH  42  43
ENDBRANCH  41  42
ENDBRANCH  40  41
ENDBRANCH  39  40
ENDBRANCH  38  39
ENDBRANCH  37  38
ENDBRANCH  36  37
ENDBRANCH  35  36
ENDBRANCH  34  35
ENDBRANCH  32  34
ENDBRANCH  31  32
ENDBRANCH   1  31
TORSDOF 37
