MODEL 1
REMARK VINA RESULT:      -7.1      0.000      0.000
REMARK  Name = 5281769
REMARK                            x       y       z     vdW  Elec       q    Type
REMARK                         _______ _______ _______ _____ _____    ______ ____
ROOT
ATOM     16  C   LIG    1      173.711 176.296 169.875  0.00  0.00    +0.215 C 
ATOM     21  C   LIG    1      173.966 176.780 168.446  0.00  0.00    +0.094 C 
ATOM     22  C   LIG    1      175.261 177.587 168.319  0.00  0.00    +0.151 C 
ATOM     23  C   LIG    1      175.290 178.742 169.323  0.00  0.00    +0.184 C 
ATOM     24  C   LIG    1      175.086 178.257 170.761  0.00  0.00    +0.212 C 
ATOM     44  C   LIG    1      173.794 177.444 170.892  0.00  0.00    +0.107 C 
ENDROOT
BRANCH  16  17
ATOM     17  C   LIG    1      172.370 175.627 169.970  0.00  0.00    +0.349 C 
ATOM     18  O   LIG    1      171.932 175.073 170.968  0.00  0.00    -0.246 OA
BRANCH  17  19
ATOM     19  O   LIG    1      171.706 175.716 168.793  0.00  0.00    -0.478 OA
ATOM     20  H   LIG    1      171.839 174.919 168.236  0.00  0.00    +0.295 HD
ENDBRANCH  17  19
ENDBRANCH  16  17
BRANCH  23  40
ATOM     40  O   LIG    1      176.545 179.412 169.218  0.00  0.00    -0.386 OA
ATOM     41  H   LIG    1      176.413 180.196 168.659  0.00  0.00    +0.210 HD
ENDBRANCH  23  40
BRANCH  22  42
ATOM     42  O   LIG    1      175.336 178.129 167.001  0.00  0.00    -0.389 OA
ATOM     43  H   LIG    1      174.884 177.509 166.403  0.00  0.00    +0.210 HD
ENDBRANCH  22  42
BRANCH  16   1
ATOM      1  O   LIG    1      174.643 175.280 170.227  0.00  0.00    -0.443 OA
BRANCH   1   2
ATOM      2  C   LIG    1      174.896 174.354 169.261  0.00  0.00    +0.333 C 
ATOM     15  O   LIG    1      174.119 173.958 168.406  0.00  0.00    -0.246 OA
BRANCH   2   3
ATOM      3  C   LIG    1      176.295 173.898 169.429  0.00  0.00    +0.092 C 
ATOM      4  C   LIG    1      177.288 174.797 169.424  0.00  0.00    +0.015 C 
BRANCH   4   5
ATOM      5  C   LIG    1      178.715 174.470 169.591  0.00  0.00    -0.021 A 
ATOM      6  C   LIG    1      179.127 173.138 169.622  0.00  0.00    +0.012 A 
ATOM      7  C   LIG    1      180.478 172.828 169.780  0.00  0.00    +0.050 A 
ATOM      8  C   LIG    1      181.418 173.852 169.906  0.00  0.00    +0.158 A 
ATOM      9  C   LIG    1      181.006 175.184 169.874  0.00  0.00    +0.159 A 
ATOM     14  C   LIG    1      179.655 175.493 169.716  0.00  0.00    +0.057 A 
BRANCH   9  10
ATOM     10  O   LIG    1      181.915 176.191 169.995  0.00  0.00    -0.503 OA
ATOM     11  H   LIG    1      182.161 176.288 170.931  0.00  0.00    +0.292 HD
ENDBRANCH   9  10
BRANCH   8  12
ATOM     12  O   LIG    1      182.734 173.536 170.061  0.00  0.00    -0.503 OA
ATOM     13  H   LIG    1      182.845 173.036 170.887  0.00  0.00    +0.292 HD
ENDBRANCH   8  12
ENDBRANCH   4   5
ENDBRANCH   2   3
ENDBRANCH   1   2
ENDBRANCH  16   1
BRANCH  24  25
ATOM     25  O   LIG    1      176.201 177.455 171.149  0.00  0.00    -0.455 OA
BRANCH  25  26
ATOM     26  C   LIG    1      176.460 177.410 172.487  0.00  0.00    +0.332 C 
ATOM     39  O   LIG    1      176.545 178.363 173.245  0.00  0.00    -0.246 OA
BRANCH  26  27
ATOM     27  C   LIG    1      176.625 175.989 172.870  0.00  0.00    +0.092 C 
ATOM     28  C   LIG    1      177.852 175.450 172.894  0.00  0.00    +0.015 C 
BRANCH  28  29
ATOM     29  C   LIG    1      178.145 174.055 173.266  0.00  0.00    -0.021 A 
ATOM     30  C   LIG    1      179.466 173.608 173.307  0.00  0.00    +0.012 A 
ATOM     31  C   LIG    1      179.745 172.287 173.659  0.00  0.00    +0.050 A 
ATOM     32  C   LIG    1      178.702 171.413 173.969  0.00  0.00    +0.158 A 
ATOM     33  C   LIG    1      177.381 171.860 173.927  0.00  0.00    +0.159 A 
ATOM     38  C   LIG    1      177.103 173.180 173.576  0.00  0.00    +0.057 A 
BRANCH  33  34
ATOM     34  O   LIG    1      176.356 171.016 174.229  0.00  0.00    -0.503 OA
ATOM     35  H   LIG    1      176.664 170.097 174.140  0.00  0.00    +0.292 HD
ENDBRANCH  33  34
BRANCH  32  36
ATOM     36  O   LIG    1      178.987 170.125 174.310  0.00  0.00    -0.503 OA
ATOM     37  H   LIG    1      179.920 170.068 174.580  0.00  0.00    +0.292 HD
ENDBRANCH  32  36
ENDBRANCH  28  29
ENDBRANCH  26  27
ENDBRANCH  25  26
ENDBRANCH  24  25
TORSDOF 16
ENDMDL
MODEL 2
REMARK VINA RESULT:      -7.1     12.247     14.785
REMARK  Name = 5281769
REMARK                            x       y       z     vdW  Elec       q    Type
REMARK                         _______ _______ _______ _____ _____    ______ ____
ROOT
ATOM     16  C   LIG    1      185.415 187.909 166.765  0.00  0.00    +0.215 C 
ATOM     21  C   LIG    1      186.503 188.877 167.235  0.00  0.00    +0.094 C 
ATOM     22  C   LIG    1      186.325 189.301 168.696  0.00  0.00    +0.151 C 
ATOM     23  C   LIG    1      184.922 189.862 168.938  0.00  0.00    +0.184 C 
ATOM     24  C   LIG    1      183.829 188.876 168.517  0.00  0.00    +0.212 C 
ATOM     44  C   LIG    1      184.006 188.444 167.058  0.00  0.00    +0.107 C 
ENDROOT
BRANCH  16  17
ATOM     17  C   LIG    1      185.560 187.630 165.297  0.00  0.00    +0.349 C 
ATOM     18  O   LIG    1      184.809 186.924 164.640  0.00  0.00    -0.246 OA
BRANCH  17  19
ATOM     19  O   LIG    1      186.645 188.267 164.794  0.00  0.00    -0.478 OA
ATOM     20  H   LIG    1      186.585 189.240 164.910  0.00  0.00    +0.295 HD
ENDBRANCH  17  19
ENDBRANCH  16  17
BRANCH  23  40
ATOM     40  O   LIG    1      184.781 190.167 170.325  0.00  0.00    -0.386 OA
ATOM     41  H   LIG    1      185.029 191.099 170.446  0.00  0.00    +0.210 HD
ENDBRANCH  23  40
BRANCH  22  42
ATOM     42  O   LIG    1      187.279 190.318 168.998  0.00  0.00    -0.389 OA
ATOM     43  H   LIG    1      188.162 189.911 168.963  0.00  0.00    +0.210 HD
ENDBRANCH  22  42
BRANCH  16   1
ATOM      1  O   LIG    1      185.581 186.640 167.388  0.00  0.00    -0.443 OA
BRANCH   1   2
ATOM      2  C   LIG    1      186.842 186.127 167.351  0.00  0.00    +0.333 C 
ATOM     15  O   LIG    1      187.484 185.836 166.355  0.00  0.00    -0.246 OA
BRANCH   2   3
ATOM      3  C   LIG    1      187.309 185.977 168.749  0.00  0.00    +0.092 C 
ATOM      4  C   LIG    1      186.440 185.611 169.700  0.00  0.00    +0.015 C 
BRANCH   4   5
ATOM      5  C   LIG    1      186.784 185.419 171.120  0.00  0.00    -0.021 A 
ATOM      6  C   LIG    1      186.759 184.142 171.678  0.00  0.00    +0.012 A 
ATOM      7  C   LIG    1      187.086 183.961 173.023  0.00  0.00    +0.050 A 
ATOM      8  C   LIG    1      187.438 185.058 173.808  0.00  0.00    +0.158 A 
ATOM      9  C   LIG    1      187.463 186.336 173.251  0.00  0.00    +0.159 A 
ATOM     14  C   LIG    1      187.136 186.517 171.906  0.00  0.00    +0.057 A 
BRANCH   9  10
ATOM     10  O   LIG    1      187.806 187.415 174.008  0.00  0.00    -0.503 OA
ATOM     11  H   LIG    1      187.197 188.148 173.812  0.00  0.00    +0.292 HD
ENDBRANCH   9  10
BRANCH   8  12
ATOM     12  O   LIG    1      187.752 184.869 175.120  0.00  0.00    -0.503 OA
ATOM     13  H   LIG    1      187.084 184.290 175.526  0.00  0.00    +0.292 HD
ENDBRANCH   8  12
ENDBRANCH   4   5
ENDBRANCH   2   3
ENDBRANCH   1   2
ENDBRANCH  16   1
BRANCH  24  25
ATOM     25  O   LIG    1      183.877 187.730 169.367  0.00  0.00    -0.455 OA
BRANCH  25  26
ATOM     26  C   LIG    1      182.675 187.294 169.842  0.00  0.00    +0.332 C 
ATOM     39  O   LIG    1      181.572 187.714 169.528  0.00  0.00    -0.246 OA
BRANCH  26  27
ATOM     27  C   LIG    1      182.937 186.210 170.815  0.00  0.00    +0.092 C 
ATOM     28  C   LIG    1      183.248 186.521 172.081  0.00  0.00    +0.015 C 
BRANCH  28  29
ATOM     29  C   LIG    1      183.521 185.536 173.142  0.00  0.00    -0.021 A 
ATOM     30  C   LIG    1      183.202 184.193 172.945  0.00  0.00    +0.012 A 
ATOM     31  C   LIG    1      183.459 183.259 173.950  0.00  0.00    +0.050 A 
ATOM     32  C   LIG    1      184.037 183.670 175.152  0.00  0.00    +0.158 A 
ATOM     33  C   LIG    1      184.356 185.013 175.349  0.00  0.00    +0.159 A 
ATOM     38  C   LIG    1      184.098 185.947 174.345  0.00  0.00    +0.057 A 
BRANCH  33  34
ATOM     34  O   LIG    1      184.920 185.425 176.518  0.00  0.00    -0.503 OA
ATOM     35  H   LIG    1      185.725 185.935 176.320  0.00  0.00    +0.292 HD
ENDBRANCH  33  34
BRANCH  32  36
ATOM     36  O   LIG    1      184.282 182.749 176.126  0.00  0.00    -0.503 OA
ATOM     37  H   LIG    1      183.732 181.963 175.965  0.00  0.00    +0.292 HD
ENDBRANCH  32  36
ENDBRANCH  28  29
ENDBRANCH  26  27
ENDBRANCH  25  26
ENDBRANCH  24  25
TORSDOF 16
ENDMDL
MODEL 3
REMARK VINA RESULT:      -7.0      9.029     11.640
REMARK  Name = 5281769
REMARK                            x       y       z     vdW  Elec       q    Type
REMARK                         _______ _______ _______ _____ _____    ______ ____
ROOT
ATOM     16  C   LIG    1      181.773 180.228 171.095  0.00  0.00    +0.215 C 
ATOM     21  C   LIG    1      181.103 180.094 169.726  0.00  0.00    +0.094 C 
ATOM     22  C   LIG    1      180.164 181.262 169.413  0.00  0.00    +0.151 C 
ATOM     23  C   LIG    1      179.137 181.457 170.531  0.00  0.00    +0.184 C 
ATOM     24  C   LIG    1      179.804 181.642 171.897  0.00  0.00    +0.212 C 
ATOM     44  C   LIG    1      180.750 180.478 172.212  0.00  0.00    +0.107 C 
ENDROOT
BRANCH  16  17
ATOM     17  C   LIG    1      182.578 178.999 171.406  0.00  0.00    +0.349 C 
ATOM     18  O   LIG    1      182.523 177.948 170.784  0.00  0.00    -0.246 OA
BRANCH  17  19
ATOM     19  O   LIG    1      183.377 179.210 172.480  0.00  0.00    -0.478 OA
ATOM     20  H   LIG    1      184.286 178.870 172.333  0.00  0.00    +0.295 HD
ENDBRANCH  17  19
ENDBRANCH  16  17
BRANCH  23  40
ATOM     40  O   LIG    1      178.339 182.601 170.230  0.00  0.00    -0.386 OA
ATOM     41  H   LIG    1      177.410 182.317 170.225  0.00  0.00    +0.210 HD
ENDBRANCH  23  40
BRANCH  22  42
ATOM     42  O   LIG    1      179.466 180.978 168.200  0.00  0.00    -0.389 OA
ATOM     43  H   LIG    1      180.129 180.730 167.533  0.00  0.00    +0.210 HD
ENDBRANCH  22  42
BRANCH  16   1
ATOM      1  O   LIG    1      182.727 181.283 171.078  0.00  0.00    -0.443 OA
BRANCH   1   2
ATOM      2  C   LIG    1      183.432 181.421 169.920  0.00  0.00    +0.333 C 
ATOM     15  O   LIG    1      183.676 180.546 169.104  0.00  0.00    -0.246 OA
BRANCH   2   3
ATOM      3  C   LIG    1      183.861 182.835 169.818  0.00  0.00    +0.092 C 
ATOM      4  C   LIG    1      184.807 183.299 170.645  0.00  0.00    +0.015 C 
BRANCH   4   5
ATOM      5  C   LIG    1      185.324 184.680 170.635  0.00  0.00    -0.021 A 
ATOM      6  C   LIG    1      184.439 185.756 170.581  0.00  0.00    +0.012 A 
ATOM      7  C   LIG    1      184.929 187.062 170.572  0.00  0.00    +0.050 A 
ATOM      8  C   LIG    1      186.304 187.291 170.617  0.00  0.00    +0.158 A 
ATOM      9  C   LIG    1      187.189 186.215 170.671  0.00  0.00    +0.159 A 
ATOM     14  C   LIG    1      186.700 184.909 170.680  0.00  0.00    +0.057 A 
BRANCH   9  10
ATOM     10  O   LIG    1      188.534 186.428 170.716  0.00  0.00    -0.503 OA
ATOM     11  H   LIG    1      188.856 186.241 171.615  0.00  0.00    +0.292 HD
ENDBRANCH   9  10
BRANCH   8  12
ATOM     12  O   LIG    1      186.770 188.572 170.605  0.00  0.00    -0.503 OA
ATOM     13  H   LIG    1      186.797 188.891 169.687  0.00  0.00    +0.292 HD
ENDBRANCH   8  12
ENDBRANCH   4   5
ENDBRANCH   2   3
ENDBRANCH   1   2
ENDBRANCH  16   1
BRANCH  24  25
ATOM     25  O   LIG    1      180.533 182.869 171.901  0.00  0.00    -0.455 OA
BRANCH  25  26
ATOM     26  C   LIG    1      180.736 183.433 173.127  0.00  0.00    +0.332 C 
ATOM     39  O   LIG    1      179.972 183.401 174.078  0.00  0.00    -0.246 OA
BRANCH  26  27
ATOM     27  C   LIG    1      182.058 184.100 173.106  0.00  0.00    +0.092 C 
ATOM     28  C   LIG    1      182.962 183.801 174.049  0.00  0.00    +0.015 C 
BRANCH  28  29
ATOM     29  C   LIG    1      184.312 184.387 174.130  0.00  0.00    -0.021 A 
ATOM     30  C   LIG    1      184.471 185.773 174.131  0.00  0.00    +0.012 A 
ATOM     31  C   LIG    1      185.748 186.329 174.207  0.00  0.00    +0.050 A 
ATOM     32  C   LIG    1      186.867 185.498 174.282  0.00  0.00    +0.158 A 
ATOM     33  C   LIG    1      186.708 184.112 174.281  0.00  0.00    +0.159 A 
ATOM     38  C   LIG    1      185.431 183.556 174.205  0.00  0.00    +0.057 A 
BRANCH  33  34
ATOM     34  O   LIG    1      187.792 183.292 174.354  0.00  0.00    -0.503 OA
ATOM     35  H   LIG    1      188.224 183.257 173.483  0.00  0.00    +0.292 HD
ENDBRANCH  33  34
BRANCH  32  36
ATOM     36  O   LIG    1      188.109 186.053 174.355  0.00  0.00    -0.503 OA
ATOM     37  H   LIG    1      188.238 186.641 173.592  0.00  0.00    +0.292 HD
ENDBRANCH  32  36
ENDBRANCH  28  29
ENDBRANCH  26  27
ENDBRANCH  25  26
ENDBRANCH  24  25
TORSDOF 16
ENDMDL
MODEL 4
REMARK VINA RESULT:      -7.0     11.698     15.674
REMARK  Name = 5281769
REMARK                            x       y       z     vdW  Elec       q    Type
REMARK                         _______ _______ _______ _____ _____    ______ ____
ROOT
ATOM     16  C   LIG    1      185.312 185.190 171.542  0.00  0.00    +0.215 C 
ATOM     21  C   LIG    1      186.175 184.958 172.783  0.00  0.00    +0.094 C 
ATOM     22  C   LIG    1      187.029 186.177 173.145  0.00  0.00    +0.151 C 
ATOM     23  C   LIG    1      187.866 186.636 171.949  0.00  0.00    +0.184 C 
ATOM     24  C   LIG    1      187.001 186.918 170.717  0.00  0.00    +0.212 C 
ATOM     44  C   LIG    1      186.141 185.703 170.355  0.00  0.00    +0.107 C 
ENDROOT
BRANCH  16  17
ATOM     17  C   LIG    1      184.598 183.927 171.157  0.00  0.00    +0.349 C 
ATOM     18  O   LIG    1      183.959 183.769 170.127  0.00  0.00    -0.246 OA
BRANCH  17  19
ATOM     19  O   LIG    1      184.756 182.978 172.111  0.00  0.00    -0.478 OA
ATOM     20  H   LIG    1      185.692 182.694 172.194  0.00  0.00    +0.295 HD
ENDBRANCH  17  19
ENDBRANCH  16  17
BRANCH  23  40
ATOM     40  O   LIG    1      188.581 187.817 172.312  0.00  0.00    -0.386 OA
ATOM     41  H   LIG    1      189.460 187.542 172.624  0.00  0.00    +0.210 HD
ENDBRANCH  23  40
BRANCH  22  42
ATOM     42  O   LIG    1      187.913 185.820 174.207  0.00  0.00    -0.389 OA
ATOM     43  H   LIG    1      187.365 185.538 174.961  0.00  0.00    +0.210 HD
ENDBRANCH  22  42
BRANCH  16   1
ATOM      1  O   LIG    1      184.270 186.115 171.830  0.00  0.00    -0.443 OA
BRANCH   1   2
ATOM      2  C   LIG    1      183.314 185.673 172.694  0.00  0.00    +0.333 C 
ATOM     15  O   LIG    1      183.496 185.097 173.754  0.00  0.00    -0.246 OA
BRANCH   2   3
ATOM      3  C   LIG    1      181.993 186.015 172.118  0.00  0.00    +0.092 C 
ATOM      4  C   LIG    1      181.920 186.487 170.866  0.00  0.00    +0.015 C 
BRANCH   4   5
ATOM      5  C   LIG    1      180.667 186.851 170.180  0.00  0.00    -0.021 A 
ATOM      6  C   LIG    1      179.690 187.583 170.853  0.00  0.00    +0.012 A 
ATOM      7  C   LIG    1      178.505 187.929 170.204  0.00  0.00    +0.050 A 
ATOM      8  C   LIG    1      178.298 187.542 168.879  0.00  0.00    +0.158 A 
ATOM      9  C   LIG    1      179.275 186.810 168.206  0.00  0.00    +0.159 A 
ATOM     14  C   LIG    1      180.460 186.465 168.855  0.00  0.00    +0.057 A 
BRANCH   9  10
ATOM     10  O   LIG    1      179.083 186.428 166.912  0.00  0.00    -0.503 OA
ATOM     11  H   LIG    1      178.142 186.219 166.778  0.00  0.00    +0.292 HD
ENDBRANCH   9  10
BRANCH   8  12
ATOM     12  O   LIG    1      177.135 187.884 168.257  0.00  0.00    -0.503 OA
ATOM     13  H   LIG    1      176.671 187.074 167.985  0.00  0.00    +0.292 HD
ENDBRANCH   8  12
ENDBRANCH   4   5
ENDBRANCH   2   3
ENDBRANCH   1   2
ENDBRANCH  16   1
BRANCH  24  25
ATOM     25  O   LIG    1      186.161 188.042 170.981  0.00  0.00    -0.455 OA
BRANCH  25  26
ATOM     26  C   LIG    1      186.086 188.972 169.986  0.00  0.00    +0.332 C 
ATOM     39  O   LIG    1      187.023 189.467 169.381  0.00  0.00    -0.246 OA
BRANCH  26  27
ATOM     27  C   LIG    1      184.656 189.283 169.763  0.00  0.00    +0.092 C 
ATOM     28  C   LIG    1      184.185 189.361 168.511  0.00  0.00    +0.015 C 
BRANCH  28  29
ATOM     29  C   LIG    1      182.784 189.653 168.160  0.00  0.00    -0.021 A 
ATOM     30  C   LIG    1      182.000 190.431 169.011  0.00  0.00    +0.012 A 
ATOM     31  C   LIG    1      180.673 190.708 168.680  0.00  0.00    +0.050 A 
ATOM     32  C   LIG    1      180.131 190.205 167.496  0.00  0.00    +0.158 A 
ATOM     33  C   LIG    1      180.915 189.427 166.645  0.00  0.00    +0.159 A 
ATOM     38  C   LIG    1      182.242 189.151 166.976  0.00  0.00    +0.057 A 
BRANCH  33  34
ATOM     34  O   LIG    1      180.397 188.932 165.487  0.00  0.00    -0.503 OA
ATOM     35  H   LIG    1      180.214 189.670 164.880  0.00  0.00    +0.292 HD
ENDBRANCH  33  34
BRANCH  32  36
ATOM     36  O   LIG    1      178.834 190.481 167.184  0.00  0.00    -0.503 OA
ATOM     37  H   LIG    1      178.367 190.763 167.990  0.00  0.00    +0.292 HD
ENDBRANCH  32  36
ENDBRANCH  28  29
ENDBRANCH  26  27
ENDBRANCH  25  26
ENDBRANCH  24  25
TORSDOF 16
ENDMDL
MODEL 5
REMARK VINA RESULT:      -7.0     10.431     12.848
REMARK  Name = 5281769
REMARK                            x       y       z     vdW  Elec       q    Type
REMARK                         _______ _______ _______ _____ _____    ______ ____
ROOT
ATOM     16  C   LIG    1      179.948 186.766 169.235  0.00  0.00    +0.215 C 
ATOM     21  C   LIG    1      179.375 187.812 170.193  0.00  0.00    +0.094 C 
ATOM     22  C   LIG    1      179.459 187.379 171.659  0.00  0.00    +0.151 C 
ATOM     23  C   LIG    1      178.813 186.006 171.864  0.00  0.00    +0.184 C 
ATOM     24  C   LIG    1      179.418 184.944 170.944  0.00  0.00    +0.212 C 
ATOM     44  C   LIG    1      179.342 185.375 169.476  0.00  0.00    +0.107 C 
ENDROOT
BRANCH  16  17
ATOM     17  C   LIG    1      179.723 187.181 167.810  0.00  0.00    +0.349 C 
ATOM     18  O   LIG    1      180.138 186.579 166.831  0.00  0.00    -0.246 OA
BRANCH  17  19
ATOM     19  O   LIG    1      178.996 188.323 167.753  0.00  0.00    -0.478 OA
ATOM     20  H   LIG    1      178.687 188.515 166.842  0.00  0.00    +0.295 HD
ENDBRANCH  17  19
ENDBRANCH  16  17
BRANCH  23  40
ATOM     40  O   LIG    1      178.985 185.614 173.226  0.00  0.00    -0.386 OA
ATOM     41  H   LIG    1      179.013 186.424 173.763  0.00  0.00    +0.210 HD
ENDBRANCH  23  40
BRANCH  22  42
ATOM     42  O   LIG    1      178.763 188.333 172.461  0.00  0.00    -0.389 OA
ATOM     43  H   LIG    1      178.541 189.088 171.889  0.00  0.00    +0.210 HD
ENDBRANCH  22  42
BRANCH  16   1
ATOM      1  O   LIG    1      181.363 186.696 169.367  0.00  0.00    -0.443 OA
BRANCH   1   2
ATOM      2  C   LIG    1      182.009 187.895 169.412  0.00  0.00    +0.333 C 
ATOM     15  O   LIG    1      181.559 188.981 169.085  0.00  0.00    -0.246 OA
BRANCH   2   3
ATOM      3  C   LIG    1      183.375 187.653 169.932  0.00  0.00    +0.092 C 
ATOM      4  C   LIG    1      183.595 186.616 170.753  0.00  0.00    +0.015 C 
BRANCH   4   5
ATOM      5  C   LIG    1      184.907 186.266 171.327  0.00  0.00    -0.021 A 
ATOM      6  C   LIG    1      185.630 185.192 170.810  0.00  0.00    +0.012 A 
ATOM      7  C   LIG    1      186.872 184.861 171.353  0.00  0.00    +0.050 A 
ATOM      8  C   LIG    1      187.390 185.606 172.413  0.00  0.00    +0.158 A 
ATOM      9  C   LIG    1      186.667 186.681 172.929  0.00  0.00    +0.159 A 
ATOM     14  C   LIG    1      185.426 187.012 172.386  0.00  0.00    +0.057 A 
BRANCH   9  10
ATOM     10  O   LIG    1      187.165 187.416 173.962  0.00  0.00    -0.503 OA
ATOM     11  H   LIG    1      187.569 186.817 174.614  0.00  0.00    +0.292 HD
ENDBRANCH   9  10
BRANCH   8  12
ATOM     12  O   LIG    1      188.603 185.271 172.935  0.00  0.00    -0.503 OA
ATOM     13  H   LIG    1      188.996 186.057 173.352  0.00  0.00    +0.292 HD
ENDBRANCH   8  12
ENDBRANCH   4   5
ENDBRANCH   2   3
ENDBRANCH   1   2
ENDBRANCH  16   1
BRANCH  24  25
ATOM     25  O   LIG    1      180.780 184.724 171.311  0.00  0.00    -0.455 OA
BRANCH  25  26
ATOM     26  C   LIG    1      181.009 183.648 172.117  0.00  0.00    +0.332 C 
ATOM     39  O   LIG    1      180.207 182.777 172.416  0.00  0.00    -0.246 OA
BRANCH  26  27
ATOM     27  C   LIG    1      182.415 183.716 172.576  0.00  0.00    +0.092 C 
ATOM     28  C   LIG    1      182.678 184.015 173.856  0.00  0.00    +0.015 C 
BRANCH  28  29
ATOM     29  C   LIG    1      184.030 184.103 174.434  0.00  0.00    -0.021 A 
ATOM     30  C   LIG    1      184.980 183.126 174.138  0.00  0.00    +0.012 A 
ATOM     31  C   LIG    1      186.261 183.209 174.686  0.00  0.00    +0.050 A 
ATOM     32  C   LIG    1      186.591 184.271 175.529  0.00  0.00    +0.158 A 
ATOM     33  C   LIG    1      185.641 185.248 175.825  0.00  0.00    +0.159 A 
ATOM     38  C   LIG    1      184.361 185.165 175.278  0.00  0.00    +0.057 A 
BRANCH  33  34
ATOM     34  O   LIG    1      185.953 186.289 176.646  0.00  0.00    -0.503 OA
ATOM     35  H   LIG    1      186.807 186.665 176.373  0.00  0.00    +0.292 HD
ENDBRANCH  33  34
BRANCH  32  36
ATOM     36  O   LIG    1      187.845 184.340 176.058  0.00  0.00    -0.503 OA
ATOM     37  H   LIG    1      188.222 185.216 175.866  0.00  0.00    +0.292 HD
ENDBRANCH  32  36
ENDBRANCH  28  29
ENDBRANCH  26  27
ENDBRANCH  25  26
ENDBRANCH  24  25
TORSDOF 16
ENDMDL
MODEL 6
REMARK VINA RESULT:      -6.9      2.215      3.609
REMARK  Name = 5281769
REMARK                            x       y       z     vdW  Elec       q    Type
REMARK                         _______ _______ _______ _____ _____    ______ ____
ROOT
ATOM     16  C   LIG    1      173.166 173.488 170.807  0.00  0.00    +0.215 C 
ATOM     21  C   LIG    1      172.916 172.948 169.398  0.00  0.00    +0.094 C 
ATOM     22  C   LIG    1      173.344 173.931 168.305  0.00  0.00    +0.151 C 
ATOM     23  C   LIG    1      172.693 175.301 168.512  0.00  0.00    +0.184 C 
ATOM     24  C   LIG    1      172.982 175.869 169.903  0.00  0.00    +0.212 C 
ATOM     44  C   LIG    1      172.561 174.887 171.001  0.00  0.00    +0.107 C 
ENDROOT
BRANCH  16  17
ATOM     17  C   LIG    1      172.610 172.546 171.836  0.00  0.00    +0.349 C 
ATOM     18  O   LIG    1      172.730 172.678 173.045  0.00  0.00    -0.246 OA
BRANCH  17  19
ATOM     19  O   LIG    1      171.956 171.519 171.241  0.00  0.00    -0.478 OA
ATOM     20  H   LIG    1      172.161 171.461 170.283  0.00  0.00    +0.295 HD
ENDBRANCH  17  19
ENDBRANCH  16  17
BRANCH  23  40
ATOM     40  O   LIG    1      173.183 176.199 167.517  0.00  0.00    -0.386 OA
ATOM     41  H   LIG    1      172.431 176.454 166.957  0.00  0.00    +0.210 HD
ENDBRANCH  23  40
BRANCH  22  42
ATOM     42  O   LIG    1      172.930 173.418 167.039  0.00  0.00    -0.389 OA
ATOM     43  H   LIG    1      173.166 174.079 166.365  0.00  0.00    +0.210 HD
ENDBRANCH  22  42
BRANCH  16   1
ATOM      1  O   LIG    1      174.561 173.532 171.080  0.00  0.00    -0.443 OA
BRANCH   1   2
ATOM      2  C   LIG    1      175.269 172.431 170.704  0.00  0.00    +0.333 C 
ATOM     15  O   LIG    1      174.913 171.267 170.793  0.00  0.00    -0.246 OA
BRANCH   2   3
ATOM      3  C   LIG    1      176.567 172.892 170.160  0.00  0.00    +0.092 C 
ATOM      4  C   LIG    1      177.616 173.031 170.981  0.00  0.00    +0.015 C 
BRANCH   4   5
ATOM      5  C   LIG    1      178.958 173.471 170.560  0.00  0.00    -0.021 A 
ATOM      6  C   LIG    1      180.074 173.145 171.330  0.00  0.00    +0.012 A 
ATOM      7  C   LIG    1      181.344 173.562 170.930  0.00  0.00    +0.050 A 
ATOM      8  C   LIG    1      181.497 174.305 169.759  0.00  0.00    +0.158 A 
ATOM      9  C   LIG    1      180.382 174.631 168.989  0.00  0.00    +0.159 A 
ATOM     14  C   LIG    1      179.112 174.214 169.389  0.00  0.00    +0.057 A 
BRANCH   9  10
ATOM     10  O   LIG    1      180.520 175.355 167.843  0.00  0.00    -0.503 OA
ATOM     11  H   LIG    1      179.996 174.938 167.138  0.00  0.00    +0.292 HD
ENDBRANCH   9  10
BRANCH   8  12
ATOM     12  O   LIG    1      182.743 174.707 169.381  0.00  0.00    -0.503 OA
ATOM     13  H   LIG    1      183.215 175.050 170.159  0.00  0.00    +0.292 HD
ENDBRANCH   8  12
ENDBRANCH   4   5
ENDBRANCH   2   3
ENDBRANCH   1   2
ENDBRANCH  16   1
BRANCH  24  25
ATOM     25  O   LIG    1      174.378 176.148 170.016  0.00  0.00    -0.455 OA
BRANCH  25  26
ATOM     26  C   LIG    1      174.701 177.291 170.686  0.00  0.00    +0.332 C 
ATOM     39  O   LIG    1      173.953 178.222 170.941  0.00  0.00    -0.246 OA
BRANCH  26  27
ATOM     27  C   LIG    1      176.133 177.211 171.056  0.00  0.00    +0.092 C 
ATOM     28  C   LIG    1      176.493 176.538 172.157  0.00  0.00    +0.015 C 
BRANCH  28  29
ATOM     29  C   LIG    1      177.882 176.378 172.623  0.00  0.00    -0.021 A 
ATOM     30  C   LIG    1      178.147 175.672 173.796  0.00  0.00    +0.012 A 
ATOM     31  C   LIG    1      179.461 175.521 174.238  0.00  0.00    +0.050 A 
ATOM     32  C   LIG    1      180.511 176.077 173.506  0.00  0.00    +0.158 A 
ATOM     33  C   LIG    1      180.246 176.784 172.333  0.00  0.00    +0.159 A 
ATOM     38  C   LIG    1      178.932 176.935 171.891  0.00  0.00    +0.057 A 
BRANCH  33  34
ATOM     34  O   LIG    1      181.263 177.330 171.611  0.00  0.00    -0.503 OA
ATOM     35  H   LIG    1      181.682 176.634 171.076  0.00  0.00    +0.292 HD
ENDBRANCH  33  34
BRANCH  32  36
ATOM     36  O   LIG    1      181.790 175.923 173.949  0.00  0.00    -0.503 OA
ATOM     37  H   LIG    1      182.306 175.454 173.271  0.00  0.00    +0.292 HD
ENDBRANCH  32  36
ENDBRANCH  28  29
ENDBRANCH  26  27
ENDBRANCH  25  26
ENDBRANCH  24  25
TORSDOF 16
ENDMDL
MODEL 7
REMARK VINA RESULT:      -6.9     11.569     14.418
REMARK  Name = 5281769
REMARK                            x       y       z     vdW  Elec       q    Type
REMARK                         _______ _______ _______ _____ _____    ______ ____
ROOT
ATOM     16  C   LIG    1      186.810 186.167 167.572  0.00  0.00    +0.215 C 
ATOM     21  C   LIG    1      187.297 187.598 167.806  0.00  0.00    +0.094 C 
ATOM     22  C   LIG    1      186.369 188.394 168.729  0.00  0.00    +0.151 C 
ATOM     23  C   LIG    1      184.926 188.361 168.219  0.00  0.00    +0.184 C 
ATOM     24  C   LIG    1      184.417 186.930 168.031  0.00  0.00    +0.212 C 
ATOM     44  C   LIG    1      185.345 186.128 167.114  0.00  0.00    +0.107 C 
ENDROOT
BRANCH  16  17
ATOM     17  C   LIG    1      187.679 185.477 166.562  0.00  0.00    +0.349 C 
ATOM     18  O   LIG    1      187.552 184.315 166.204  0.00  0.00    -0.246 OA
BRANCH  17  19
ATOM     19  O   LIG    1      188.634 186.318 166.097  0.00  0.00    -0.478 OA
ATOM     20  H   LIG    1      189.502 185.869 165.999  0.00  0.00    +0.295 HD
ENDBRANCH  17  19
ENDBRANCH  16  17
BRANCH  23  40
ATOM     40  O   LIG    1      184.092 189.047 169.152  0.00  0.00    -0.386 OA
ATOM     41  H   LIG    1      183.197 188.676 169.072  0.00  0.00    +0.210 HD
ENDBRANCH  23  40
BRANCH  22  42
ATOM     42  O   LIG    1      186.808 189.752 168.762  0.00  0.00    -0.389 OA
ATOM     43  H   LIG    1      187.661 189.772 169.229  0.00  0.00    +0.210 HD
ENDBRANCH  22  42
BRANCH  16   1
ATOM      1  O   LIG    1      186.958 185.394 168.758  0.00  0.00    -0.443 OA
BRANCH   1   2
ATOM      2  C   LIG    1      188.079 185.648 169.489  0.00  0.00    +0.333 C 
ATOM     15  O   LIG    1      189.155 186.039 169.066  0.00  0.00    -0.246 OA
BRANCH   2   3
ATOM      3  C   LIG    1      187.766 185.362 170.908  0.00  0.00    +0.092 C 
ATOM      4  C   LIG    1      186.987 186.208 171.596  0.00  0.00    +0.015 C 
BRANCH   4   5
ATOM      5  C   LIG    1      186.597 186.028 173.006  0.00  0.00    -0.021 A 
ATOM      6  C   LIG    1      185.416 186.598 173.481  0.00  0.00    +0.012 A 
ATOM      7  C   LIG    1      185.047 186.428 174.816  0.00  0.00    +0.050 A 
ATOM      8  C   LIG    1      185.860 185.688 175.675  0.00  0.00    +0.158 A 
ATOM      9  C   LIG    1      187.041 185.118 175.200  0.00  0.00    +0.159 A 
ATOM     14  C   LIG    1      187.410 185.288 173.865  0.00  0.00    +0.057 A 
BRANCH   9  10
ATOM     10  O   LIG    1      187.842 184.393 176.030  0.00  0.00    -0.503 OA
ATOM     11  H   LIG    1      187.961 183.502 175.658  0.00  0.00    +0.292 HD
ENDBRANCH   9  10
BRANCH   8  12
ATOM     12  O   LIG    1      185.490 185.531 176.977  0.00  0.00    -0.503 OA
ATOM     13  H   LIG    1      184.937 184.735 177.056  0.00  0.00    +0.292 HD
ENDBRANCH   8  12
ENDBRANCH   4   5
ENDBRANCH   2   3
ENDBRANCH   1   2
ENDBRANCH  16   1
BRANCH  24  25
ATOM     25  O   LIG    1      184.330 186.291 169.305  0.00  0.00    -0.455 OA
BRANCH  25  26
ATOM     26  C   LIG    1      183.136 185.696 169.590  0.00  0.00    +0.332 C 
ATOM     39  O   LIG    1      182.209 185.518 168.816  0.00  0.00    -0.246 OA
BRANCH  26  27
ATOM     27  C   LIG    1      183.155 185.298 171.016  0.00  0.00    +0.092 C 
ATOM     28  C   LIG    1      183.436 184.029 171.343  0.00  0.00    +0.015 C 
BRANCH  28  29
ATOM     29  C   LIG    1      183.495 183.514 172.722  0.00  0.00    -0.021 A 
ATOM     30  C   LIG    1      182.362 183.563 173.534  0.00  0.00    +0.012 A 
ATOM     31  C   LIG    1      182.418 183.075 174.840  0.00  0.00    +0.050 A 
ATOM     32  C   LIG    1      183.608 182.539 175.334  0.00  0.00    +0.158 A 
ATOM     33  C   LIG    1      184.741 182.490 174.522  0.00  0.00    +0.159 A 
ATOM     38  C   LIG    1      184.685 182.977 173.216  0.00  0.00    +0.057 A 
BRANCH  33  34
ATOM     34  O   LIG    1      185.907 181.968 174.993  0.00  0.00    -0.503 OA
ATOM     35  H   LIG    1      185.912 181.008 174.836  0.00  0.00    +0.292 HD
ENDBRANCH  33  34
BRANCH  32  36
ATOM     36  O   LIG    1      183.650 182.067 176.611  0.00  0.00    -0.503 OA
ATOM     37  H   LIG    1      183.318 182.755 177.214  0.00  0.00    +0.292 HD
ENDBRANCH  32  36
ENDBRANCH  28  29
ENDBRANCH  26  27
ENDBRANCH  25  26
ENDBRANCH  24  25
TORSDOF 16
ENDMDL
MODEL 8
REMARK VINA RESULT:      -6.8     11.524     14.130
REMARK  Name = 5281769
REMARK                            x       y       z     vdW  Elec       q    Type
REMARK                         _______ _______ _______ _____ _____    ______ ____
ROOT
ATOM     16  C   LIG    1      184.675 188.074 167.776  0.00  0.00    +0.215 C 
ATOM     21  C   LIG    1      184.245 189.510 168.082  0.00  0.00    +0.094 C 
ATOM     22  C   LIG    1      183.024 189.576 169.003  0.00  0.00    +0.151 C 
ATOM     23  C   LIG    1      181.868 188.744 168.444  0.00  0.00    +0.184 C 
ATOM     24  C   LIG    1      182.279 187.292 168.184  0.00  0.00    +0.212 C 
ATOM     44  C   LIG    1      183.504 187.221 167.267  0.00  0.00    +0.107 C 
ENDROOT
BRANCH  16  17
ATOM     17  C   LIG    1      185.789 188.064 166.769  0.00  0.00    +0.349 C 
ATOM     18  O   LIG    1      186.359 187.061 166.364  0.00  0.00    -0.246 OA
BRANCH  17  19
ATOM     19  O   LIG    1      186.084 189.324 166.369  0.00  0.00    -0.478 OA
ATOM     20  H   LIG    1      186.629 189.801 167.031  0.00  0.00    +0.295 HD
ENDBRANCH  17  19
ENDBRANCH  16  17
BRANCH  23  40
ATOM     40  O   LIG    1      180.785 188.775 169.374  0.00  0.00    -0.386 OA
ATOM     41  H   LIG    1      181.043 189.363 170.104  0.00  0.00    +0.210 HD
ENDBRANCH  23  40
BRANCH  22  42
ATOM     42  O   LIG    1      182.598 190.935 169.104  0.00  0.00    -0.389 OA
ATOM     43  H   LIG    1      181.625 190.936 169.111  0.00  0.00    +0.210 HD
ENDBRANCH  22  42
BRANCH  16   1
ATOM      1  O   LIG    1      185.236 187.468 168.935  0.00  0.00    -0.443 OA
BRANCH   1   2
ATOM      2  C   LIG    1      185.992 188.286 169.719  0.00  0.00    +0.333 C 
ATOM     15  O   LIG    1      186.794 189.126 169.340  0.00  0.00    -0.246 OA
BRANCH   2   3
ATOM      3  C   LIG    1      185.674 187.979 171.132  0.00  0.00    +0.092 C 
ATOM      4  C   LIG    1      186.093 186.824 171.668  0.00  0.00    +0.015 C 
BRANCH   4   5
ATOM      5  C   LIG    1      185.848 186.410 173.061  0.00  0.00    -0.021 A 
ATOM      6  C   LIG    1      184.587 186.584 173.629  0.00  0.00    +0.012 A 
ATOM      7  C   LIG    1      184.356 186.191 174.948  0.00  0.00    +0.050 A 
ATOM      8  C   LIG    1      185.387 185.624 175.697  0.00  0.00    +0.158 A 
ATOM      9  C   LIG    1      186.648 185.450 175.129  0.00  0.00    +0.159 A 
ATOM     14  C   LIG    1      186.879 185.843 173.810  0.00  0.00    +0.057 A 
BRANCH   9  10
ATOM     10  O   LIG    1      187.662 184.896 175.851  0.00  0.00    -0.503 OA
ATOM     11  H   LIG    1      187.397 184.005 176.139  0.00  0.00    +0.292 HD
ENDBRANCH   9  10
BRANCH   8  12
ATOM     12  O   LIG    1      185.149 185.246 176.985  0.00  0.00    -0.503 OA
ATOM     13  H   LIG    1      184.860 184.318 176.995  0.00  0.00    +0.292 HD
ENDBRANCH   8  12
ENDBRANCH   4   5
ENDBRANCH   2   3
ENDBRANCH   1   2
ENDBRANCH  16   1
BRANCH  24  25
ATOM     25  O   LIG    1      182.571 186.656 169.428  0.00  0.00    -0.455 OA
BRANCH  25  26
ATOM     26  C   LIG    1      182.092 185.387 169.571  0.00  0.00    +0.332 C 
ATOM     39  O   LIG    1      181.585 184.698 168.700  0.00  0.00    -0.246 OA
BRANCH  26  27
ATOM     27  C   LIG    1      182.294 184.982 170.981  0.00  0.00    +0.092 C 
ATOM     28  C   LIG    1      182.971 183.858 171.253  0.00  0.00    +0.015 C 
BRANCH  28  29
ATOM     29  C   LIG    1      183.246 183.355 172.611  0.00  0.00    -0.021 A 
ATOM     30  C   LIG    1      182.228 183.325 173.563  0.00  0.00    +0.012 A 
ATOM     31  C   LIG    1      182.487 182.849 174.848  0.00  0.00    +0.050 A 
ATOM     32  C   LIG    1      183.768 182.404 175.182  0.00  0.00    +0.158 A 
ATOM     33  C   LIG    1      184.786 182.434 174.230  0.00  0.00    +0.159 A 
ATOM     38  C   LIG    1      184.527 182.910 172.945  0.00  0.00    +0.057 A 
BRANCH  33  34
ATOM     34  O   LIG    1      186.039 182.002 174.544  0.00  0.00    -0.503 OA
ATOM     35  H   LIG    1      186.380 181.459 173.812  0.00  0.00    +0.292 HD
ENDBRANCH  33  34
BRANCH  32  36
ATOM     36  O   LIG    1      184.009 181.943 176.441  0.00  0.00    -0.503 OA
ATOM     37  H   LIG    1      183.314 182.272 177.037  0.00  0.00    +0.292 HD
ENDBRANCH  32  36
ENDBRANCH  28  29
ENDBRANCH  26  27
ENDBRANCH  25  26
ENDBRANCH  24  25
TORSDOF 16
ENDMDL
MODEL 9
REMARK VINA RESULT:      -6.8      2.605      6.778
REMARK  Name = 5281769
REMARK                            x       y       z     vdW  Elec       q    Type
REMARK                         _______ _______ _______ _____ _____    ______ ____
ROOT
ATOM     16  C   LIG    1      178.643 176.873 169.942  0.00  0.00    +0.215 C 
ATOM     21  C   LIG    1      179.067 176.430 171.343  0.00  0.00    +0.094 C 
ATOM     22  C   LIG    1      178.027 176.778 172.412  0.00  0.00    +0.151 C 
ATOM     23  C   LIG    1      177.673 178.267 172.369  0.00  0.00    +0.184 C 
ATOM     24  C   LIG    1      177.199 178.705 170.981  0.00  0.00    +0.212 C 
ATOM     44  C   LIG    1      178.234 178.353 169.907  0.00  0.00    +0.107 C 
ENDROOT
BRANCH  16  17
ATOM     17  C   LIG    1      179.749 176.627 168.957  0.00  0.00    +0.349 C 
ATOM     18  O   LIG    1      179.705 176.905 167.768  0.00  0.00    -0.246 OA
BRANCH  17  19
ATOM     19  O   LIG    1      180.812 176.048 169.567  0.00  0.00    -0.478 OA
ATOM     20  H   LIG    1      181.547 176.684 169.703  0.00  0.00    +0.295 HD
ENDBRANCH  17  19
ENDBRANCH  16  17
BRANCH  23  40
ATOM     40  O   LIG    1      176.647 178.524 173.328  0.00  0.00    -0.386 OA
ATOM     41  H   LIG    1      176.813 177.953 174.096  0.00  0.00    +0.210 HD
ENDBRANCH  23  40
BRANCH  22  42
ATOM     42  O   LIG    1      178.570 176.478 173.697  0.00  0.00    -0.389 OA
ATOM     43  H   LIG    1      178.461 177.269 174.253  0.00  0.00    +0.210 HD
ENDBRANCH  22  42
BRANCH  16   1
ATOM      1  O   LIG    1      177.565 176.071 169.474  0.00  0.00    -0.443 OA
BRANCH   1   2
ATOM      2  C   LIG    1      177.749 174.725 169.570  0.00  0.00    +0.333 C 
ATOM     15  O   LIG    1      178.705 174.086 169.157  0.00  0.00    -0.246 OA
BRANCH   2   3
ATOM      3  C   LIG    1      176.573 174.156 170.268  0.00  0.00    +0.092 C 
ATOM      4  C   LIG    1      176.321 172.844 170.176  0.00  0.00    +0.015 C 
BRANCH   4   5
ATOM      5  C   LIG    1      175.191 172.160 170.831  0.00  0.00    -0.021 A 
ATOM      6  C   LIG    1      174.077 172.890 171.242  0.00  0.00    +0.012 A 
ATOM      7  C   LIG    1      173.008 172.242 171.862  0.00  0.00    +0.050 A 
ATOM      8  C   LIG    1      173.054 170.864 172.070  0.00  0.00    +0.158 A 
ATOM      9  C   LIG    1      174.169 170.133 171.659  0.00  0.00    +0.159 A 
ATOM     14  C   LIG    1      175.238 170.781 171.039  0.00  0.00    +0.057 A 
BRANCH   9  10
ATOM     10  O   LIG    1      174.224 168.786 171.856  0.00  0.00    -0.503 OA
ATOM     11  H   LIG    1      175.145 168.488 171.760  0.00  0.00    +0.292 HD
ENDBRANCH   9  10
BRANCH   8  12
ATOM     12  O   LIG    1      172.005 170.243 172.679  0.00  0.00    -0.503 OA
ATOM     13  H   LIG    1      172.265 169.993 173.582  0.00  0.00    +0.292 HD
ENDBRANCH   8  12
ENDBRANCH   4   5
ENDBRANCH   2   3
ENDBRANCH   1   2
ENDBRANCH  16   1
BRANCH  24  25
ATOM     25  O   LIG    1      175.959 178.063 170.683  0.00  0.00    -0.455 OA
BRANCH  25  26
ATOM     26  C   LIG    1      175.213 178.644 169.700  0.00  0.00    +0.332 C 
ATOM     39  O   LIG    1      175.186 179.829 169.411  0.00  0.00    -0.246 OA
BRANCH  26  27
ATOM     27  C   LIG    1      174.430 177.577 169.035  0.00  0.00    +0.092 C 
ATOM     28  C   LIG    1      173.774 176.678 169.781  0.00  0.00    +0.015 C 
BRANCH  28  29
ATOM     29  C   LIG    1      172.956 175.579 169.239  0.00  0.00    -0.021 A 
ATOM     30  C   LIG    1      173.444 174.795 168.195  0.00  0.00    +0.012 A 
ATOM     31  C   LIG    1      172.670 173.754 167.681  0.00  0.00    +0.050 A 
ATOM     32  C   LIG    1      171.405 173.498 168.213  0.00  0.00    +0.158 A 
ATOM     33  C   LIG    1      170.916 174.282 169.258  0.00  0.00    +0.159 A 
ATOM     38  C   LIG    1      171.691 175.322 169.771  0.00  0.00    +0.057 A 
BRANCH  33  34
ATOM     34  O   LIG    1      169.684 174.040 169.785  0.00  0.00    -0.503 OA
ATOM     35  H   LIG    1      169.730 173.250 170.350  0.00  0.00    +0.292 HD
ENDBRANCH  33  34
BRANCH  32  36
ATOM     36  O   LIG    1      170.658 172.480 167.702  0.00  0.00    -0.503 OA
ATOM     37  H   LIG    1      170.351 172.727 166.813  0.00  0.00    +0.292 HD
ENDBRANCH  32  36
ENDBRANCH  28  29
ENDBRANCH  26  27
ENDBRANCH  25  26
ENDBRANCH  24  25
TORSDOF 16
ENDMDL
MODEL 10
REMARK VINA RESULT:      -6.8      2.032      4.718
REMARK  Name = 5281769
REMARK                            x       y       z     vdW  Elec       q    Type
REMARK                         _______ _______ _______ _____ _____    ______ ____
ROOT
ATOM     16  C   LIG    1      174.714 176.450 169.373  0.00  0.00    +0.215 C 
ATOM     21  C   LIG    1      173.219 176.626 169.641  0.00  0.00    +0.094 C 
ATOM     22  C   LIG    1      172.610 175.437 170.389  0.00  0.00    +0.151 C 
ATOM     23  C   LIG    1      172.905 174.122 169.663  0.00  0.00    +0.184 C 
ATOM     24  C   LIG    1      174.405 173.916 169.436  0.00  0.00    +0.212 C 
ATOM     44  C   LIG    1      175.021 175.107 168.694  0.00  0.00    +0.107 C 
ENDROOT
BRANCH  16  17
ATOM     17  C   LIG    1      175.231 177.578 168.527  0.00  0.00    +0.349 C 
ATOM     18  O   LIG    1      176.367 177.657 168.082  0.00  0.00    -0.246 OA
BRANCH  17  19
ATOM     19  O   LIG    1      174.265 178.506 168.325  0.00  0.00    -0.478 OA
ATOM     20  H   LIG    1      173.691 178.276 167.563  0.00  0.00    +0.295 HD
ENDBRANCH  17  19
ENDBRANCH  16  17
BRANCH  23  40
ATOM     40  O   LIG    1      172.386 173.041 170.436  0.00  0.00    -0.386 OA
ATOM     41  H   LIG    1      171.533 172.784 170.046  0.00  0.00    +0.210 HD
ENDBRANCH  23  40
BRANCH  22  42
ATOM     42  O   LIG    1      171.194 175.611 170.454  0.00  0.00    -0.389 OA
ATOM     43  H   LIG    1      170.877 175.131 171.238  0.00  0.00    +0.210 HD
ENDBRANCH  22  42
BRANCH  16   1
ATOM      1  O   LIG    1      175.450 176.548 170.587  0.00  0.00    -0.443 OA
BRANCH   1   2
ATOM      2  C   LIG    1      175.546 177.799 171.117  0.00  0.00    +0.333 C 
ATOM     15  O   LIG    1      174.628 178.573 171.334  0.00  0.00    -0.246 OA
BRANCH   2   3
ATOM      3  C   LIG    1      176.977 178.065 171.389  0.00  0.00    +0.092 C 
ATOM      4  C   LIG    1      177.858 177.057 171.340  0.00  0.00    +0.015 C 
BRANCH   4   5
ATOM      5  C   LIG    1      179.306 177.196 171.581  0.00  0.00    -0.021 A 
ATOM      6  C   LIG    1      179.889 176.593 172.694  0.00  0.00    +0.012 A 
ATOM      7  C   LIG    1      181.259 176.725 172.922  0.00  0.00    +0.050 A 
ATOM      8  C   LIG    1      182.046 177.461 172.035  0.00  0.00    +0.158 A 
ATOM      9  C   LIG    1      181.462 178.065 170.922  0.00  0.00    +0.159 A 
ATOM     14  C   LIG    1      180.092 177.932 170.694  0.00  0.00    +0.057 A 
BRANCH   9  10
ATOM     10  O   LIG    1      182.220 178.785 170.049  0.00  0.00    -0.503 OA
ATOM     11  H   LIG    1      181.910 179.707 170.043  0.00  0.00    +0.292 HD
ENDBRANCH   9  10
BRANCH   8  12
ATOM     12  O   LIG    1      183.382 177.584 172.270  0.00  0.00    -0.503 OA
ATOM     13  H   LIG    1      183.789 176.701 172.255  0.00  0.00    +0.292 HD
ENDBRANCH   8  12
ENDBRANCH   4   5
ENDBRANCH   2   3
ENDBRANCH   1   2
ENDBRANCH  16   1
BRANCH  24  25
ATOM     25  O   LIG    1      175.052 173.748 170.697  0.00  0.00    -0.455 OA
BRANCH  25  26
ATOM     26  C   LIG    1      175.736 172.579 170.861  0.00  0.00    +0.332 C 
ATOM     39  O   LIG    1      175.275 171.451 170.791  0.00  0.00    -0.246 OA
BRANCH  26  27
ATOM     27  C   LIG    1      177.150 172.916 171.143  0.00  0.00    +0.092 C 
ATOM     28  C   LIG    1      177.992 173.131 170.124  0.00  0.00    +0.015 C 
BRANCH  28  29
ATOM     29  C   LIG    1      179.415 173.482 170.275  0.00  0.00    -0.021 A 
ATOM     30  C   LIG    1      180.118 173.075 171.409  0.00  0.00    +0.012 A 
ATOM     31  C   LIG    1      181.465 173.407 171.552  0.00  0.00    +0.050 A 
ATOM     32  C   LIG    1      182.110 174.148 170.561  0.00  0.00    +0.158 A 
ATOM     33  C   LIG    1      181.408 174.555 169.426  0.00  0.00    +0.159 A 
ATOM     38  C   LIG    1      180.061 174.223 169.283  0.00  0.00    +0.057 A 
BRANCH  33  34
ATOM     34  O   LIG    1      182.028 175.277 168.452  0.00  0.00    -0.503 OA
ATOM     35  H   LIG    1      182.847 175.658 168.812  0.00  0.00    +0.292 HD
ENDBRANCH  33  34
BRANCH  32  36
ATOM     36  O   LIG    1      183.426 174.467 170.713  0.00  0.00    -0.503 OA
ATOM     37  H   LIG    1      183.530 175.430 170.627  0.00  0.00    +0.292 HD
ENDBRANCH  32  36
ENDBRANCH  28  29
ENDBRANCH  26  27
ENDBRANCH  25  26
ENDBRANCH  24  25
TORSDOF 16
ENDMDL
