REMARK VINA RESULT:      -7.0     11.698     15.674
REMARK  Name = 5281769
REMARK                            x       y       z     vdW  Elec       q    Type
REMARK                         _______ _______ _______ _____ _____    ______ ____
ROOT
ATOM     16  C   LIG    1      185.312 185.190 171.542  0.00  0.00    +0.215 C 
ATOM     21  C   LIG    1      186.175 184.958 172.783  0.00  0.00    +0.094 C 
ATOM     22  C   LIG    1      187.029 186.177 173.145  0.00  0.00    +0.151 C 
ATOM     23  C   LIG    1      187.866 186.636 171.949  0.00  0.00    +0.184 C 
ATOM     24  C   LIG    1      187.001 186.918 170.717  0.00  0.00    +0.212 C 
ATOM     44  C   LIG    1      186.141 185.703 170.355  0.00  0.00    +0.107 C 
ENDROOT
BRANCH  16  17
ATOM     17  C   LIG    1      184.598 183.927 171.157  0.00  0.00    +0.349 C 
ATOM     18  O   LIG    1      183.959 183.769 170.127  0.00  0.00    -0.246 OA
BRANCH  17  19
ATOM     19  O   LIG    1      184.756 182.978 172.111  0.00  0.00    -0.478 OA
ATOM     20  H   LIG    1      185.692 182.694 172.194  0.00  0.00    +0.295 HD
ENDBRANCH  17  19
ENDBRANCH  16  17
BRANCH  23  40
ATOM     40  O   LIG    1      188.581 187.817 172.312  0.00  0.00    -0.386 OA
ATOM     41  H   LIG    1      189.460 187.542 172.624  0.00  0.00    +0.210 HD
ENDBRANCH  23  40
BRANCH  22  42
ATOM     42  O   LIG    1      187.913 185.820 174.207  0.00  0.00    -0.389 OA
ATOM     43  H   LIG    1      187.365 185.538 174.961  0.00  0.00    +0.210 HD
ENDBRANCH  22  42
BRANCH  16   1
ATOM      1  O   LIG    1      184.270 186.115 171.830  0.00  0.00    -0.443 OA
BRANCH   1   2
ATOM      2  C   LIG    1      183.314 185.673 172.694  0.00  0.00    +0.333 C 
ATOM     15  O   LIG    1      183.496 185.097 173.754  0.00  0.00    -0.246 OA
BRANCH   2   3
ATOM      3  C   LIG    1      181.993 186.015 172.118  0.00  0.00    +0.092 C 
ATOM      4  C   LIG    1      181.920 186.487 170.866  0.00  0.00    +0.015 C 
BRANCH   4   5
ATOM      5  C   LIG    1      180.667 186.851 170.180  0.00  0.00    -0.021 A 
ATOM      6  C   LIG    1      179.690 187.583 170.853  0.00  0.00    +0.012 A 
ATOM      7  C   LIG    1      178.505 187.929 170.204  0.00  0.00    +0.050 A 
ATOM      8  C   LIG    1      178.298 187.542 168.879  0.00  0.00    +0.158 A 
ATOM      9  C   LIG    1      179.275 186.810 168.206  0.00  0.00    +0.159 A 
ATOM     14  C   LIG    1      180.460 186.465 168.855  0.00  0.00    +0.057 A 
BRANCH   9  10
ATOM     10  O   LIG    1      179.083 186.428 166.912  0.00  0.00    -0.503 OA
ATOM     11  H   LIG    1      178.142 186.219 166.778  0.00  0.00    +0.292 HD
ENDBRANCH   9  10
BRANCH   8  12
ATOM     12  O   LIG    1      177.135 187.884 168.257  0.00  0.00    -0.503 OA
ATOM     13  H   LIG    1      176.671 187.074 167.985  0.00  0.00    +0.292 HD
ENDBRANCH   8  12
ENDBRANCH   4   5
ENDBRANCH   2   3
ENDBRANCH   1   2
ENDBRANCH  16   1
BRANCH  24  25
ATOM     25  O   LIG    1      186.161 188.042 170.981  0.00  0.00    -0.455 OA
BRANCH  25  26
ATOM     26  C   LIG    1      186.086 188.972 169.986  0.00  0.00    +0.332 C 
ATOM     39  O   LIG    1      187.023 189.467 169.381  0.00  0.00    -0.246 OA
BRANCH  26  27
ATOM     27  C   LIG    1      184.656 189.283 169.763  0.00  0.00    +0.092 C 
ATOM     28  C   LIG    1      184.185 189.361 168.511  0.00  0.00    +0.015 C 
BRANCH  28  29
ATOM     29  C   LIG    1      182.784 189.653 168.160  0.00  0.00    -0.021 A 
ATOM     30  C   LIG    1      182.000 190.431 169.011  0.00  0.00    +0.012 A 
ATOM     31  C   LIG    1      180.673 190.708 168.680  0.00  0.00    +0.050 A 
ATOM     32  C   LIG    1      180.131 190.205 167.496  0.00  0.00    +0.158 A 
ATOM     33  C   LIG    1      180.915 189.427 166.645  0.00  0.00    +0.159 A 
ATOM     38  C   LIG    1      182.242 189.151 166.976  0.00  0.00    +0.057 A 
BRANCH  33  34
ATOM     34  O   LIG    1      180.397 188.932 165.487  0.00  0.00    -0.503 OA
ATOM     35  H   LIG    1      180.214 189.670 164.880  0.00  0.00    +0.292 HD
ENDBRANCH  33  34
BRANCH  32  36
ATOM     36  O   LIG    1      178.834 190.481 167.184  0.00  0.00    -0.503 OA
ATOM     37  H   LIG    1      178.367 190.763 167.990  0.00  0.00    +0.292 HD
ENDBRANCH  32  36
ENDBRANCH  28  29
ENDBRANCH  26  27
ENDBRANCH  25  26
ENDBRANCH  24  25
TORSDOF 16
