REMARK VINA RESULT:      -7.1     12.247     14.785
REMARK  Name = 5281769
REMARK                            x       y       z     vdW  Elec       q    Type
REMARK                         _______ _______ _______ _____ _____    ______ ____
ROOT
ATOM     16  C   LIG    1      185.415 187.909 166.765  0.00  0.00    +0.215 C 
ATOM     21  C   LIG    1      186.503 188.877 167.235  0.00  0.00    +0.094 C 
ATOM     22  C   LIG    1      186.325 189.301 168.696  0.00  0.00    +0.151 C 
ATOM     23  C   LIG    1      184.922 189.862 168.938  0.00  0.00    +0.184 C 
ATOM     24  C   LIG    1      183.829 188.876 168.517  0.00  0.00    +0.212 C 
ATOM     44  C   LIG    1      184.006 188.444 167.058  0.00  0.00    +0.107 C 
ENDROOT
BRANCH  16  17
ATOM     17  C   LIG    1      185.560 187.630 165.297  0.00  0.00    +0.349 C 
ATOM     18  O   LIG    1      184.809 186.924 164.640  0.00  0.00    -0.246 OA
BRANCH  17  19
ATOM     19  O   LIG    1      186.645 188.267 164.794  0.00  0.00    -0.478 OA
ATOM     20  H   LIG    1      186.585 189.240 164.910  0.00  0.00    +0.295 HD
ENDBRANCH  17  19
ENDBRANCH  16  17
BRANCH  23  40
ATOM     40  O   LIG    1      184.781 190.167 170.325  0.00  0.00    -0.386 OA
ATOM     41  H   LIG    1      185.029 191.099 170.446  0.00  0.00    +0.210 HD
ENDBRANCH  23  40
BRANCH  22  42
ATOM     42  O   LIG    1      187.279 190.318 168.998  0.00  0.00    -0.389 OA
ATOM     43  H   LIG    1      188.162 189.911 168.963  0.00  0.00    +0.210 HD
ENDBRANCH  22  42
BRANCH  16   1
ATOM      1  O   LIG    1      185.581 186.640 167.388  0.00  0.00    -0.443 OA
BRANCH   1   2
ATOM      2  C   LIG    1      186.842 186.127 167.351  0.00  0.00    +0.333 C 
ATOM     15  O   LIG    1      187.484 185.836 166.355  0.00  0.00    -0.246 OA
BRANCH   2   3
ATOM      3  C   LIG    1      187.309 185.977 168.749  0.00  0.00    +0.092 C 
ATOM      4  C   LIG    1      186.440 185.611 169.700  0.00  0.00    +0.015 C 
BRANCH   4   5
ATOM      5  C   LIG    1      186.784 185.419 171.120  0.00  0.00    -0.021 A 
ATOM      6  C   LIG    1      186.759 184.142 171.678  0.00  0.00    +0.012 A 
ATOM      7  C   LIG    1      187.086 183.961 173.023  0.00  0.00    +0.050 A 
ATOM      8  C   LIG    1      187.438 185.058 173.808  0.00  0.00    +0.158 A 
ATOM      9  C   LIG    1      187.463 186.336 173.251  0.00  0.00    +0.159 A 
ATOM     14  C   LIG    1      187.136 186.517 171.906  0.00  0.00    +0.057 A 
BRANCH   9  10
ATOM     10  O   LIG    1      187.806 187.415 174.008  0.00  0.00    -0.503 OA
ATOM     11  H   LIG    1      187.197 188.148 173.812  0.00  0.00    +0.292 HD
ENDBRANCH   9  10
BRANCH   8  12
ATOM     12  O   LIG    1      187.752 184.869 175.120  0.00  0.00    -0.503 OA
ATOM     13  H   LIG    1      187.084 184.290 175.526  0.00  0.00    +0.292 HD
ENDBRANCH   8  12
ENDBRANCH   4   5
ENDBRANCH   2   3
ENDBRANCH   1   2
ENDBRANCH  16   1
BRANCH  24  25
ATOM     25  O   LIG    1      183.877 187.730 169.367  0.00  0.00    -0.455 OA
BRANCH  25  26
ATOM     26  C   LIG    1      182.675 187.294 169.842  0.00  0.00    +0.332 C 
ATOM     39  O   LIG    1      181.572 187.714 169.528  0.00  0.00    -0.246 OA
BRANCH  26  27
ATOM     27  C   LIG    1      182.937 186.210 170.815  0.00  0.00    +0.092 C 
ATOM     28  C   LIG    1      183.248 186.521 172.081  0.00  0.00    +0.015 C 
BRANCH  28  29
ATOM     29  C   LIG    1      183.521 185.536 173.142  0.00  0.00    -0.021 A 
ATOM     30  C   LIG    1      183.202 184.193 172.945  0.00  0.00    +0.012 A 
ATOM     31  C   LIG    1      183.459 183.259 173.950  0.00  0.00    +0.050 A 
ATOM     32  C   LIG    1      184.037 183.670 175.152  0.00  0.00    +0.158 A 
ATOM     33  C   LIG    1      184.356 185.013 175.349  0.00  0.00    +0.159 A 
ATOM     38  C   LIG    1      184.098 185.947 174.345  0.00  0.00    +0.057 A 
BRANCH  33  34
ATOM     34  O   LIG    1      184.920 185.425 176.518  0.00  0.00    -0.503 OA
ATOM     35  H   LIG    1      185.725 185.935 176.320  0.00  0.00    +0.292 HD
ENDBRANCH  33  34
BRANCH  32  36
ATOM     36  O   LIG    1      184.282 182.749 176.126  0.00  0.00    -0.503 OA
ATOM     37  H   LIG    1      183.732 181.963 175.965  0.00  0.00    +0.292 HD
ENDBRANCH  32  36
ENDBRANCH  28  29
ENDBRANCH  26  27
ENDBRANCH  25  26
ENDBRANCH  24  25
TORSDOF 16
