REMARK VINA RESULT:      -6.8     11.524     14.130
REMARK  Name = 5281769
REMARK                            x       y       z     vdW  Elec       q    Type
REMARK                         _______ _______ _______ _____ _____    ______ ____
ROOT
ATOM     16  C   LIG    1      184.675 188.074 167.776  0.00  0.00    +0.215 C 
ATOM     21  C   LIG    1      184.245 189.510 168.082  0.00  0.00    +0.094 C 
ATOM     22  C   LIG    1      183.024 189.576 169.003  0.00  0.00    +0.151 C 
ATOM     23  C   LIG    1      181.868 188.744 168.444  0.00  0.00    +0.184 C 
ATOM     24  C   LIG    1      182.279 187.292 168.184  0.00  0.00    +0.212 C 
ATOM     44  C   LIG    1      183.504 187.221 167.267  0.00  0.00    +0.107 C 
ENDROOT
BRANCH  16  17
ATOM     17  C   LIG    1      185.789 188.064 166.769  0.00  0.00    +0.349 C 
ATOM     18  O   LIG    1      186.359 187.061 166.364  0.00  0.00    -0.246 OA
BRANCH  17  19
ATOM     19  O   LIG    1      186.084 189.324 166.369  0.00  0.00    -0.478 OA
ATOM     20  H   LIG    1      186.629 189.801 167.031  0.00  0.00    +0.295 HD
ENDBRANCH  17  19
ENDBRANCH  16  17
BRANCH  23  40
ATOM     40  O   LIG    1      180.785 188.775 169.374  0.00  0.00    -0.386 OA
ATOM     41  H   LIG    1      181.043 189.363 170.104  0.00  0.00    +0.210 HD
ENDBRANCH  23  40
BRANCH  22  42
ATOM     42  O   LIG    1      182.598 190.935 169.104  0.00  0.00    -0.389 OA
ATOM     43  H   LIG    1      181.625 190.936 169.111  0.00  0.00    +0.210 HD
ENDBRANCH  22  42
BRANCH  16   1
ATOM      1  O   LIG    1      185.236 187.468 168.935  0.00  0.00    -0.443 OA
BRANCH   1   2
ATOM      2  C   LIG    1      185.992 188.286 169.719  0.00  0.00    +0.333 C 
ATOM     15  O   LIG    1      186.794 189.126 169.340  0.00  0.00    -0.246 OA
BRANCH   2   3
ATOM      3  C   LIG    1      185.674 187.979 171.132  0.00  0.00    +0.092 C 
ATOM      4  C   LIG    1      186.093 186.824 171.668  0.00  0.00    +0.015 C 
BRANCH   4   5
ATOM      5  C   LIG    1      185.848 186.410 173.061  0.00  0.00    -0.021 A 
ATOM      6  C   LIG    1      184.587 186.584 173.629  0.00  0.00    +0.012 A 
ATOM      7  C   LIG    1      184.356 186.191 174.948  0.00  0.00    +0.050 A 
ATOM      8  C   LIG    1      185.387 185.624 175.697  0.00  0.00    +0.158 A 
ATOM      9  C   LIG    1      186.648 185.450 175.129  0.00  0.00    +0.159 A 
ATOM     14  C   LIG    1      186.879 185.843 173.810  0.00  0.00    +0.057 A 
BRANCH   9  10
ATOM     10  O   LIG    1      187.662 184.896 175.851  0.00  0.00    -0.503 OA
ATOM     11  H   LIG    1      187.397 184.005 176.139  0.00  0.00    +0.292 HD
ENDBRANCH   9  10
BRANCH   8  12
ATOM     12  O   LIG    1      185.149 185.246 176.985  0.00  0.00    -0.503 OA
ATOM     13  H   LIG    1      184.860 184.318 176.995  0.00  0.00    +0.292 HD
ENDBRANCH   8  12
ENDBRANCH   4   5
ENDBRANCH   2   3
ENDBRANCH   1   2
ENDBRANCH  16   1
BRANCH  24  25
ATOM     25  O   LIG    1      182.571 186.656 169.428  0.00  0.00    -0.455 OA
BRANCH  25  26
ATOM     26  C   LIG    1      182.092 185.387 169.571  0.00  0.00    +0.332 C 
ATOM     39  O   LIG    1      181.585 184.698 168.700  0.00  0.00    -0.246 OA
BRANCH  26  27
ATOM     27  C   LIG    1      182.294 184.982 170.981  0.00  0.00    +0.092 C 
ATOM     28  C   LIG    1      182.971 183.858 171.253  0.00  0.00    +0.015 C 
BRANCH  28  29
ATOM     29  C   LIG    1      183.246 183.355 172.611  0.00  0.00    -0.021 A 
ATOM     30  C   LIG    1      182.228 183.325 173.563  0.00  0.00    +0.012 A 
ATOM     31  C   LIG    1      182.487 182.849 174.848  0.00  0.00    +0.050 A 
ATOM     32  C   LIG    1      183.768 182.404 175.182  0.00  0.00    +0.158 A 
ATOM     33  C   LIG    1      184.786 182.434 174.230  0.00  0.00    +0.159 A 
ATOM     38  C   LIG    1      184.527 182.910 172.945  0.00  0.00    +0.057 A 
BRANCH  33  34
ATOM     34  O   LIG    1      186.039 182.002 174.544  0.00  0.00    -0.503 OA
ATOM     35  H   LIG    1      186.380 181.459 173.812  0.00  0.00    +0.292 HD
ENDBRANCH  33  34
BRANCH  32  36
ATOM     36  O   LIG    1      184.009 181.943 176.441  0.00  0.00    -0.503 OA
ATOM     37  H   LIG    1      183.314 182.272 177.037  0.00  0.00    +0.292 HD
ENDBRANCH  32  36
ENDBRANCH  28  29
ENDBRANCH  26  27
ENDBRANCH  25  26
ENDBRANCH  24  25
TORSDOF 16
