REMARK VINA RESULT:      -7.0      9.029     11.640
REMARK  Name = 5281769
REMARK                            x       y       z     vdW  Elec       q    Type
REMARK                         _______ _______ _______ _____ _____    ______ ____
ROOT
ATOM     16  C   LIG    1      181.773 180.228 171.095  0.00  0.00    +0.215 C 
ATOM     21  C   LIG    1      181.103 180.094 169.726  0.00  0.00    +0.094 C 
ATOM     22  C   LIG    1      180.164 181.262 169.413  0.00  0.00    +0.151 C 
ATOM     23  C   LIG    1      179.137 181.457 170.531  0.00  0.00    +0.184 C 
ATOM     24  C   LIG    1      179.804 181.642 171.897  0.00  0.00    +0.212 C 
ATOM     44  C   LIG    1      180.750 180.478 172.212  0.00  0.00    +0.107 C 
ENDROOT
BRANCH  16  17
ATOM     17  C   LIG    1      182.578 178.999 171.406  0.00  0.00    +0.349 C 
ATOM     18  O   LIG    1      182.523 177.948 170.784  0.00  0.00    -0.246 OA
BRANCH  17  19
ATOM     19  O   LIG    1      183.377 179.210 172.480  0.00  0.00    -0.478 OA
ATOM     20  H   LIG    1      184.286 178.870 172.333  0.00  0.00    +0.295 HD
ENDBRANCH  17  19
ENDBRANCH  16  17
BRANCH  23  40
ATOM     40  O   LIG    1      178.339 182.601 170.230  0.00  0.00    -0.386 OA
ATOM     41  H   LIG    1      177.410 182.317 170.225  0.00  0.00    +0.210 HD
ENDBRANCH  23  40
BRANCH  22  42
ATOM     42  O   LIG    1      179.466 180.978 168.200  0.00  0.00    -0.389 OA
ATOM     43  H   LIG    1      180.129 180.730 167.533  0.00  0.00    +0.210 HD
ENDBRANCH  22  42
BRANCH  16   1
ATOM      1  O   LIG    1      182.727 181.283 171.078  0.00  0.00    -0.443 OA
BRANCH   1   2
ATOM      2  C   LIG    1      183.432 181.421 169.920  0.00  0.00    +0.333 C 
ATOM     15  O   LIG    1      183.676 180.546 169.104  0.00  0.00    -0.246 OA
BRANCH   2   3
ATOM      3  C   LIG    1      183.861 182.835 169.818  0.00  0.00    +0.092 C 
ATOM      4  C   LIG    1      184.807 183.299 170.645  0.00  0.00    +0.015 C 
BRANCH   4   5
ATOM      5  C   LIG    1      185.324 184.680 170.635  0.00  0.00    -0.021 A 
ATOM      6  C   LIG    1      184.439 185.756 170.581  0.00  0.00    +0.012 A 
ATOM      7  C   LIG    1      184.929 187.062 170.572  0.00  0.00    +0.050 A 
ATOM      8  C   LIG    1      186.304 187.291 170.617  0.00  0.00    +0.158 A 
ATOM      9  C   LIG    1      187.189 186.215 170.671  0.00  0.00    +0.159 A 
ATOM     14  C   LIG    1      186.700 184.909 170.680  0.00  0.00    +0.057 A 
BRANCH   9  10
ATOM     10  O   LIG    1      188.534 186.428 170.716  0.00  0.00    -0.503 OA
ATOM     11  H   LIG    1      188.856 186.241 171.615  0.00  0.00    +0.292 HD
ENDBRANCH   9  10
BRANCH   8  12
ATOM     12  O   LIG    1      186.770 188.572 170.605  0.00  0.00    -0.503 OA
ATOM     13  H   LIG    1      186.797 188.891 169.687  0.00  0.00    +0.292 HD
ENDBRANCH   8  12
ENDBRANCH   4   5
ENDBRANCH   2   3
ENDBRANCH   1   2
ENDBRANCH  16   1
BRANCH  24  25
ATOM     25  O   LIG    1      180.533 182.869 171.901  0.00  0.00    -0.455 OA
BRANCH  25  26
ATOM     26  C   LIG    1      180.736 183.433 173.127  0.00  0.00    +0.332 C 
ATOM     39  O   LIG    1      179.972 183.401 174.078  0.00  0.00    -0.246 OA
BRANCH  26  27
ATOM     27  C   LIG    1      182.058 184.100 173.106  0.00  0.00    +0.092 C 
ATOM     28  C   LIG    1      182.962 183.801 174.049  0.00  0.00    +0.015 C 
BRANCH  28  29
ATOM     29  C   LIG    1      184.312 184.387 174.130  0.00  0.00    -0.021 A 
ATOM     30  C   LIG    1      184.471 185.773 174.131  0.00  0.00    +0.012 A 
ATOM     31  C   LIG    1      185.748 186.329 174.207  0.00  0.00    +0.050 A 
ATOM     32  C   LIG    1      186.867 185.498 174.282  0.00  0.00    +0.158 A 
ATOM     33  C   LIG    1      186.708 184.112 174.281  0.00  0.00    +0.159 A 
ATOM     38  C   LIG    1      185.431 183.556 174.205  0.00  0.00    +0.057 A 
BRANCH  33  34
ATOM     34  O   LIG    1      187.792 183.292 174.354  0.00  0.00    -0.503 OA
ATOM     35  H   LIG    1      188.224 183.257 173.483  0.00  0.00    +0.292 HD
ENDBRANCH  33  34
BRANCH  32  36
ATOM     36  O   LIG    1      188.109 186.053 174.355  0.00  0.00    -0.503 OA
ATOM     37  H   LIG    1      188.238 186.641 173.592  0.00  0.00    +0.292 HD
ENDBRANCH  32  36
ENDBRANCH  28  29
ENDBRANCH  26  27
ENDBRANCH  25  26
ENDBRANCH  24  25
TORSDOF 16
