REMARK VINA RESULT:      -7.0     10.431     12.848
REMARK  Name = 5281769
REMARK                            x       y       z     vdW  Elec       q    Type
REMARK                         _______ _______ _______ _____ _____    ______ ____
ROOT
ATOM     16  C   LIG    1      179.948 186.766 169.235  0.00  0.00    +0.215 C 
ATOM     21  C   LIG    1      179.375 187.812 170.193  0.00  0.00    +0.094 C 
ATOM     22  C   LIG    1      179.459 187.379 171.659  0.00  0.00    +0.151 C 
ATOM     23  C   LIG    1      178.813 186.006 171.864  0.00  0.00    +0.184 C 
ATOM     24  C   LIG    1      179.418 184.944 170.944  0.00  0.00    +0.212 C 
ATOM     44  C   LIG    1      179.342 185.375 169.476  0.00  0.00    +0.107 C 
ENDROOT
BRANCH  16  17
ATOM     17  C   LIG    1      179.723 187.181 167.810  0.00  0.00    +0.349 C 
ATOM     18  O   LIG    1      180.138 186.579 166.831  0.00  0.00    -0.246 OA
BRANCH  17  19
ATOM     19  O   LIG    1      178.996 188.323 167.753  0.00  0.00    -0.478 OA
ATOM     20  H   LIG    1      178.687 188.515 166.842  0.00  0.00    +0.295 HD
ENDBRANCH  17  19
ENDBRANCH  16  17
BRANCH  23  40
ATOM     40  O   LIG    1      178.985 185.614 173.226  0.00  0.00    -0.386 OA
ATOM     41  H   LIG    1      179.013 186.424 173.763  0.00  0.00    +0.210 HD
ENDBRANCH  23  40
BRANCH  22  42
ATOM     42  O   LIG    1      178.763 188.333 172.461  0.00  0.00    -0.389 OA
ATOM     43  H   LIG    1      178.541 189.088 171.889  0.00  0.00    +0.210 HD
ENDBRANCH  22  42
BRANCH  16   1
ATOM      1  O   LIG    1      181.363 186.696 169.367  0.00  0.00    -0.443 OA
BRANCH   1   2
ATOM      2  C   LIG    1      182.009 187.895 169.412  0.00  0.00    +0.333 C 
ATOM     15  O   LIG    1      181.559 188.981 169.085  0.00  0.00    -0.246 OA
BRANCH   2   3
ATOM      3  C   LIG    1      183.375 187.653 169.932  0.00  0.00    +0.092 C 
ATOM      4  C   LIG    1      183.595 186.616 170.753  0.00  0.00    +0.015 C 
BRANCH   4   5
ATOM      5  C   LIG    1      184.907 186.266 171.327  0.00  0.00    -0.021 A 
ATOM      6  C   LIG    1      185.630 185.192 170.810  0.00  0.00    +0.012 A 
ATOM      7  C   LIG    1      186.872 184.861 171.353  0.00  0.00    +0.050 A 
ATOM      8  C   LIG    1      187.390 185.606 172.413  0.00  0.00    +0.158 A 
ATOM      9  C   LIG    1      186.667 186.681 172.929  0.00  0.00    +0.159 A 
ATOM     14  C   LIG    1      185.426 187.012 172.386  0.00  0.00    +0.057 A 
BRANCH   9  10
ATOM     10  O   LIG    1      187.165 187.416 173.962  0.00  0.00    -0.503 OA
ATOM     11  H   LIG    1      187.569 186.817 174.614  0.00  0.00    +0.292 HD
ENDBRANCH   9  10
BRANCH   8  12
ATOM     12  O   LIG    1      188.603 185.271 172.935  0.00  0.00    -0.503 OA
ATOM     13  H   LIG    1      188.996 186.057 173.352  0.00  0.00    +0.292 HD
ENDBRANCH   8  12
ENDBRANCH   4   5
ENDBRANCH   2   3
ENDBRANCH   1   2
ENDBRANCH  16   1
BRANCH  24  25
ATOM     25  O   LIG    1      180.780 184.724 171.311  0.00  0.00    -0.455 OA
BRANCH  25  26
ATOM     26  C   LIG    1      181.009 183.648 172.117  0.00  0.00    +0.332 C 
ATOM     39  O   LIG    1      180.207 182.777 172.416  0.00  0.00    -0.246 OA
BRANCH  26  27
ATOM     27  C   LIG    1      182.415 183.716 172.576  0.00  0.00    +0.092 C 
ATOM     28  C   LIG    1      182.678 184.015 173.856  0.00  0.00    +0.015 C 
BRANCH  28  29
ATOM     29  C   LIG    1      184.030 184.103 174.434  0.00  0.00    -0.021 A 
ATOM     30  C   LIG    1      184.980 183.126 174.138  0.00  0.00    +0.012 A 
ATOM     31  C   LIG    1      186.261 183.209 174.686  0.00  0.00    +0.050 A 
ATOM     32  C   LIG    1      186.591 184.271 175.529  0.00  0.00    +0.158 A 
ATOM     33  C   LIG    1      185.641 185.248 175.825  0.00  0.00    +0.159 A 
ATOM     38  C   LIG    1      184.361 185.165 175.278  0.00  0.00    +0.057 A 
BRANCH  33  34
ATOM     34  O   LIG    1      185.953 186.289 176.646  0.00  0.00    -0.503 OA
ATOM     35  H   LIG    1      186.807 186.665 176.373  0.00  0.00    +0.292 HD
ENDBRANCH  33  34
BRANCH  32  36
ATOM     36  O   LIG    1      187.845 184.340 176.058  0.00  0.00    -0.503 OA
ATOM     37  H   LIG    1      188.222 185.216 175.866  0.00  0.00    +0.292 HD
ENDBRANCH  32  36
ENDBRANCH  28  29
ENDBRANCH  26  27
ENDBRANCH  25  26
ENDBRANCH  24  25
TORSDOF 16
