REMARK VINA RESULT:      -6.8      2.605      6.778
REMARK  Name = 5281769
REMARK                            x       y       z     vdW  Elec       q    Type
REMARK                         _______ _______ _______ _____ _____    ______ ____
ROOT
ATOM     16  C   LIG    1      178.643 176.873 169.942  0.00  0.00    +0.215 C 
ATOM     21  C   LIG    1      179.067 176.430 171.343  0.00  0.00    +0.094 C 
ATOM     22  C   LIG    1      178.027 176.778 172.412  0.00  0.00    +0.151 C 
ATOM     23  C   LIG    1      177.673 178.267 172.369  0.00  0.00    +0.184 C 
ATOM     24  C   LIG    1      177.199 178.705 170.981  0.00  0.00    +0.212 C 
ATOM     44  C   LIG    1      178.234 178.353 169.907  0.00  0.00    +0.107 C 
ENDROOT
BRANCH  16  17
ATOM     17  C   LIG    1      179.749 176.627 168.957  0.00  0.00    +0.349 C 
ATOM     18  O   LIG    1      179.705 176.905 167.768  0.00  0.00    -0.246 OA
BRANCH  17  19
ATOM     19  O   LIG    1      180.812 176.048 169.567  0.00  0.00    -0.478 OA
ATOM     20  H   LIG    1      181.547 176.684 169.703  0.00  0.00    +0.295 HD
ENDBRANCH  17  19
ENDBRANCH  16  17
BRANCH  23  40
ATOM     40  O   LIG    1      176.647 178.524 173.328  0.00  0.00    -0.386 OA
ATOM     41  H   LIG    1      176.813 177.953 174.096  0.00  0.00    +0.210 HD
ENDBRANCH  23  40
BRANCH  22  42
ATOM     42  O   LIG    1      178.570 176.478 173.697  0.00  0.00    -0.389 OA
ATOM     43  H   LIG    1      178.461 177.269 174.253  0.00  0.00    +0.210 HD
ENDBRANCH  22  42
BRANCH  16   1
ATOM      1  O   LIG    1      177.565 176.071 169.474  0.00  0.00    -0.443 OA
BRANCH   1   2
ATOM      2  C   LIG    1      177.749 174.725 169.570  0.00  0.00    +0.333 C 
ATOM     15  O   LIG    1      178.705 174.086 169.157  0.00  0.00    -0.246 OA
BRANCH   2   3
ATOM      3  C   LIG    1      176.573 174.156 170.268  0.00  0.00    +0.092 C 
ATOM      4  C   LIG    1      176.321 172.844 170.176  0.00  0.00    +0.015 C 
BRANCH   4   5
ATOM      5  C   LIG    1      175.191 172.160 170.831  0.00  0.00    -0.021 A 
ATOM      6  C   LIG    1      174.077 172.890 171.242  0.00  0.00    +0.012 A 
ATOM      7  C   LIG    1      173.008 172.242 171.862  0.00  0.00    +0.050 A 
ATOM      8  C   LIG    1      173.054 170.864 172.070  0.00  0.00    +0.158 A 
ATOM      9  C   LIG    1      174.169 170.133 171.659  0.00  0.00    +0.159 A 
ATOM     14  C   LIG    1      175.238 170.781 171.039  0.00  0.00    +0.057 A 
BRANCH   9  10
ATOM     10  O   LIG    1      174.224 168.786 171.856  0.00  0.00    -0.503 OA
ATOM     11  H   LIG    1      175.145 168.488 171.760  0.00  0.00    +0.292 HD
ENDBRANCH   9  10
BRANCH   8  12
ATOM     12  O   LIG    1      172.005 170.243 172.679  0.00  0.00    -0.503 OA
ATOM     13  H   LIG    1      172.265 169.993 173.582  0.00  0.00    +0.292 HD
ENDBRANCH   8  12
ENDBRANCH   4   5
ENDBRANCH   2   3
ENDBRANCH   1   2
ENDBRANCH  16   1
BRANCH  24  25
ATOM     25  O   LIG    1      175.959 178.063 170.683  0.00  0.00    -0.455 OA
BRANCH  25  26
ATOM     26  C   LIG    1      175.213 178.644 169.700  0.00  0.00    +0.332 C 
ATOM     39  O   LIG    1      175.186 179.829 169.411  0.00  0.00    -0.246 OA
BRANCH  26  27
ATOM     27  C   LIG    1      174.430 177.577 169.035  0.00  0.00    +0.092 C 
ATOM     28  C   LIG    1      173.774 176.678 169.781  0.00  0.00    +0.015 C 
BRANCH  28  29
ATOM     29  C   LIG    1      172.956 175.579 169.239  0.00  0.00    -0.021 A 
ATOM     30  C   LIG    1      173.444 174.795 168.195  0.00  0.00    +0.012 A 
ATOM     31  C   LIG    1      172.670 173.754 167.681  0.00  0.00    +0.050 A 
ATOM     32  C   LIG    1      171.405 173.498 168.213  0.00  0.00    +0.158 A 
ATOM     33  C   LIG    1      170.916 174.282 169.258  0.00  0.00    +0.159 A 
ATOM     38  C   LIG    1      171.691 175.322 169.771  0.00  0.00    +0.057 A 
BRANCH  33  34
ATOM     34  O   LIG    1      169.684 174.040 169.785  0.00  0.00    -0.503 OA
ATOM     35  H   LIG    1      169.730 173.250 170.350  0.00  0.00    +0.292 HD
ENDBRANCH  33  34
BRANCH  32  36
ATOM     36  O   LIG    1      170.658 172.480 167.702  0.00  0.00    -0.503 OA
ATOM     37  H   LIG    1      170.351 172.727 166.813  0.00  0.00    +0.292 HD
ENDBRANCH  32  36
ENDBRANCH  28  29
ENDBRANCH  26  27
ENDBRANCH  25  26
ENDBRANCH  24  25
TORSDOF 16
