REMARK VINA RESULT:      -7.1      0.000      0.000
REMARK  Name = 5281769
REMARK                            x       y       z     vdW  Elec       q    Type
REMARK                         _______ _______ _______ _____ _____    ______ ____
ROOT
ATOM     16  C   LIG    1      173.711 176.296 169.875  0.00  0.00    +0.215 C 
ATOM     21  C   LIG    1      173.966 176.780 168.446  0.00  0.00    +0.094 C 
ATOM     22  C   LIG    1      175.261 177.587 168.319  0.00  0.00    +0.151 C 
ATOM     23  C   LIG    1      175.290 178.742 169.323  0.00  0.00    +0.184 C 
ATOM     24  C   LIG    1      175.086 178.257 170.761  0.00  0.00    +0.212 C 
ATOM     44  C   LIG    1      173.794 177.444 170.892  0.00  0.00    +0.107 C 
ENDROOT
BRANCH  16  17
ATOM     17  C   LIG    1      172.370 175.627 169.970  0.00  0.00    +0.349 C 
ATOM     18  O   LIG    1      171.932 175.073 170.968  0.00  0.00    -0.246 OA
BRANCH  17  19
ATOM     19  O   LIG    1      171.706 175.716 168.793  0.00  0.00    -0.478 OA
ATOM     20  H   LIG    1      171.839 174.919 168.236  0.00  0.00    +0.295 HD
ENDBRANCH  17  19
ENDBRANCH  16  17
BRANCH  23  40
ATOM     40  O   LIG    1      176.545 179.412 169.218  0.00  0.00    -0.386 OA
ATOM     41  H   LIG    1      176.413 180.196 168.659  0.00  0.00    +0.210 HD
ENDBRANCH  23  40
BRANCH  22  42
ATOM     42  O   LIG    1      175.336 178.129 167.001  0.00  0.00    -0.389 OA
ATOM     43  H   LIG    1      174.884 177.509 166.403  0.00  0.00    +0.210 HD
ENDBRANCH  22  42
BRANCH  16   1
ATOM      1  O   LIG    1      174.643 175.280 170.227  0.00  0.00    -0.443 OA
BRANCH   1   2
ATOM      2  C   LIG    1      174.896 174.354 169.261  0.00  0.00    +0.333 C 
ATOM     15  O   LIG    1      174.119 173.958 168.406  0.00  0.00    -0.246 OA
BRANCH   2   3
ATOM      3  C   LIG    1      176.295 173.898 169.429  0.00  0.00    +0.092 C 
ATOM      4  C   LIG    1      177.288 174.797 169.424  0.00  0.00    +0.015 C 
BRANCH   4   5
ATOM      5  C   LIG    1      178.715 174.470 169.591  0.00  0.00    -0.021 A 
ATOM      6  C   LIG    1      179.127 173.138 169.622  0.00  0.00    +0.012 A 
ATOM      7  C   LIG    1      180.478 172.828 169.780  0.00  0.00    +0.050 A 
ATOM      8  C   LIG    1      181.418 173.852 169.906  0.00  0.00    +0.158 A 
ATOM      9  C   LIG    1      181.006 175.184 169.874  0.00  0.00    +0.159 A 
ATOM     14  C   LIG    1      179.655 175.493 169.716  0.00  0.00    +0.057 A 
BRANCH   9  10
ATOM     10  O   LIG    1      181.915 176.191 169.995  0.00  0.00    -0.503 OA
ATOM     11  H   LIG    1      182.161 176.288 170.931  0.00  0.00    +0.292 HD
ENDBRANCH   9  10
BRANCH   8  12
ATOM     12  O   LIG    1      182.734 173.536 170.061  0.00  0.00    -0.503 OA
ATOM     13  H   LIG    1      182.845 173.036 170.887  0.00  0.00    +0.292 HD
ENDBRANCH   8  12
ENDBRANCH   4   5
ENDBRANCH   2   3
ENDBRANCH   1   2
ENDBRANCH  16   1
BRANCH  24  25
ATOM     25  O   LIG    1      176.201 177.455 171.149  0.00  0.00    -0.455 OA
BRANCH  25  26
ATOM     26  C   LIG    1      176.460 177.410 172.487  0.00  0.00    +0.332 C 
ATOM     39  O   LIG    1      176.545 178.363 173.245  0.00  0.00    -0.246 OA
BRANCH  26  27
ATOM     27  C   LIG    1      176.625 175.989 172.870  0.00  0.00    +0.092 C 
ATOM     28  C   LIG    1      177.852 175.450 172.894  0.00  0.00    +0.015 C 
BRANCH  28  29
ATOM     29  C   LIG    1      178.145 174.055 173.266  0.00  0.00    -0.021 A 
ATOM     30  C   LIG    1      179.466 173.608 173.307  0.00  0.00    +0.012 A 
ATOM     31  C   LIG    1      179.745 172.287 173.659  0.00  0.00    +0.050 A 
ATOM     32  C   LIG    1      178.702 171.413 173.969  0.00  0.00    +0.158 A 
ATOM     33  C   LIG    1      177.381 171.860 173.927  0.00  0.00    +0.159 A 
ATOM     38  C   LIG    1      177.103 173.180 173.576  0.00  0.00    +0.057 A 
BRANCH  33  34
ATOM     34  O   LIG    1      176.356 171.016 174.229  0.00  0.00    -0.503 OA
ATOM     35  H   LIG    1      176.664 170.097 174.140  0.00  0.00    +0.292 HD
ENDBRANCH  33  34
BRANCH  32  36
ATOM     36  O   LIG    1      178.987 170.125 174.310  0.00  0.00    -0.503 OA
ATOM     37  H   LIG    1      179.920 170.068 174.580  0.00  0.00    +0.292 HD
ENDBRANCH  32  36
ENDBRANCH  28  29
ENDBRANCH  26  27
ENDBRANCH  25  26
ENDBRANCH  24  25
TORSDOF 16
