REMARK VINA RESULT:      -6.9      2.215      3.609
REMARK  Name = 5281769
REMARK                            x       y       z     vdW  Elec       q    Type
REMARK                         _______ _______ _______ _____ _____    ______ ____
ROOT
ATOM     16  C   LIG    1      173.166 173.488 170.807  0.00  0.00    +0.215 C 
ATOM     21  C   LIG    1      172.916 172.948 169.398  0.00  0.00    +0.094 C 
ATOM     22  C   LIG    1      173.344 173.931 168.305  0.00  0.00    +0.151 C 
ATOM     23  C   LIG    1      172.693 175.301 168.512  0.00  0.00    +0.184 C 
ATOM     24  C   LIG    1      172.982 175.869 169.903  0.00  0.00    +0.212 C 
ATOM     44  C   LIG    1      172.561 174.887 171.001  0.00  0.00    +0.107 C 
ENDROOT
BRANCH  16  17
ATOM     17  C   LIG    1      172.610 172.546 171.836  0.00  0.00    +0.349 C 
ATOM     18  O   LIG    1      172.730 172.678 173.045  0.00  0.00    -0.246 OA
BRANCH  17  19
ATOM     19  O   LIG    1      171.956 171.519 171.241  0.00  0.00    -0.478 OA
ATOM     20  H   LIG    1      172.161 171.461 170.283  0.00  0.00    +0.295 HD
ENDBRANCH  17  19
ENDBRANCH  16  17
BRANCH  23  40
ATOM     40  O   LIG    1      173.183 176.199 167.517  0.00  0.00    -0.386 OA
ATOM     41  H   LIG    1      172.431 176.454 166.957  0.00  0.00    +0.210 HD
ENDBRANCH  23  40
BRANCH  22  42
ATOM     42  O   LIG    1      172.930 173.418 167.039  0.00  0.00    -0.389 OA
ATOM     43  H   LIG    1      173.166 174.079 166.365  0.00  0.00    +0.210 HD
ENDBRANCH  22  42
BRANCH  16   1
ATOM      1  O   LIG    1      174.561 173.532 171.080  0.00  0.00    -0.443 OA
BRANCH   1   2
ATOM      2  C   LIG    1      175.269 172.431 170.704  0.00  0.00    +0.333 C 
ATOM     15  O   LIG    1      174.913 171.267 170.793  0.00  0.00    -0.246 OA
BRANCH   2   3
ATOM      3  C   LIG    1      176.567 172.892 170.160  0.00  0.00    +0.092 C 
ATOM      4  C   LIG    1      177.616 173.031 170.981  0.00  0.00    +0.015 C 
BRANCH   4   5
ATOM      5  C   LIG    1      178.958 173.471 170.560  0.00  0.00    -0.021 A 
ATOM      6  C   LIG    1      180.074 173.145 171.330  0.00  0.00    +0.012 A 
ATOM      7  C   LIG    1      181.344 173.562 170.930  0.00  0.00    +0.050 A 
ATOM      8  C   LIG    1      181.497 174.305 169.759  0.00  0.00    +0.158 A 
ATOM      9  C   LIG    1      180.382 174.631 168.989  0.00  0.00    +0.159 A 
ATOM     14  C   LIG    1      179.112 174.214 169.389  0.00  0.00    +0.057 A 
BRANCH   9  10
ATOM     10  O   LIG    1      180.520 175.355 167.843  0.00  0.00    -0.503 OA
ATOM     11  H   LIG    1      179.996 174.938 167.138  0.00  0.00    +0.292 HD
ENDBRANCH   9  10
BRANCH   8  12
ATOM     12  O   LIG    1      182.743 174.707 169.381  0.00  0.00    -0.503 OA
ATOM     13  H   LIG    1      183.215 175.050 170.159  0.00  0.00    +0.292 HD
ENDBRANCH   8  12
ENDBRANCH   4   5
ENDBRANCH   2   3
ENDBRANCH   1   2
ENDBRANCH  16   1
BRANCH  24  25
ATOM     25  O   LIG    1      174.378 176.148 170.016  0.00  0.00    -0.455 OA
BRANCH  25  26
ATOM     26  C   LIG    1      174.701 177.291 170.686  0.00  0.00    +0.332 C 
ATOM     39  O   LIG    1      173.953 178.222 170.941  0.00  0.00    -0.246 OA
BRANCH  26  27
ATOM     27  C   LIG    1      176.133 177.211 171.056  0.00  0.00    +0.092 C 
ATOM     28  C   LIG    1      176.493 176.538 172.157  0.00  0.00    +0.015 C 
BRANCH  28  29
ATOM     29  C   LIG    1      177.882 176.378 172.623  0.00  0.00    -0.021 A 
ATOM     30  C   LIG    1      178.147 175.672 173.796  0.00  0.00    +0.012 A 
ATOM     31  C   LIG    1      179.461 175.521 174.238  0.00  0.00    +0.050 A 
ATOM     32  C   LIG    1      180.511 176.077 173.506  0.00  0.00    +0.158 A 
ATOM     33  C   LIG    1      180.246 176.784 172.333  0.00  0.00    +0.159 A 
ATOM     38  C   LIG    1      178.932 176.935 171.891  0.00  0.00    +0.057 A 
BRANCH  33  34
ATOM     34  O   LIG    1      181.263 177.330 171.611  0.00  0.00    -0.503 OA
ATOM     35  H   LIG    1      181.682 176.634 171.076  0.00  0.00    +0.292 HD
ENDBRANCH  33  34
BRANCH  32  36
ATOM     36  O   LIG    1      181.790 175.923 173.949  0.00  0.00    -0.503 OA
ATOM     37  H   LIG    1      182.306 175.454 173.271  0.00  0.00    +0.292 HD
ENDBRANCH  32  36
ENDBRANCH  28  29
ENDBRANCH  26  27
ENDBRANCH  25  26
ENDBRANCH  24  25
TORSDOF 16
