REMARK VINA RESULT:      -6.8      2.032      4.718
REMARK  Name = 5281769
REMARK                            x       y       z     vdW  Elec       q    Type
REMARK                         _______ _______ _______ _____ _____    ______ ____
ROOT
ATOM     16  C   LIG    1      174.714 176.450 169.373  0.00  0.00    +0.215 C 
ATOM     21  C   LIG    1      173.219 176.626 169.641  0.00  0.00    +0.094 C 
ATOM     22  C   LIG    1      172.610 175.437 170.389  0.00  0.00    +0.151 C 
ATOM     23  C   LIG    1      172.905 174.122 169.663  0.00  0.00    +0.184 C 
ATOM     24  C   LIG    1      174.405 173.916 169.436  0.00  0.00    +0.212 C 
ATOM     44  C   LIG    1      175.021 175.107 168.694  0.00  0.00    +0.107 C 
ENDROOT
BRANCH  16  17
ATOM     17  C   LIG    1      175.231 177.578 168.527  0.00  0.00    +0.349 C 
ATOM     18  O   LIG    1      176.367 177.657 168.082  0.00  0.00    -0.246 OA
BRANCH  17  19
ATOM     19  O   LIG    1      174.265 178.506 168.325  0.00  0.00    -0.478 OA
ATOM     20  H   LIG    1      173.691 178.276 167.563  0.00  0.00    +0.295 HD
ENDBRANCH  17  19
ENDBRANCH  16  17
BRANCH  23  40
ATOM     40  O   LIG    1      172.386 173.041 170.436  0.00  0.00    -0.386 OA
ATOM     41  H   LIG    1      171.533 172.784 170.046  0.00  0.00    +0.210 HD
ENDBRANCH  23  40
BRANCH  22  42
ATOM     42  O   LIG    1      171.194 175.611 170.454  0.00  0.00    -0.389 OA
ATOM     43  H   LIG    1      170.877 175.131 171.238  0.00  0.00    +0.210 HD
ENDBRANCH  22  42
BRANCH  16   1
ATOM      1  O   LIG    1      175.450 176.548 170.587  0.00  0.00    -0.443 OA
BRANCH   1   2
ATOM      2  C   LIG    1      175.546 177.799 171.117  0.00  0.00    +0.333 C 
ATOM     15  O   LIG    1      174.628 178.573 171.334  0.00  0.00    -0.246 OA
BRANCH   2   3
ATOM      3  C   LIG    1      176.977 178.065 171.389  0.00  0.00    +0.092 C 
ATOM      4  C   LIG    1      177.858 177.057 171.340  0.00  0.00    +0.015 C 
BRANCH   4   5
ATOM      5  C   LIG    1      179.306 177.196 171.581  0.00  0.00    -0.021 A 
ATOM      6  C   LIG    1      179.889 176.593 172.694  0.00  0.00    +0.012 A 
ATOM      7  C   LIG    1      181.259 176.725 172.922  0.00  0.00    +0.050 A 
ATOM      8  C   LIG    1      182.046 177.461 172.035  0.00  0.00    +0.158 A 
ATOM      9  C   LIG    1      181.462 178.065 170.922  0.00  0.00    +0.159 A 
ATOM     14  C   LIG    1      180.092 177.932 170.694  0.00  0.00    +0.057 A 
BRANCH   9  10
ATOM     10  O   LIG    1      182.220 178.785 170.049  0.00  0.00    -0.503 OA
ATOM     11  H   LIG    1      181.910 179.707 170.043  0.00  0.00    +0.292 HD
ENDBRANCH   9  10
BRANCH   8  12
ATOM     12  O   LIG    1      183.382 177.584 172.270  0.00  0.00    -0.503 OA
ATOM     13  H   LIG    1      183.789 176.701 172.255  0.00  0.00    +0.292 HD
ENDBRANCH   8  12
ENDBRANCH   4   5
ENDBRANCH   2   3
ENDBRANCH   1   2
ENDBRANCH  16   1
BRANCH  24  25
ATOM     25  O   LIG    1      175.052 173.748 170.697  0.00  0.00    -0.455 OA
BRANCH  25  26
ATOM     26  C   LIG    1      175.736 172.579 170.861  0.00  0.00    +0.332 C 
ATOM     39  O   LIG    1      175.275 171.451 170.791  0.00  0.00    -0.246 OA
BRANCH  26  27
ATOM     27  C   LIG    1      177.150 172.916 171.143  0.00  0.00    +0.092 C 
ATOM     28  C   LIG    1      177.992 173.131 170.124  0.00  0.00    +0.015 C 
BRANCH  28  29
ATOM     29  C   LIG    1      179.415 173.482 170.275  0.00  0.00    -0.021 A 
ATOM     30  C   LIG    1      180.118 173.075 171.409  0.00  0.00    +0.012 A 
ATOM     31  C   LIG    1      181.465 173.407 171.552  0.00  0.00    +0.050 A 
ATOM     32  C   LIG    1      182.110 174.148 170.561  0.00  0.00    +0.158 A 
ATOM     33  C   LIG    1      181.408 174.555 169.426  0.00  0.00    +0.159 A 
ATOM     38  C   LIG    1      180.061 174.223 169.283  0.00  0.00    +0.057 A 
BRANCH  33  34
ATOM     34  O   LIG    1      182.028 175.277 168.452  0.00  0.00    -0.503 OA
ATOM     35  H   LIG    1      182.847 175.658 168.812  0.00  0.00    +0.292 HD
ENDBRANCH  33  34
BRANCH  32  36
ATOM     36  O   LIG    1      183.426 174.467 170.713  0.00  0.00    -0.503 OA
ATOM     37  H   LIG    1      183.530 175.430 170.627  0.00  0.00    +0.292 HD
ENDBRANCH  32  36
ENDBRANCH  28  29
ENDBRANCH  26  27
ENDBRANCH  25  26
ENDBRANCH  24  25
TORSDOF 16
