REMARK VINA RESULT:      -6.9     11.569     14.418
REMARK  Name = 5281769
REMARK                            x       y       z     vdW  Elec       q    Type
REMARK                         _______ _______ _______ _____ _____    ______ ____
ROOT
ATOM     16  C   LIG    1      186.810 186.167 167.572  0.00  0.00    +0.215 C 
ATOM     21  C   LIG    1      187.297 187.598 167.806  0.00  0.00    +0.094 C 
ATOM     22  C   LIG    1      186.369 188.394 168.729  0.00  0.00    +0.151 C 
ATOM     23  C   LIG    1      184.926 188.361 168.219  0.00  0.00    +0.184 C 
ATOM     24  C   LIG    1      184.417 186.930 168.031  0.00  0.00    +0.212 C 
ATOM     44  C   LIG    1      185.345 186.128 167.114  0.00  0.00    +0.107 C 
ENDROOT
BRANCH  16  17
ATOM     17  C   LIG    1      187.679 185.477 166.562  0.00  0.00    +0.349 C 
ATOM     18  O   LIG    1      187.552 184.315 166.204  0.00  0.00    -0.246 OA
BRANCH  17  19
ATOM     19  O   LIG    1      188.634 186.318 166.097  0.00  0.00    -0.478 OA
ATOM     20  H   LIG    1      189.502 185.869 165.999  0.00  0.00    +0.295 HD
ENDBRANCH  17  19
ENDBRANCH  16  17
BRANCH  23  40
ATOM     40  O   LIG    1      184.092 189.047 169.152  0.00  0.00    -0.386 OA
ATOM     41  H   LIG    1      183.197 188.676 169.072  0.00  0.00    +0.210 HD
ENDBRANCH  23  40
BRANCH  22  42
ATOM     42  O   LIG    1      186.808 189.752 168.762  0.00  0.00    -0.389 OA
ATOM     43  H   LIG    1      187.661 189.772 169.229  0.00  0.00    +0.210 HD
ENDBRANCH  22  42
BRANCH  16   1
ATOM      1  O   LIG    1      186.958 185.394 168.758  0.00  0.00    -0.443 OA
BRANCH   1   2
ATOM      2  C   LIG    1      188.079 185.648 169.489  0.00  0.00    +0.333 C 
ATOM     15  O   LIG    1      189.155 186.039 169.066  0.00  0.00    -0.246 OA
BRANCH   2   3
ATOM      3  C   LIG    1      187.766 185.362 170.908  0.00  0.00    +0.092 C 
ATOM      4  C   LIG    1      186.987 186.208 171.596  0.00  0.00    +0.015 C 
BRANCH   4   5
ATOM      5  C   LIG    1      186.597 186.028 173.006  0.00  0.00    -0.021 A 
ATOM      6  C   LIG    1      185.416 186.598 173.481  0.00  0.00    +0.012 A 
ATOM      7  C   LIG    1      185.047 186.428 174.816  0.00  0.00    +0.050 A 
ATOM      8  C   LIG    1      185.860 185.688 175.675  0.00  0.00    +0.158 A 
ATOM      9  C   LIG    1      187.041 185.118 175.200  0.00  0.00    +0.159 A 
ATOM     14  C   LIG    1      187.410 185.288 173.865  0.00  0.00    +0.057 A 
BRANCH   9  10
ATOM     10  O   LIG    1      187.842 184.393 176.030  0.00  0.00    -0.503 OA
ATOM     11  H   LIG    1      187.961 183.502 175.658  0.00  0.00    +0.292 HD
ENDBRANCH   9  10
BRANCH   8  12
ATOM     12  O   LIG    1      185.490 185.531 176.977  0.00  0.00    -0.503 OA
ATOM     13  H   LIG    1      184.937 184.735 177.056  0.00  0.00    +0.292 HD
ENDBRANCH   8  12
ENDBRANCH   4   5
ENDBRANCH   2   3
ENDBRANCH   1   2
ENDBRANCH  16   1
BRANCH  24  25
ATOM     25  O   LIG    1      184.330 186.291 169.305  0.00  0.00    -0.455 OA
BRANCH  25  26
ATOM     26  C   LIG    1      183.136 185.696 169.590  0.00  0.00    +0.332 C 
ATOM     39  O   LIG    1      182.209 185.518 168.816  0.00  0.00    -0.246 OA
BRANCH  26  27
ATOM     27  C   LIG    1      183.155 185.298 171.016  0.00  0.00    +0.092 C 
ATOM     28  C   LIG    1      183.436 184.029 171.343  0.00  0.00    +0.015 C 
BRANCH  28  29
ATOM     29  C   LIG    1      183.495 183.514 172.722  0.00  0.00    -0.021 A 
ATOM     30  C   LIG    1      182.362 183.563 173.534  0.00  0.00    +0.012 A 
ATOM     31  C   LIG    1      182.418 183.075 174.840  0.00  0.00    +0.050 A 
ATOM     32  C   LIG    1      183.608 182.539 175.334  0.00  0.00    +0.158 A 
ATOM     33  C   LIG    1      184.741 182.490 174.522  0.00  0.00    +0.159 A 
ATOM     38  C   LIG    1      184.685 182.977 173.216  0.00  0.00    +0.057 A 
BRANCH  33  34
ATOM     34  O   LIG    1      185.907 181.968 174.993  0.00  0.00    -0.503 OA
ATOM     35  H   LIG    1      185.912 181.008 174.836  0.00  0.00    +0.292 HD
ENDBRANCH  33  34
BRANCH  32  36
ATOM     36  O   LIG    1      183.650 182.067 176.611  0.00  0.00    -0.503 OA
ATOM     37  H   LIG    1      183.318 182.755 177.214  0.00  0.00    +0.292 HD
ENDBRANCH  32  36
ENDBRANCH  28  29
ENDBRANCH  26  27
ENDBRANCH  25  26
ENDBRANCH  24  25
TORSDOF 16
