REMARK  16 active torsions:
REMARK  status: ('A' for Active; 'I' for Inactive)
REMARK    1  A    between atoms: C_2  and  O_12 
REMARK    2  A    between atoms: C_3  and  O_10 
REMARK    3  A    between atoms: C_4  and  O_8 
REMARK    4  A    between atoms: C_5  and  O_6 
REMARK    5  A    between atoms: C_38  and  C_39 
REMARK    6  A    between atoms: O_12  and  C_13 
REMARK    7  A    between atoms: C_16  and  O_22 
REMARK    8  A    between atoms: C_18  and  O_20 
REMARK    9  A    between atoms: C_27  and  C_28 
REMARK   10  A    between atoms: C_31  and  O_35 
REMARK   11  A    between atoms: C_32  and  O_33 
REMARK   12  A    between atoms: C_39  and  O_40 
REMARK   13  A    between atoms: O_40  and  C_41 
REMARK   14  A    between atoms: C_42  and  O_51 
REMARK   15  A    between atoms: C_43  and  O_49 
REMARK   16  A    between atoms: C_44  and  O_47 
ROOT
ATOM      1  O   LIG     1       0.915  -0.122   1.754  0.00  0.00    -0.331 OA
ATOM      2  C   LIG     1       1.528  -1.367   2.082  0.00  0.00     0.340 C 
ATOM      3  C   LIG     1       3.051  -1.234   2.075  0.00  0.00     0.214 C 
ATOM      4  C   LIG     1       3.513  -0.091   2.979  0.00  0.00     0.180 C 
ATOM      5  C   LIG     1       2.720   1.187   2.705  0.00  0.00     0.177 C 
ATOM      6  C   LIG     1       1.216   0.903   2.703  0.00  0.00     0.179 C 
ENDROOT
BRANCH   2   7
ATOM      7  O   LIG     1       1.168  -2.351   1.113  0.00  0.00    -0.453 OA
BRANCH   7   8
ATOM      8  C   LIG     1      -0.070  -2.095   0.566  0.00  0.00     0.214 A 
ATOM      9  C   LIG     1      -0.263  -1.882  -0.749  0.00  0.00     0.181 A 
ATOM     10  O   LIG     1      -1.489  -1.590  -1.326  0.00  0.00    -0.451 OA
ATOM     11  C   LIG     1      -2.595  -1.530  -0.518  0.00  0.00     0.147 A 
ATOM     12  C   LIG     1      -3.816  -1.244  -1.130  0.00  0.00     0.092 A 
ATOM     13  C   LIG     1      -2.537  -1.739   0.858  0.00  0.00     0.109 A 
ATOM     14  C   LIG     1      -4.977  -1.169  -0.360  0.00  0.00     0.124 A 
ATOM     15  C   LIG     1      -4.918  -1.378   1.018  0.00  0.00     0.091 A 
ATOM     16  C   LIG     1      -3.698  -1.664   1.633  0.00  0.00     0.135 A 
ATOM     17  C   LIG     1      -1.237  -2.036   1.479  0.00  0.00     0.238 A 
ATOM     18  O   LIG     1      -1.124  -2.223   2.683  0.00  0.00    -0.283 OA
BRANCH   9  19
ATOM     19  C   LIG     1       0.839  -1.915  -1.726  0.00  0.00     0.025 A 
ATOM     20  C   LIG     1       1.180  -3.113  -2.354  0.00  0.00     0.015 A 
ATOM     21  C   LIG     1       2.223  -3.144  -3.279  0.00  0.00     0.050 A 
ATOM     22  C   LIG     1       2.927  -1.977  -3.576  0.00  0.00     0.158 A 
ATOM     23  C   LIG     1       2.587  -0.779  -2.949  0.00  0.00     0.159 A 
ATOM     24  C   LIG     1       1.543  -0.748  -2.024  0.00  0.00     0.060 A 
BRANCH  22  25
ATOM     25  O   LIG     1       3.945  -2.020  -4.480  0.00  0.00    -0.503 OA
ATOM     26  H   LIG     1       4.100  -1.133  -4.841  0.00  0.00     0.292 HD
ENDBRANCH  22  25
BRANCH  23  27
ATOM     27  O   LIG     1       3.266   0.368  -3.232  0.00  0.00    -0.503 OA
ATOM     28  H   LIG     1       4.142   0.149  -3.589  0.00  0.00     0.292 HD
ENDBRANCH  23  27
ENDBRANCH   9  19
BRANCH  14  29
ATOM     29  O   LIG     1      -6.169  -0.890  -0.955  0.00  0.00    -0.507 OA
ATOM     30  H   LIG     1      -6.865  -0.875  -0.276  0.00  0.00     0.292 HD
ENDBRANCH  14  29
BRANCH  16  31
ATOM     31  O   LIG     1      -3.696  -1.859   2.981  0.00  0.00    -0.506 OA
ATOM     32  H   LIG     1      -4.601  -1.762   3.324  0.00  0.00     0.292 HD
ENDBRANCH  16  31
ENDBRANCH   7   8
ENDBRANCH   2   7
BRANCH   3  33
ATOM     33  O   LIG     1       3.610  -2.462   2.540  0.00  0.00    -0.383 OA
ATOM     34  H   LIG     1       3.297  -2.611   3.448  0.00  0.00     0.210 HD
ENDBRANCH   3  33
BRANCH   6  35
ATOM     35  C   LIG     1       0.408   2.138   2.317  0.00  0.00     0.197 C 
BRANCH  35  36
ATOM     36  O   LIG     1       0.800   2.559   1.018  0.00  0.00    -0.346 OA
BRANCH  36  37
ATOM     37  C   LIG     1       0.076   3.713   0.604  0.00  0.00     0.282 C 
ATOM     38  O   LIG     1      -1.340   3.510   0.638  0.00  0.00    -0.343 OA
ATOM     39  C   LIG     1      -1.812   2.515  -0.277  0.00  0.00     0.149 C 
ATOM     40  C   LIG     1      -1.453   2.881  -1.723  0.00  0.00     0.174 C 
ATOM     41  C   LIG     1      -3.321   2.402  -0.073  0.00  0.00     0.041 C 
ATOM     42  C   LIG     1       0.051   3.128  -1.845  0.00  0.00     0.179 C 
ATOM     43  C   LIG     1       0.528   4.132  -0.794  0.00  0.00     0.201 C 
BRANCH  40  44
ATOM     44  O   LIG     1      -1.800   1.814  -2.603  0.00  0.00    -0.387 OA
ATOM     45  H   LIG     1      -2.770   1.772  -2.652  0.00  0.00     0.210 HD
ENDBRANCH  40  44
BRANCH  42  46
ATOM     46  O   LIG     1       0.342   3.618  -3.152  0.00  0.00    -0.386 OA
ATOM     47  H   LIG     1      -0.095   4.481  -3.249  0.00  0.00     0.210 HD
ENDBRANCH  42  46
BRANCH  43  48
ATOM     48  O   LIG     1      -0.028   5.420  -1.063  0.00  0.00    -0.384 OA
ATOM     49  H   LIG     1      -0.981   5.389  -0.871  0.00  0.00     0.210 HD
ENDBRANCH  43  48
ENDBRANCH  36  37
ENDBRANCH  35  36
ENDBRANCH   6  35
BRANCH   4  50
ATOM     50  O   LIG     1       4.893   0.184   2.730  0.00  0.00    -0.386 OA
ATOM     51  H   LIG     1       5.152   0.921   3.309  0.00  0.00     0.210 HD
ENDBRANCH   4  50
BRANCH   5  52
ATOM     52  O   LIG     1       3.016   2.150   3.713  0.00  0.00    -0.386 OA
ATOM     53  H   LIG     1       2.734   1.786   4.569  0.00  0.00     0.210 HD
ENDBRANCH   5  52
TORSDOF 16
