MODEL 1
REMARK VINA RESULT:   -10.952      0.000      0.000
REMARK INTER + INTRA:         -25.675
REMARK INTER:                 -27.429
REMARK INTRA:                   1.755
REMARK UNBOUND:                 2.564
REMARK WARNING: 32 MAX_TORS EXCEEDED!!!
REMARK  38 active torsions:
REMARK  status: ('A' for Active; 'I' for Inactive)
REMARK    1  A    between atoms: O_2  and  C_27 
REMARK    2  A    between atoms: O_2  and  C_33 
REMARK    3  A    between atoms: O_3  and  C_28 
REMARK    4  A    between atoms: O_3  and  C_34 
REMARK    5  A    between atoms: O_4  and  C_29 
REMARK    6  A    between atoms: O_4  and  C_35 
REMARK    7  A    between atoms: O_5  and  C_31 
REMARK    8  A    between atoms: O_5  and  C_36 
REMARK    9  A    between atoms: O_6  and  C_32 
REMARK   10  A    between atoms: O_6  and  C_39 
REMARK   11  A    between atoms: O_12  and  C_51 
REMARK   12  A    between atoms: O_13  and  C_52 
REMARK   13  A    between atoms: O_14  and  C_53 
REMARK   14  A    between atoms: O_15  and  C_54 
REMARK   15  A    between atoms: O_16  and  C_55 
REMARK   16  A    between atoms: O_17  and  C_56 
REMARK   17  A    between atoms: O_18  and  C_59 
REMARK   18  A    between atoms: O_19  and  C_60 
REMARK   19  A    between atoms: O_20  and  C_61 
REMARK   20  A    between atoms: O_21  and  C_62 
REMARK   21  A    between atoms: O_22  and  C_63 
REMARK   22  A    between atoms: O_23  and  C_64 
REMARK   23  A    between atoms: O_24  and  C_65 
REMARK   24  A    between atoms: O_24  and  C_86 
REMARK   25  A    between atoms: O_25  and  C_66 
REMARK   26  A    between atoms: O_26  and  C_67 
REMARK   27  A    between atoms: C_28  and  C_30 
REMARK   28  A    between atoms: C_29  and  C_31 
REMARK   29  A    between atoms: C_30  and  C_32 
REMARK   30  A    between atoms: C_33  and  C_37 
REMARK   31  A    between atoms: C_34  and  C_38 
REMARK   32  A    between atoms: C_35  and  C_40 
REMARK   33  A    between atoms: C_36  and  C_41 
REMARK   34  A    between atoms: C_39  and  C_42 
REMARK   35  A    between atoms: O_83  and  C_90 
REMARK   36  A    between atoms: O_84  and  C_91 
REMARK   37  A    between atoms: O_85  and  C_92 
REMARK   38  A    between atoms: C_86  and  C_87 
ROOT
HETATM    1  O   UNL     1      80.896  22.436  37.656  1.00  0.00    -0.348 OA
HETATM    2  C   UNL     1      80.163  23.503  37.237  1.00  0.00     0.201 A 
HETATM    3  C   UNL     1      81.585  23.580  37.344  1.00  0.00     0.282 A 
ENDROOT
BRANCH   2   4
HETATM    4  C   UNL     1      80.091  24.172  37.713  1.00  0.00     0.199 A 
HETATM    5  C   UNL     1      78.589  24.581  37.990  1.00  0.00     0.198 A 
HETATM    6  C   UNL     1      79.266  23.438  38.620  1.00  0.00     0.215 A 
BRANCH   4   7
HETATM    7  O   UNL     1      79.935  25.224  36.329  1.00  0.00    -0.306 OA
BRANCH   7   8
HETATM    8  C   UNL     1      80.054  26.397  35.730  1.00  0.00     0.294 C 
HETATM    9  O   UNL     1      80.824  27.265  36.128  1.00  0.00    -0.259 OA
BRANCH   8  10
HETATM   10  C   UNL     1      79.312  26.678  34.514  1.00  0.00     0.045 A 
HETATM   11  C   UNL     1      79.919  26.373  33.290  1.00  0.00     0.057 A 
HETATM   12  C   UNL     1      79.110  26.175  32.180  1.00  0.00     0.102 A 
HETATM   13  C   UNL     1      77.727  26.302  32.291  1.00  0.00     0.132 A 
HETATM   14  C   UNL     1      77.141  26.639  33.507  1.00  0.00     0.102 A 
HETATM   15  C   UNL     1      77.926  26.803  34.634  1.00  0.00     0.057 A 
BRANCH  12  16
HETATM   16  O   UNL     1      79.628  25.776  30.980  1.00  0.00    -0.358 OA
HETATM   17  H   UNL     1      80.553  25.506  31.131  1.00  0.00     0.217 HD
ENDBRANCH  12  16
BRANCH  13  18
HETATM   18  O   UNL     1      76.917  26.025  31.223  1.00  0.00    -0.356 OA
HETATM   19  H   UNL     1      76.777  25.057  31.276  1.00  0.00     0.218 HD
ENDBRANCH  13  18
BRANCH  14  20
HETATM   20  O   UNL     1      75.783  26.729  33.616  1.00  0.00    -0.358 OA
HETATM   21  H   UNL     1      75.466  25.838  33.356  1.00  0.00     0.217 HD
ENDBRANCH  14  20
ENDBRANCH   8  10
ENDBRANCH   7   8
ENDBRANCH   4   7
BRANCH   5  22
HETATM   22  O   UNL     1      78.555  25.832  38.890  1.00  0.00    -0.306 OA
BRANCH  22  23
HETATM   23  C   UNL     1      77.388  26.528  39.142  1.00  0.00     0.294 C 
HETATM   24  O   UNL     1      76.532  26.286  39.984  1.00  0.00    -0.259 OA
BRANCH  23  25
HETATM   25  C   UNL     1      77.172  27.671  38.260  1.00  0.00     0.045 A 
HETATM   26  C   UNL     1      76.042  27.685  37.424  1.00  0.00     0.057 A 
HETATM   27  C   UNL     1      75.851  28.761  36.570  1.00  0.00     0.102 A 
HETATM   28  C   UNL     1      76.788  29.785  36.532  1.00  0.00     0.132 A 
HETATM   29  C   UNL     1      77.956  29.700  37.280  1.00  0.00     0.102 A 
HETATM   30  C   UNL     1      78.168  28.636  38.138  1.00  0.00     0.057 A 
BRANCH  27  31
HETATM   31  O   UNL     1      74.762  28.849  35.752  1.00  0.00    -0.358 OA
HETATM   32  H   UNL     1      74.825  28.148  35.076  1.00  0.00     0.217 HD
ENDBRANCH  27  31
BRANCH  28  33
HETATM   33  O   UNL     1      76.580  30.889  35.752  1.00  0.00    -0.356 OA
HETATM   34  H   UNL     1      76.438  30.523  34.855  1.00  0.00     0.218 HD
ENDBRANCH  28  33
BRANCH  29  35
HETATM   35  O   UNL     1      78.912  30.665  37.179  1.00  0.00    -0.358 OA
HETATM   36  H   UNL     1      78.494  31.378  36.659  1.00  0.00     0.217 HD
ENDBRANCH  29  35
ENDBRANCH  23  25
ENDBRANCH  22  23
ENDBRANCH   5  22
BRANCH   6  37
HETATM   37  O   UNL     1      78.473  22.940  39.973  1.00  0.00    -0.304 OA
BRANCH  37  38
HETATM   38  C   UNL     1      78.841  23.199  41.256  1.00  0.00     0.294 C 
HETATM   39  O   UNL     1      78.539  24.157  41.936  1.00  0.00    -0.259 OA
BRANCH  38  40
HETATM   40  C   UNL     1      79.731  22.116  41.683  1.00  0.00     0.045 A 
HETATM   41  C   UNL     1      79.696  20.936  40.939  1.00  0.00     0.057 A 
HETATM   42  C   UNL     1      80.538  19.898  41.283  1.00  0.00     0.102 A 
HETATM   43  C   UNL     1      81.419  20.036  42.344  1.00  0.00     0.132 A 
HETATM   44  C   UNL     1      81.472  21.228  43.066  1.00  0.00     0.102 A 
HETATM   45  C   UNL     1      80.625  22.283  42.746  1.00  0.00     0.057 A 
BRANCH  42  46
HETATM   46  O   UNL     1      80.496  18.754  40.547  1.00  0.00    -0.358 OA
HETATM   47  H   UNL     1      80.243  18.051  41.176  1.00  0.00     0.217 HD
ENDBRANCH  42  46
BRANCH  43  48
HETATM   48  O   UNL     1      82.252  18.996  42.651  1.00  0.00    -0.356 OA
HETATM   49  H   UNL     1      81.651  18.295  42.975  1.00  0.00     0.218 HD
ENDBRANCH  43  48
BRANCH  44  50
HETATM   50  O   UNL     1      82.397  21.318  44.069  1.00  0.00    -0.358 OA
HETATM   51  H   UNL     1      82.761  20.429  44.228  1.00  0.00     0.217 HD
ENDBRANCH  44  50
ENDBRANCH  38  40
ENDBRANCH  37  38
ENDBRANCH   6  37
ENDBRANCH   2   4
BRANCH   2  52
HETATM   52  C   UNL     1      79.085  23.746  36.002  1.00  0.00     0.216 C 
BRANCH  52  53
HETATM   53  O   UNL     1      79.167  22.582  35.184  1.00  0.00    -0.315 OA
BRANCH  53  54
HETATM   54  C   UNL     1      78.356  22.611  34.117  1.00  0.00     0.293 C 
HETATM   55  O   UNL     1      77.144  22.517  34.128  1.00  0.00    -0.259 OA
BRANCH  54  56
HETATM   56  C   UNL     1      79.225  22.696  32.931  1.00  0.00     0.045 C 
HETATM   57  C   UNL     1      80.621  22.846  33.041  1.00  0.00     0.057 C 
HETATM   58  C   UNL     1      81.404  22.840  31.901  1.00  0.00     0.102 C 
HETATM   59  C   UNL     1      80.832  22.538  30.677  1.00  0.00     0.133 C 
HETATM   60  C   UNL     1      79.463  22.266  30.613  1.00  0.00     0.116 C 
HETATM   61  C   UNL     1      78.624  22.490  31.698  1.00  0.00     0.058 C 
BRANCH  58  62
HETATM   62  O   UNL     1      82.752  23.031  31.999  1.00  0.00    -0.358 OA
HETATM   63  H   UNL     1      82.975  22.715  32.899  1.00  0.00     0.217 HD
ENDBRANCH  58  62
BRANCH  59  64
HETATM   64  O   UNL     1      81.667  22.413  29.604  1.00  0.00    -0.356 OA
HETATM   65  H   UNL     1      81.120  22.435  28.795  1.00  0.00     0.218 HD
ENDBRANCH  59  64
BRANCH  60  66
HETATM   66  O   UNL     1      78.939  21.516  29.560  1.00  0.00    -0.272 OA
BRANCH  66  67
HETATM   67  C   UNL     1      78.796  20.225  30.053  1.00  0.00     0.298 C 
HETATM   68  O   UNL     1      77.774  19.827  30.590  1.00  0.00    -0.259 OA
BRANCH  67  69
HETATM   69  C   UNL     1      80.012  19.378  29.901  1.00  0.00     0.045 A 
HETATM   70  C   UNL     1      80.520  18.701  31.021  1.00  0.00     0.057 A 
HETATM   71  C   UNL     1      81.618  17.861  30.871  1.00  0.00     0.102 A 
HETATM   72  C   UNL     1      82.235  17.727  29.636  1.00  0.00     0.132 A 
HETATM   73  C   UNL     1      81.746  18.427  28.534  1.00  0.00     0.102 A 
HETATM   74  C   UNL     1      80.619  19.239  28.646  1.00  0.00     0.057 A 
BRANCH  71  75
HETATM   75  O   UNL     1      82.056  17.195  31.973  1.00  0.00    -0.358 OA
HETATM   76  H   UNL     1      81.298  16.749  32.407  1.00  0.00     0.217 HD
ENDBRANCH  71  75
BRANCH  72  77
HETATM   77  O   UNL     1      83.330  16.920  29.506  1.00  0.00    -0.356 OA
HETATM   78  H   UNL     1      83.552  16.941  28.552  1.00  0.00     0.218 HD
ENDBRANCH  72  77
BRANCH  73  79
HETATM   79  O   UNL     1      82.421  18.290  27.352  1.00  0.00    -0.358 OA
HETATM   80  H   UNL     1      83.063  19.020  27.278  1.00  0.00     0.217 HD
ENDBRANCH  73  79
ENDBRANCH  67  69
ENDBRANCH  66  67
ENDBRANCH  60  66
ENDBRANCH  54  56
ENDBRANCH  53  54
ENDBRANCH  52  53
ENDBRANCH   2  52
BRANCH   3  81
HETATM   81  O   UNL     1      82.040  23.849  35.873  1.00  0.00    -0.285 OA
BRANCH  81  82
HETATM   82  C   UNL     1      83.138  24.605  35.607  1.00  0.00     0.295 C 
HETATM   83  O   UNL     1      83.357  25.018  34.476  1.00  0.00    -0.259 OA
BRANCH  82  84
HETATM   84  C   UNL     1      83.981  25.038  36.754  1.00  0.00     0.045 A 
HETATM   85  C   UNL     1      85.053  24.268  37.223  1.00  0.00     0.057 A 
HETATM   86  C   UNL     1      85.737  24.679  38.366  1.00  0.00     0.102 A 
HETATM   87  C   UNL     1      85.353  25.826  39.053  1.00  0.00     0.132 A 
HETATM   88  C   UNL     1      84.281  26.581  38.602  1.00  0.00     0.102 A 
HETATM   89  C   UNL     1      83.589  26.194  37.459  1.00  0.00     0.057 A 
BRANCH  86  90
HETATM   90  O   UNL     1      86.786  23.942  38.839  1.00  0.00    -0.358 OA
HETATM   91  H   UNL     1      87.499  24.604  38.967  1.00  0.00     0.217 HD
ENDBRANCH  86  90
BRANCH  87  92
HETATM   92  O   UNL     1      86.036  26.178  40.187  1.00  0.00    -0.356 OA
HETATM   93  H   UNL     1      86.885  26.541  39.855  1.00  0.00     0.218 HD
ENDBRANCH  87  92
BRANCH  88  94
HETATM   94  O   UNL     1      83.930  27.686  39.328  1.00  0.00    -0.358 OA
HETATM   95  H   UNL     1      84.569  27.782  40.059  1.00  0.00     0.217 HD
ENDBRANCH  88  94
ENDBRANCH  82  84
ENDBRANCH  81  82
ENDBRANCH   3  81
TORSDOF 38
ENDMDL
MODEL 2
REMARK VINA RESULT:   -10.677      0.598      1.827
REMARK INTER + INTRA:         -24.965
REMARK INTER:                 -27.254
REMARK INTRA:                   2.289
REMARK UNBOUND:                 2.564
REMARK WARNING: 32 MAX_TORS EXCEEDED!!!
REMARK  38 active torsions:
REMARK  status: ('A' for Active; 'I' for Inactive)
REMARK    1  A    between atoms: O_2  and  C_27 
REMARK    2  A    between atoms: O_2  and  C_33 
REMARK    3  A    between atoms: O_3  and  C_28 
REMARK    4  A    between atoms: O_3  and  C_34 
REMARK    5  A    between atoms: O_4  and  C_29 
REMARK    6  A    between atoms: O_4  and  C_35 
REMARK    7  A    between atoms: O_5  and  C_31 
REMARK    8  A    between atoms: O_5  and  C_36 
REMARK    9  A    between atoms: O_6  and  C_32 
REMARK   10  A    between atoms: O_6  and  C_39 
REMARK   11  A    between atoms: O_12  and  C_51 
REMARK   12  A    between atoms: O_13  and  C_52 
REMARK   13  A    between atoms: O_14  and  C_53 
REMARK   14  A    between atoms: O_15  and  C_54 
REMARK   15  A    between atoms: O_16  and  C_55 
REMARK   16  A    between atoms: O_17  and  C_56 
REMARK   17  A    between atoms: O_18  and  C_59 
REMARK   18  A    between atoms: O_19  and  C_60 
REMARK   19  A    between atoms: O_20  and  C_61 
REMARK   20  A    between atoms: O_21  and  C_62 
REMARK   21  A    between atoms: O_22  and  C_63 
REMARK   22  A    between atoms: O_23  and  C_64 
REMARK   23  A    between atoms: O_24  and  C_65 
REMARK   24  A    between atoms: O_24  and  C_86 
REMARK   25  A    between atoms: O_25  and  C_66 
REMARK   26  A    between atoms: O_26  and  C_67 
REMARK   27  A    between atoms: C_28  and  C_30 
REMARK   28  A    between atoms: C_29  and  C_31 
REMARK   29  A    between atoms: C_30  and  C_32 
REMARK   30  A    between atoms: C_33  and  C_37 
REMARK   31  A    between atoms: C_34  and  C_38 
REMARK   32  A    between atoms: C_35  and  C_40 
REMARK   33  A    between atoms: C_36  and  C_41 
REMARK   34  A    between atoms: C_39  and  C_42 
REMARK   35  A    between atoms: O_83  and  C_90 
REMARK   36  A    between atoms: O_84  and  C_91 
REMARK   37  A    between atoms: O_85  and  C_92 
REMARK   38  A    between atoms: C_86  and  C_87 
ROOT
HETATM    1  O   UNL     1      80.712  22.212  37.445  1.00  0.00    -0.348 OA
HETATM    2  C   UNL     1      80.028  23.317  37.041  1.00  0.00     0.201 A 
HETATM    3  C   UNL     1      81.444  23.353  37.233  1.00  0.00     0.282 A 
ENDROOT
BRANCH   2   4
HETATM    4  C   UNL     1      79.944  23.962  37.547  1.00  0.00     0.199 A 
HETATM    5  C   UNL     1      78.437  24.287  37.895  1.00  0.00     0.198 A 
HETATM    6  C   UNL     1      79.189  23.154  38.452  1.00  0.00     0.215 A 
BRANCH   4   7
HETATM    7  O   UNL     1      79.686  25.061  36.214  1.00  0.00    -0.306 OA
BRANCH   7   8
HETATM    8  C   UNL     1      79.885  26.207  35.587  1.00  0.00     0.294 C 
HETATM    9  O   UNL     1      80.739  27.013  35.941  1.00  0.00    -0.259 OA
BRANCH   8  10
HETATM   10  C   UNL     1      79.129  26.528  34.390  1.00  0.00     0.045 A 
HETATM   11  C   UNL     1      79.741  26.308  33.149  1.00  0.00     0.057 A 
HETATM   12  C   UNL     1      78.933  26.143  32.033  1.00  0.00     0.102 A 
HETATM   13  C   UNL     1      77.548  26.219  32.154  1.00  0.00     0.132 A 
HETATM   14  C   UNL     1      76.956  26.471  33.387  1.00  0.00     0.102 A 
HETATM   15  C   UNL     1      77.740  26.601  34.520  1.00  0.00     0.057 A 
BRANCH  12  16
HETATM   16  O   UNL     1      79.459  25.825  30.812  1.00  0.00    -0.358 OA
HETATM   17  H   UNL     1      78.855  26.173  30.129  1.00  0.00     0.217 HD
ENDBRANCH  12  16
BRANCH  13  18
HETATM   18  O   UNL     1      76.743  25.972  31.075  1.00  0.00    -0.356 OA
HETATM   19  H   UNL     1      76.981  25.062  30.804  1.00  0.00     0.218 HD
ENDBRANCH  13  18
BRANCH  14  20
HETATM   20  O   UNL     1      75.596  26.512  33.504  1.00  0.00    -0.358 OA
HETATM   21  H   UNL     1      75.426  27.358  33.969  1.00  0.00     0.217 HD
ENDBRANCH  14  20
ENDBRANCH   8  10
ENDBRANCH   7   8
ENDBRANCH   4   7
BRANCH   5  22
HETATM   22  O   UNL     1      78.379  25.498  38.847  1.00  0.00    -0.306 OA
BRANCH  22  23
HETATM   23  C   UNL     1      77.223  26.233  39.039  1.00  0.00     0.294 C 
HETATM   24  O   UNL     1      76.259  25.952  39.741  1.00  0.00    -0.259 OA
BRANCH  23  25
HETATM   25  C   UNL     1      77.171  27.474  38.273  1.00  0.00     0.045 A 
HETATM   26  C   UNL     1      78.375  28.099  37.903  1.00  0.00     0.057 A 
HETATM   27  C   UNL     1      78.323  29.290  37.195  1.00  0.00     0.102 A 
HETATM   28  C   UNL     1      77.092  29.859  36.893  1.00  0.00     0.132 A 
HETATM   29  C   UNL     1      75.917  29.289  37.365  1.00  0.00     0.102 A 
HETATM   30  C   UNL     1      75.945  28.101  38.073  1.00  0.00     0.057 A 
BRANCH  27  31
HETATM   31  O   UNL     1      79.453  29.936  36.783  1.00  0.00    -0.358 OA
HETATM   32  H   UNL     1      79.593  29.741  35.837  1.00  0.00     0.217 HD
ENDBRANCH  27  31
BRANCH  28  33
HETATM   33  O   UNL     1      77.019  30.993  36.131  1.00  0.00    -0.356 OA
HETATM   34  H   UNL     1      77.142  30.672  35.215  1.00  0.00     0.218 HD
ENDBRANCH  28  33
BRANCH  29  35
HETATM   35  O   UNL     1      74.717  29.891  37.136  1.00  0.00    -0.358 OA
HETATM   36  H   UNL     1      74.931  30.835  37.005  1.00  0.00     0.217 HD
ENDBRANCH  29  35
ENDBRANCH  23  25
ENDBRANCH  22  23
ENDBRANCH   5  22
BRANCH   6  37
HETATM   37  O   UNL     1      78.472  22.564  39.810  1.00  0.00    -0.304 OA
BRANCH  37  38
HETATM   38  C   UNL     1      78.589  21.297  40.290  1.00  0.00     0.294 C 
HETATM   39  O   UNL     1      77.965  20.314  39.949  1.00  0.00    -0.259 OA
BRANCH  38  40
HETATM   40  C   UNL     1      79.596  21.323  41.354  1.00  0.00     0.045 A 
HETATM   41  C   UNL     1      80.490  20.251  41.408  1.00  0.00     0.057 A 
HETATM   42  C   UNL     1      81.475  20.245  42.373  1.00  0.00     0.102 A 
HETATM   43  C   UNL     1      81.585  21.301  43.266  1.00  0.00     0.132 A 
HETATM   44  C   UNL     1      80.710  22.383  43.189  1.00  0.00     0.102 A 
HETATM   45  C   UNL     1      79.700  22.405  42.233  1.00  0.00     0.057 A 
BRANCH  42  46
HETATM   46  O   UNL     1      82.342  19.198  42.412  1.00  0.00    -0.358 OA
HETATM   47  H   UNL     1      83.149  19.512  41.959  1.00  0.00     0.217 HD
ENDBRANCH  42  46
BRANCH  43  48
HETATM   48  O   UNL     1      82.582  21.273  44.201  1.00  0.00    -0.356 OA
HETATM   49  H   UNL     1      82.792  20.323  44.302  1.00  0.00     0.218 HD
ENDBRANCH  43  48
BRANCH  44  50
HETATM   50  O   UNL     1      80.901  23.414  44.066  1.00  0.00    -0.358 OA
HETATM   51  H   UNL     1      80.082  23.531  44.581  1.00  0.00     0.217 HD
ENDBRANCH  44  50
ENDBRANCH  38  40
ENDBRANCH  37  38
ENDBRANCH   6  37
ENDBRANCH   2   4
BRANCH   2  52
HETATM   52  C   UNL     1      79.030  23.651  35.762  1.00  0.00     0.216 C 
BRANCH  52  53
HETATM   53  O   UNL     1      78.972  22.451  34.996  1.00  0.00    -0.315 OA
BRANCH  53  54
HETATM   54  C   UNL     1      78.205  22.544  33.900  1.00  0.00     0.293 C 
HETATM   55  O   UNL     1      76.991  22.491  33.859  1.00  0.00    -0.259 OA
BRANCH  54  56
HETATM   56  C   UNL     1      79.123  22.640  32.752  1.00  0.00     0.045 C 
HETATM   57  C   UNL     1      80.514  22.782  32.922  1.00  0.00     0.057 C 
HETATM   58  C   UNL     1      81.344  22.788  31.815  1.00  0.00     0.102 C 
HETATM   59  C   UNL     1      80.822  22.504  30.565  1.00  0.00     0.133 C 
HETATM   60  C   UNL     1      79.456  22.240  30.440  1.00  0.00     0.116 C 
HETATM   61  C   UNL     1      78.574  22.453  31.492  1.00  0.00     0.058 C 
BRANCH  58  62
HETATM   62  O   UNL     1      82.688  22.971  31.972  1.00  0.00    -0.358 OA
HETATM   63  H   UNL     1      82.993  23.275  31.092  1.00  0.00     0.217 HD
ENDBRANCH  58  62
BRANCH  59  64
HETATM   64  O   UNL     1      81.702  22.390  29.527  1.00  0.00    -0.356 OA
HETATM   65  H   UNL     1      81.688  23.232  29.031  1.00  0.00     0.218 HD
ENDBRANCH  59  64
BRANCH  60  66
HETATM   66  O   UNL     1      78.973  21.506  29.357  1.00  0.00    -0.272 OA
BRANCH  66  67
HETATM   67  C   UNL     1      78.749  20.224  29.842  1.00  0.00     0.298 C 
HETATM   68  O   UNL     1      77.678  19.867  30.307  1.00  0.00    -0.259 OA
BRANCH  67  69
HETATM   69  C   UNL     1      79.940  19.331  29.775  1.00  0.00     0.045 A 
HETATM   70  C   UNL     1      80.610  19.174  28.551  1.00  0.00     0.057 A 
HETATM   71  C   UNL     1      81.758  18.391  28.497  1.00  0.00     0.102 A 
HETATM   72  C   UNL     1      82.213  17.733  29.630  1.00  0.00     0.132 A 
HETATM   73  C   UNL     1      81.524  17.867  30.835  1.00  0.00     0.102 A 
HETATM   74  C   UNL     1      80.398  18.683  30.929  1.00  0.00     0.057 A 
BRANCH  71  75
HETATM   75  O   UNL     1      82.399  18.294  27.301  1.00  0.00    -0.358 OA
HETATM   76  H   UNL     1      82.570  17.350  27.099  1.00  0.00     0.217 HD
ENDBRANCH  71  75
BRANCH  72  77
HETATM   77  O   UNL     1      83.326  16.944  29.560  1.00  0.00    -0.356 OA
HETATM   78  H   UNL     1      83.993  17.482  29.086  1.00  0.00     0.218 HD
ENDBRANCH  72  77
BRANCH  73  79
HETATM   79  O   UNL     1      81.993  17.161  31.909  1.00  0.00    -0.358 OA
HETATM   80  H   UNL     1      82.891  17.478  32.118  1.00  0.00     0.217 HD
ENDBRANCH  73  79
ENDBRANCH  67  69
ENDBRANCH  66  67
ENDBRANCH  60  66
ENDBRANCH  54  56
ENDBRANCH  53  54
ENDBRANCH  52  53
ENDBRANCH   2  52
BRANCH   3  81
HETATM   81  O   UNL     1      81.989  23.685  35.807  1.00  0.00    -0.285 OA
BRANCH  81  82
HETATM   82  C   UNL     1      83.062  24.504  35.640  1.00  0.00     0.295 C 
HETATM   83  O   UNL     1      83.347  24.950  34.537  1.00  0.00    -0.259 OA
BRANCH  82  84
HETATM   84  C   UNL     1      83.787  24.959  36.858  1.00  0.00     0.045 A 
HETATM   85  C   UNL     1      83.444  26.138  37.532  1.00  0.00     0.057 A 
HETATM   86  C   UNL     1      84.228  26.561  38.604  1.00  0.00     0.102 A 
HETATM   87  C   UNL     1      85.352  25.840  38.993  1.00  0.00     0.132 A 
HETATM   88  C   UNL     1      85.705  24.682  38.317  1.00  0.00     0.102 A 
HETATM   89  C   UNL     1      84.932  24.237  37.249  1.00  0.00     0.057 A 
BRANCH  86  90
HETATM   90  O   UNL     1      83.911  27.708  39.275  1.00  0.00    -0.358 OA
HETATM   91  H   UNL     1      84.761  28.197  39.319  1.00  0.00     0.217 HD
ENDBRANCH  86  90
BRANCH  87  92
HETATM   92  O   UNL     1      86.110  26.306  40.034  1.00  0.00    -0.356 OA
HETATM   93  H   UNL     1      86.451  27.170  39.718  1.00  0.00     0.218 HD
ENDBRANCH  87  92
BRANCH  88  94
HETATM   94  O   UNL     1      86.833  24.024  38.726  1.00  0.00    -0.358 OA
HETATM   95  H   UNL     1      86.621  23.074  38.788  1.00  0.00     0.217 HD
ENDBRANCH  88  94
ENDBRANCH  82  84
ENDBRANCH  81  82
ENDBRANCH   3  81
TORSDOF 38
ENDMDL
MODEL 3
REMARK VINA RESULT:   -10.645      1.843      4.743
REMARK INTER + INTRA:         -24.882
REMARK INTER:                 -27.550
REMARK INTRA:                   2.668
REMARK UNBOUND:                 2.564
REMARK WARNING: 32 MAX_TORS EXCEEDED!!!
REMARK  38 active torsions:
REMARK  status: ('A' for Active; 'I' for Inactive)
REMARK    1  A    between atoms: O_2  and  C_27 
REMARK    2  A    between atoms: O_2  and  C_33 
REMARK    3  A    between atoms: O_3  and  C_28 
REMARK    4  A    between atoms: O_3  and  C_34 
REMARK    5  A    between atoms: O_4  and  C_29 
REMARK    6  A    between atoms: O_4  and  C_35 
REMARK    7  A    between atoms: O_5  and  C_31 
REMARK    8  A    between atoms: O_5  and  C_36 
REMARK    9  A    between atoms: O_6  and  C_32 
REMARK   10  A    between atoms: O_6  and  C_39 
REMARK   11  A    between atoms: O_12  and  C_51 
REMARK   12  A    between atoms: O_13  and  C_52 
REMARK   13  A    between atoms: O_14  and  C_53 
REMARK   14  A    between atoms: O_15  and  C_54 
REMARK   15  A    between atoms: O_16  and  C_55 
REMARK   16  A    between atoms: O_17  and  C_56 
REMARK   17  A    between atoms: O_18  and  C_59 
REMARK   18  A    between atoms: O_19  and  C_60 
REMARK   19  A    between atoms: O_20  and  C_61 
REMARK   20  A    between atoms: O_21  and  C_62 
REMARK   21  A    between atoms: O_22  and  C_63 
REMARK   22  A    between atoms: O_23  and  C_64 
REMARK   23  A    between atoms: O_24  and  C_65 
REMARK   24  A    between atoms: O_24  and  C_86 
REMARK   25  A    between atoms: O_25  and  C_66 
REMARK   26  A    between atoms: O_26  and  C_67 
REMARK   27  A    between atoms: C_28  and  C_30 
REMARK   28  A    between atoms: C_29  and  C_31 
REMARK   29  A    between atoms: C_30  and  C_32 
REMARK   30  A    between atoms: C_33  and  C_37 
REMARK   31  A    between atoms: C_34  and  C_38 
REMARK   32  A    between atoms: C_35  and  C_40 
REMARK   33  A    between atoms: C_36  and  C_41 
REMARK   34  A    between atoms: C_39  and  C_42 
REMARK   35  A    between atoms: O_83  and  C_90 
REMARK   36  A    between atoms: O_84  and  C_91 
REMARK   37  A    between atoms: O_85  and  C_92 
REMARK   38  A    between atoms: C_86  and  C_87 
ROOT
HETATM    1  O   UNL     1      80.856  21.824  36.459  1.00  0.00    -0.348 OA
HETATM    2  C   UNL     1      80.237  22.902  37.014  1.00  0.00     0.201 A 
HETATM    3  C   UNL     1      81.647  22.898  36.782  1.00  0.00     0.282 A 
ENDROOT
BRANCH   2   4
HETATM    4  C   UNL     1      80.367  23.095  37.804  1.00  0.00     0.199 A 
HETATM    5  C   UNL     1      79.034  23.210  38.646  1.00  0.00     0.198 A 
HETATM    6  C   UNL     1      79.631  21.940  38.210  1.00  0.00     0.215 A 
BRANCH   4   7
HETATM    7  O   UNL     1      80.112  24.795  37.500  1.00  0.00    -0.306 OA
BRANCH   7   8
HETATM    8  C   UNL     1      80.131  26.066  37.866  1.00  0.00     0.294 C 
HETATM    9  O   UNL     1      80.247  26.414  39.036  1.00  0.00    -0.259 OA
BRANCH   8  10
HETATM   10  C   UNL     1      80.082  27.116  36.865  1.00  0.00     0.045 A 
HETATM   11  C   UNL     1      79.920  26.740  35.526  1.00  0.00     0.057 A 
HETATM   12  C   UNL     1      79.403  27.670  34.635  1.00  0.00     0.102 A 
HETATM   13  C   UNL     1      79.079  28.953  35.071  1.00  0.00     0.132 A 
HETATM   14  C   UNL     1      79.278  29.323  36.397  1.00  0.00     0.102 A 
HETATM   15  C   UNL     1      79.756  28.400  37.311  1.00  0.00     0.057 A 
BRANCH  12  16
HETATM   16  O   UNL     1      79.124  27.339  33.338  1.00  0.00    -0.358 OA
HETATM   17  H   UNL     1      78.216  27.639  33.144  1.00  0.00     0.217 HD
ENDBRANCH  12  16
BRANCH  13  18
HETATM   18  O   UNL     1      78.490  29.847  34.219  1.00  0.00    -0.356 OA
HETATM   19  H   UNL     1      78.515  29.398  33.349  1.00  0.00     0.218 HD
ENDBRANCH  13  18
BRANCH  14  20
HETATM   20  O   UNL     1      78.928  30.571  36.825  1.00  0.00    -0.358 OA
HETATM   21  H   UNL     1      79.771  30.954  37.147  1.00  0.00     0.217 HD
ENDBRANCH  14  20
ENDBRANCH   8  10
ENDBRANCH   7   8
ENDBRANCH   4   7
BRANCH   5  22
HETATM   22  O   UNL     1      79.377  23.568  40.106  1.00  0.00    -0.306 OA
BRANCH  22  23
HETATM   23  C   UNL     1      78.861  22.865  41.179  1.00  0.00     0.294 C 
HETATM   24  O   UNL     1      77.686  22.627  41.428  1.00  0.00    -0.259 OA
BRANCH  23  25
HETATM   25  C   UNL     1      79.869  22.389  42.120  1.00  0.00     0.045 A 
HETATM   26  C   UNL     1      80.203  23.189  43.227  1.00  0.00     0.057 A 
HETATM   27  C   UNL     1      81.177  22.744  44.108  1.00  0.00     0.102 A 
HETATM   28  C   UNL     1      81.825  21.539  43.868  1.00  0.00     0.132 A 
HETATM   29  C   UNL     1      81.564  20.816  42.711  1.00  0.00     0.102 A 
HETATM   30  C   UNL     1      80.596  21.241  41.818  1.00  0.00     0.057 A 
BRANCH  27  31
HETATM   31  O   UNL     1      81.531  23.460  45.215  1.00  0.00    -0.358 OA
HETATM   32  H   UNL     1      82.439  23.795  45.090  1.00  0.00     0.217 HD
ENDBRANCH  27  31
BRANCH  28  33
HETATM   33  O   UNL     1      82.733  21.048  44.765  1.00  0.00    -0.356 OA
HETATM   34  H   UNL     1      82.893  20.130  44.463  1.00  0.00     0.218 HD
ENDBRANCH  28  33
BRANCH  29  35
HETATM   35  O   UNL     1      82.257  19.677  42.437  1.00  0.00    -0.358 OA
HETATM   36  H   UNL     1      81.674  19.165  41.844  1.00  0.00     0.217 HD
ENDBRANCH  29  35
ENDBRANCH  23  25
ENDBRANCH  22  23
ENDBRANCH   5  22
BRANCH   6  37
HETATM   37  O   UNL     1      79.051  20.671  39.082  1.00  0.00    -0.304 OA
BRANCH  37  38
HETATM   38  C   UNL     1      78.243  19.682  38.614  1.00  0.00     0.294 C 
HETATM   39  O   UNL     1      77.386  19.766  37.759  1.00  0.00    -0.259 OA
BRANCH  38  40
HETATM   40  C   UNL     1      78.556  18.467  39.369  1.00  0.00     0.045 A 
HETATM   41  C   UNL     1      77.698  17.378  39.204  1.00  0.00     0.057 A 
HETATM   42  C   UNL     1      77.968  16.201  39.871  1.00  0.00     0.102 A 
HETATM   43  C   UNL     1      79.090  16.097  40.679  1.00  0.00     0.132 A 
HETATM   44  C   UNL     1      79.962  17.177  40.816  1.00  0.00     0.102 A 
HETATM   45  C   UNL     1      79.703  18.378  40.165  1.00  0.00     0.057 A 
BRANCH  42  46
HETATM   46  O   UNL     1      77.126  15.147  39.699  1.00  0.00    -0.358 OA
HETATM   47  H   UNL     1      76.906  15.144  38.747  1.00  0.00     0.217 HD
ENDBRANCH  42  46
BRANCH  43  48
HETATM   48  O   UNL     1      79.340  14.912  41.313  1.00  0.00    -0.356 OA
HETATM   49  H   UNL     1      78.466  14.633  41.655  1.00  0.00     0.218 HD
ENDBRANCH  43  48
BRANCH  44  50
HETATM   50  O   UNL     1      81.075  16.996  41.588  1.00  0.00    -0.358 OA
HETATM   51  H   UNL     1      81.858  17.059  41.012  1.00  0.00     0.217 HD
ENDBRANCH  44  50
ENDBRANCH  38  40
ENDBRANCH  37  38
ENDBRANCH   6  37
ENDBRANCH   2   4
BRANCH   2  52
HETATM   52  C   UNL     1      78.994  23.887  36.538  1.00  0.00     0.216 C 
BRANCH  52  53
HETATM   53  O   UNL     1      78.347  23.203  35.468  1.00  0.00    -0.315 OA
BRANCH  53  54
HETATM   54  C   UNL     1      78.252  23.924  34.342  1.00  0.00     0.293 C 
HETATM   55  O   UNL     1      77.456  24.815  34.118  1.00  0.00    -0.259 OA
BRANCH  54  56
HETATM   56  C   UNL     1      79.244  23.371  33.404  1.00  0.00     0.045 C 
HETATM   57  C   UNL     1      80.319  24.140  32.918  1.00  0.00     0.057 C 
HETATM   58  C   UNL     1      81.270  23.553  32.103  1.00  0.00     0.102 C 
HETATM   59  C   UNL     1      81.245  22.185  31.893  1.00  0.00     0.133 C 
HETATM   60  C   UNL     1      80.239  21.423  32.493  1.00  0.00     0.116 C 
HETATM   61  C   UNL     1      79.151  22.016  33.120  1.00  0.00     0.058 C 
BRANCH  58  62
HETATM   62  O   UNL     1      82.289  24.306  31.593  1.00  0.00    -0.358 OA
HETATM   63  H   UNL     1      82.181  25.180  32.023  1.00  0.00     0.217 HD
ENDBRANCH  58  62
BRANCH  59  64
HETATM   64  O   UNL     1      82.280  21.636  31.192  1.00  0.00    -0.356 OA
HETATM   65  H   UNL     1      81.911  20.946  30.607  1.00  0.00     0.218 HD
ENDBRANCH  59  64
BRANCH  60  66
HETATM   66  O   UNL     1      80.424  20.058  32.716  1.00  0.00    -0.272 OA
BRANCH  66  67
HETATM   67  C   UNL     1      79.664  19.413  31.749  1.00  0.00     0.298 C 
HETATM   68  O   UNL     1      78.485  19.134  31.907  1.00  0.00    -0.259 OA
BRANCH  67  69
HETATM   69  C   UNL     1      80.421  19.059  30.515  1.00  0.00     0.045 A 
HETATM   70  C   UNL     1      81.591  18.292  30.627  1.00  0.00     0.057 A 
HETATM   71  C   UNL     1      82.268  17.907  29.474  1.00  0.00     0.102 A 
HETATM   72  C   UNL     1      81.817  18.315  28.227  1.00  0.00     0.132 A 
HETATM   73  C   UNL     1      80.672  19.104  28.125  1.00  0.00     0.102 A 
HETATM   74  C   UNL     1      79.948  19.465  29.261  1.00  0.00     0.057 A 
BRANCH  71  75
HETATM   75  O   UNL     1      83.376  17.134  29.623  1.00  0.00    -0.358 OA
HETATM   76  H   UNL     1      84.170  17.708  29.672  1.00  0.00     0.217 HD
ENDBRANCH  71  75
BRANCH  72  77
HETATM   77  O   UNL     1      82.504  17.955  27.103  1.00  0.00    -0.356 OA
HETATM   78  H   UNL     1      82.897  17.082  27.310  1.00  0.00     0.218 HD
ENDBRANCH  72  77
BRANCH  73  79
HETATM   79  O   UNL     1      80.300  19.513  26.874  1.00  0.00    -0.358 OA
HETATM   80  H   UNL     1      80.020  18.730  26.365  1.00  0.00     0.217 HD
ENDBRANCH  73  79
ENDBRANCH  67  69
ENDBRANCH  66  67
ENDBRANCH  60  66
ENDBRANCH  54  56
ENDBRANCH  53  54
ENDBRANCH  52  53
ENDBRANCH   2  52
BRANCH   3  81
HETATM   81  O   UNL     1      81.844  24.066  35.763  1.00  0.00    -0.285 OA
BRANCH  81  82
HETATM   82  C   UNL     1      83.050  24.680  35.627  1.00  0.00     0.295 C 
HETATM   83  O   UNL     1      83.461  25.020  34.526  1.00  0.00    -0.259 OA
BRANCH  82  84
HETATM   84  C   UNL     1      83.782  25.059  36.866  1.00  0.00     0.045 A 
HETATM   85  C   UNL     1      83.487  26.230  37.577  1.00  0.00     0.057 A 
HETATM   86  C   UNL     1      84.278  26.579  38.669  1.00  0.00     0.102 A 
HETATM   87  C   UNL     1      85.365  25.795  39.043  1.00  0.00     0.132 A 
HETATM   88  C   UNL     1      85.671  24.646  38.331  1.00  0.00     0.102 A 
HETATM   89  C   UNL     1      84.889  24.273  37.242  1.00  0.00     0.057 A 
BRANCH  86  90
HETATM   90  O   UNL     1      84.007  27.717  39.377  1.00  0.00    -0.358 OA
HETATM   91  H   UNL     1      84.546  27.621  40.191  1.00  0.00     0.217 HD
ENDBRANCH  86  90
BRANCH  87  92
HETATM   92  O   UNL     1      86.132  26.191  40.106  1.00  0.00    -0.356 OA
HETATM   93  H   UNL     1      85.557  26.047  40.887  1.00  0.00     0.218 HD
ENDBRANCH  87  92
BRANCH  88  94
HETATM   94  O   UNL     1      86.764  23.923  38.726  1.00  0.00    -0.358 OA
HETATM   95  H   UNL     1      86.790  23.927  39.701  1.00  0.00     0.217 HD
ENDBRANCH  88  94
ENDBRANCH  82  84
ENDBRANCH  81  82
ENDBRANCH   3  81
TORSDOF 38
ENDMDL
MODEL 4
REMARK VINA RESULT:   -10.615      1.773      5.142
REMARK INTER + INTRA:         -24.806
REMARK INTER:                 -26.210
REMARK INTRA:                   1.404
REMARK UNBOUND:                 2.564
REMARK WARNING: 32 MAX_TORS EXCEEDED!!!
REMARK  38 active torsions:
REMARK  status: ('A' for Active; 'I' for Inactive)
REMARK    1  A    between atoms: O_2  and  C_27 
REMARK    2  A    between atoms: O_2  and  C_33 
REMARK    3  A    between atoms: O_3  and  C_28 
REMARK    4  A    between atoms: O_3  and  C_34 
REMARK    5  A    between atoms: O_4  and  C_29 
REMARK    6  A    between atoms: O_4  and  C_35 
REMARK    7  A    between atoms: O_5  and  C_31 
REMARK    8  A    between atoms: O_5  and  C_36 
REMARK    9  A    between atoms: O_6  and  C_32 
REMARK   10  A    between atoms: O_6  and  C_39 
REMARK   11  A    between atoms: O_12  and  C_51 
REMARK   12  A    between atoms: O_13  and  C_52 
REMARK   13  A    between atoms: O_14  and  C_53 
REMARK   14  A    between atoms: O_15  and  C_54 
REMARK   15  A    between atoms: O_16  and  C_55 
REMARK   16  A    between atoms: O_17  and  C_56 
REMARK   17  A    between atoms: O_18  and  C_59 
REMARK   18  A    between atoms: O_19  and  C_60 
REMARK   19  A    between atoms: O_20  and  C_61 
REMARK   20  A    between atoms: O_21  and  C_62 
REMARK   21  A    between atoms: O_22  and  C_63 
REMARK   22  A    between atoms: O_23  and  C_64 
REMARK   23  A    between atoms: O_24  and  C_65 
REMARK   24  A    between atoms: O_24  and  C_86 
REMARK   25  A    between atoms: O_25  and  C_66 
REMARK   26  A    between atoms: O_26  and  C_67 
REMARK   27  A    between atoms: C_28  and  C_30 
REMARK   28  A    between atoms: C_29  and  C_31 
REMARK   29  A    between atoms: C_30  and  C_32 
REMARK   30  A    between atoms: C_33  and  C_37 
REMARK   31  A    between atoms: C_34  and  C_38 
REMARK   32  A    between atoms: C_35  and  C_40 
REMARK   33  A    between atoms: C_36  and  C_41 
REMARK   34  A    between atoms: C_39  and  C_42 
REMARK   35  A    between atoms: O_83  and  C_90 
REMARK   36  A    between atoms: O_84  and  C_91 
REMARK   37  A    between atoms: O_85  and  C_92 
REMARK   38  A    between atoms: C_86  and  C_87 
ROOT
HETATM    1  O   UNL     1      80.949  21.929  36.501  1.00  0.00    -0.348 OA
HETATM    2  C   UNL     1      80.273  22.974  37.053  1.00  0.00     0.201 A 
HETATM    3  C   UNL     1      81.685  23.037  36.841  1.00  0.00     0.282 A 
ENDROOT
BRANCH   2   4
HETATM    4  C   UNL     1      80.384  23.169  37.846  1.00  0.00     0.199 A 
HETATM    5  C   UNL     1      79.032  23.249  38.662  1.00  0.00     0.198 A 
HETATM    6  C   UNL     1      79.668  21.995  38.235  1.00  0.00     0.215 A 
BRANCH   4   7
HETATM    7  O   UNL     1      80.092  24.863  37.540  1.00  0.00    -0.306 OA
BRANCH   7   8
HETATM    8  C   UNL     1      80.143  26.139  37.879  1.00  0.00     0.294 C 
HETATM    9  O   UNL     1      80.314  26.508  39.036  1.00  0.00    -0.259 OA
BRANCH   8  10
HETATM   10  C   UNL     1      80.065  27.172  36.861  1.00  0.00     0.045 A 
HETATM   11  C   UNL     1      79.919  26.769  35.528  1.00  0.00     0.057 A 
HETATM   12  C   UNL     1      79.377  27.667  34.620  1.00  0.00     0.102 A 
HETATM   13  C   UNL     1      79.011  28.946  35.034  1.00  0.00     0.132 A 
HETATM   14  C   UNL     1      79.194  29.343  36.355  1.00  0.00     0.102 A 
HETATM   15  C   UNL     1      79.697  28.451  37.285  1.00  0.00     0.057 A 
BRANCH  12  16
HETATM   16  O   UNL     1      79.113  27.306  33.329  1.00  0.00    -0.358 OA
HETATM   17  H   UNL     1      78.590  26.483  33.351  1.00  0.00     0.217 HD
ENDBRANCH  12  16
BRANCH  13  18
HETATM   18  O   UNL     1      78.398  29.807  34.166  1.00  0.00    -0.356 OA
HETATM   19  H   UNL     1      77.474  29.853  34.489  1.00  0.00     0.218 HD
ENDBRANCH  13  18
BRANCH  14  20
HETATM   20  O   UNL     1      78.803  30.587  36.761  1.00  0.00    -0.358 OA
HETATM   21  H   UNL     1      79.488  30.846  37.414  1.00  0.00     0.217 HD
ENDBRANCH  14  20
ENDBRANCH   8  10
ENDBRANCH   7   8
ENDBRANCH   4   7
BRANCH   5  22
HETATM   22  O   UNL     1      79.338  23.611  40.128  1.00  0.00    -0.306 OA
BRANCH  22  23
HETATM   23  C   UNL     1      78.884  22.849  41.188  1.00  0.00     0.294 C 
HETATM   24  O   UNL     1      77.733  22.510  41.434  1.00  0.00    -0.259 OA
BRANCH  23  25
HETATM   25  C   UNL     1      79.930  22.437  42.119  1.00  0.00     0.045 A 
HETATM   26  C   UNL     1      80.526  21.175  41.962  1.00  0.00     0.057 A 
HETATM   27  C   UNL     1      81.504  20.777  42.861  1.00  0.00     0.102 A 
HETATM   28  C   UNL     1      81.854  21.613  43.914  1.00  0.00     0.132 A 
HETATM   29  C   UNL     1      81.175  22.807  44.121  1.00  0.00     0.102 A 
HETATM   30  C   UNL     1      80.196  23.224  43.236  1.00  0.00     0.057 A 
BRANCH  27  31
HETATM   31  O   UNL     1      82.141  19.575  42.751  1.00  0.00    -0.358 OA
HETATM   32  H   UNL     1      82.353  19.421  41.811  1.00  0.00     0.217 HD
ENDBRANCH  27  31
BRANCH  28  33
HETATM   33  O   UNL     1      82.868  21.271  44.766  1.00  0.00    -0.356 OA
HETATM   34  H   UNL     1      82.692  21.804  45.569  1.00  0.00     0.218 HD
ENDBRANCH  28  33
BRANCH  29  35
HETATM   35  O   UNL     1      81.463  23.587  45.199  1.00  0.00    -0.358 OA
HETATM   36  H   UNL     1      82.349  23.956  45.012  1.00  0.00     0.217 HD
ENDBRANCH  29  35
ENDBRANCH  23  25
ENDBRANCH  22  23
ENDBRANCH   5  22
BRANCH   6  37
HETATM   37  O   UNL     1      79.103  20.710  39.093  1.00  0.00    -0.304 OA
BRANCH  37  38
HETATM   38  C   UNL     1      77.842  20.203  39.037  1.00  0.00     0.294 C 
HETATM   39  O   UNL     1      77.178  19.761  39.951  1.00  0.00    -0.259 OA
BRANCH  38  40
HETATM   40  C   UNL     1      77.420  20.235  37.634  1.00  0.00     0.045 A 
HETATM   41  C   UNL     1      78.146  19.451  36.735  1.00  0.00     0.057 A 
HETATM   42  C   UNL     1      77.768  19.424  35.408  1.00  0.00     0.102 A 
HETATM   43  C   UNL     1      76.669  20.154  34.980  1.00  0.00     0.132 A 
HETATM   44  C   UNL     1      75.930  20.911  35.887  1.00  0.00     0.102 A 
HETATM   45  C   UNL     1      76.299  20.964  37.227  1.00  0.00     0.057 A 
BRANCH  42  46
HETATM   46  O   UNL     1      78.481  18.653  34.544  1.00  0.00    -0.358 OA
HETATM   47  H   UNL     1      77.868  18.455  33.809  1.00  0.00     0.217 HD
ENDBRANCH  42  46
BRANCH  43  48
HETATM   48  O   UNL     1      76.310  20.094  33.663  1.00  0.00    -0.356 OA
HETATM   49  H   UNL     1      75.596  20.759  33.578  1.00  0.00     0.218 HD
ENDBRANCH  43  48
BRANCH  44  50
HETATM   50  O   UNL     1      74.829  21.569  35.411  1.00  0.00    -0.358 OA
HETATM   51  H   UNL     1      74.087  21.397  36.018  1.00  0.00     0.217 HD
ENDBRANCH  44  50
ENDBRANCH  38  40
ENDBRANCH  37  38
ENDBRANCH   6  37
ENDBRANCH   2   4
BRANCH   2  52
HETATM   52  C   UNL     1      78.992  23.903  36.564  1.00  0.00     0.216 C 
BRANCH  52  53
HETATM   53  O   UNL     1      78.394  23.197  35.481  1.00  0.00    -0.315 OA
BRANCH  53  54
HETATM   54  C   UNL     1      78.276  23.922  34.359  1.00  0.00     0.293 C 
HETATM   55  O   UNL     1      77.478  24.816  34.157  1.00  0.00    -0.259 OA
BRANCH  54  56
HETATM   56  C   UNL     1      79.246  23.369  33.398  1.00  0.00     0.045 C 
HETATM   57  C   UNL     1      80.324  24.131  32.907  1.00  0.00     0.057 C 
HETATM   58  C   UNL     1      81.254  23.544  32.068  1.00  0.00     0.102 C 
HETATM   59  C   UNL     1      81.205  22.179  31.838  1.00  0.00     0.133 C 
HETATM   60  C   UNL     1      80.199  21.422  32.442  1.00  0.00     0.116 C 
HETATM   61  C   UNL     1      79.129  22.021  33.096  1.00  0.00     0.058 C 
BRANCH  58  62
HETATM   62  O   UNL     1      82.274  24.290  31.553  1.00  0.00    -0.358 OA
HETATM   63  H   UNL     1      82.248  25.122  32.069  1.00  0.00     0.217 HD
ENDBRANCH  58  62
BRANCH  59  64
HETATM   64  O   UNL     1      82.222  21.626  31.113  1.00  0.00    -0.356 OA
HETATM   65  H   UNL     1      82.846  21.215  31.741  1.00  0.00     0.218 HD
ENDBRANCH  59  64
BRANCH  60  66
HETATM   66  O   UNL     1      80.368  20.052  32.642  1.00  0.00    -0.272 OA
BRANCH  66  67
HETATM   67  C   UNL     1      79.612  19.432  31.655  1.00  0.00     0.298 C 
HETATM   68  O   UNL     1      78.412  19.230  31.765  1.00  0.00    -0.259 OA
BRANCH  67  69
HETATM   69  C   UNL     1      80.399  19.003  30.464  1.00  0.00     0.045 A 
HETATM   70  C   UNL     1      79.987  19.417  29.187  1.00  0.00     0.057 A 
HETATM   71  C   UNL     1      80.752  19.071  28.078  1.00  0.00     0.102 A 
HETATM   72  C   UNL     1      81.887  18.287  28.226  1.00  0.00     0.132 A 
HETATM   73  C   UNL     1      82.272  17.852  29.493  1.00  0.00     0.102 A 
HETATM   74  C   UNL     1      81.550  18.223  30.627  1.00  0.00     0.057 A 
BRANCH  71  75
HETATM   75  O   UNL     1      80.340  19.522  26.863  1.00  0.00    -0.358 OA
HETATM   76  H   UNL     1      81.116  19.620  26.272  1.00  0.00     0.217 HD
ENDBRANCH  71  75
BRANCH  72  77
HETATM   77  O   UNL     1      82.616  17.929  27.128  1.00  0.00    -0.356 OA
HETATM   78  H   UNL     1      83.515  18.282  27.290  1.00  0.00     0.218 HD
ENDBRANCH  72  77
BRANCH  73  79
HETATM   79  O   UNL     1      83.373  17.045  29.573  1.00  0.00    -0.358 OA
HETATM   80  H   UNL     1      83.103  16.193  29.964  1.00  0.00     0.217 HD
ENDBRANCH  73  79
ENDBRANCH  67  69
ENDBRANCH  66  67
ENDBRANCH  60  66
ENDBRANCH  54  56
ENDBRANCH  53  54
ENDBRANCH  52  53
ENDBRANCH   2  52
BRANCH   3  81
HETATM   81  O   UNL     1      81.841  24.218  35.830  1.00  0.00    -0.285 OA
BRANCH  81  82
HETATM   82  C   UNL     1      83.063  24.752  35.560  1.00  0.00     0.295 C 
HETATM   83  O   UNL     1      83.391  25.023  34.413  1.00  0.00    -0.259 OA
BRANCH  82  84
HETATM   84  C   UNL     1      83.926  25.133  36.711  1.00  0.00     0.045 A 
HETATM   85  C   UNL     1      84.983  24.324  37.150  1.00  0.00     0.057 A 
HETATM   86  C   UNL     1      85.686  24.687  38.296  1.00  0.00     0.102 A 
HETATM   87  C   UNL     1      85.337  25.825  39.017  1.00  0.00     0.132 A 
HETATM   88  C   UNL     1      84.281  26.618  38.597  1.00  0.00     0.102 A 
HETATM   89  C   UNL     1      83.569  26.278  37.450  1.00  0.00     0.057 A 
BRANCH  86  90
HETATM   90  O   UNL     1      86.721  23.912  38.741  1.00  0.00    -0.358 OA
HETATM   91  H   UNL     1      87.320  23.854  37.966  1.00  0.00     0.217 HD
ENDBRANCH  86  90
BRANCH  87  92
HETATM   92  O   UNL     1      86.038  26.130  40.154  1.00  0.00    -0.356 OA
HETATM   93  H   UNL     1      86.927  26.387  39.828  1.00  0.00     0.218 HD
ENDBRANCH  87  92
BRANCH  88  94
HETATM   94  O   UNL     1      83.964  27.712  39.355  1.00  0.00    -0.358 OA
HETATM   95  H   UNL     1      84.740  27.933  39.903  1.00  0.00     0.217 HD
ENDBRANCH  88  94
ENDBRANCH  82  84
ENDBRANCH  81  82
ENDBRANCH   3  81
TORSDOF 38
ENDMDL
MODEL 5
REMARK VINA RESULT:   -10.593      1.369      2.449
REMARK INTER + INTRA:         -24.750
REMARK INTER:                 -26.700
REMARK INTRA:                   1.949
REMARK UNBOUND:                 2.564
REMARK WARNING: 32 MAX_TORS EXCEEDED!!!
REMARK  38 active torsions:
REMARK  status: ('A' for Active; 'I' for Inactive)
REMARK    1  A    between atoms: O_2  and  C_27 
REMARK    2  A    between atoms: O_2  and  C_33 
REMARK    3  A    between atoms: O_3  and  C_28 
REMARK    4  A    between atoms: O_3  and  C_34 
REMARK    5  A    between atoms: O_4  and  C_29 
REMARK    6  A    between atoms: O_4  and  C_35 
REMARK    7  A    between atoms: O_5  and  C_31 
REMARK    8  A    between atoms: O_5  and  C_36 
REMARK    9  A    between atoms: O_6  and  C_32 
REMARK   10  A    between atoms: O_6  and  C_39 
REMARK   11  A    between atoms: O_12  and  C_51 
REMARK   12  A    between atoms: O_13  and  C_52 
REMARK   13  A    between atoms: O_14  and  C_53 
REMARK   14  A    between atoms: O_15  and  C_54 
REMARK   15  A    between atoms: O_16  and  C_55 
REMARK   16  A    between atoms: O_17  and  C_56 
REMARK   17  A    between atoms: O_18  and  C_59 
REMARK   18  A    between atoms: O_19  and  C_60 
REMARK   19  A    between atoms: O_20  and  C_61 
REMARK   20  A    between atoms: O_21  and  C_62 
REMARK   21  A    between atoms: O_22  and  C_63 
REMARK   22  A    between atoms: O_23  and  C_64 
REMARK   23  A    between atoms: O_24  and  C_65 
REMARK   24  A    between atoms: O_24  and  C_86 
REMARK   25  A    between atoms: O_25  and  C_66 
REMARK   26  A    between atoms: O_26  and  C_67 
REMARK   27  A    between atoms: C_28  and  C_30 
REMARK   28  A    between atoms: C_29  and  C_31 
REMARK   29  A    between atoms: C_30  and  C_32 
REMARK   30  A    between atoms: C_33  and  C_37 
REMARK   31  A    between atoms: C_34  and  C_38 
REMARK   32  A    between atoms: C_35  and  C_40 
REMARK   33  A    between atoms: C_36  and  C_41 
REMARK   34  A    between atoms: C_39  and  C_42 
REMARK   35  A    between atoms: O_83  and  C_90 
REMARK   36  A    between atoms: O_84  and  C_91 
REMARK   37  A    between atoms: O_85  and  C_92 
REMARK   38  A    between atoms: C_86  and  C_87 
ROOT
HETATM    1  O   UNL     1      80.739  22.578  37.790  1.00  0.00    -0.348 OA
HETATM    2  C   UNL     1      80.098  23.705  37.376  1.00  0.00     0.201 A 
HETATM    3  C   UNL     1      81.523  23.655  37.463  1.00  0.00     0.282 A 
ENDROOT
BRANCH   2   4
HETATM    4  C   UNL     1      80.092  24.379  37.850  1.00  0.00     0.199 A 
HETATM    5  C   UNL     1      78.636  24.859  38.234  1.00  0.00     0.198 A 
HETATM    6  C   UNL     1      79.304  23.689  38.822  1.00  0.00     0.215 A 
BRANCH   4   7
HETATM    7  O   UNL     1      79.882  25.429  36.471  1.00  0.00    -0.306 OA
BRANCH   7   8
HETATM    8  C   UNL     1      80.062  26.573  35.832  1.00  0.00     0.294 C 
HETATM    9  O   UNL     1      80.682  27.511  36.321  1.00  0.00    -0.259 OA
BRANCH   8  10
HETATM   10  C   UNL     1      79.579  26.736  34.473  1.00  0.00     0.045 A 
HETATM   11  C   UNL     1      80.311  26.137  33.440  1.00  0.00     0.057 A 
HETATM   12  C   UNL     1      79.664  25.862  32.244  1.00  0.00     0.102 A 
HETATM   13  C   UNL     1      78.323  26.201  32.079  1.00  0.00     0.132 A 
HETATM   14  C   UNL     1      77.619  26.827  33.102  1.00  0.00     0.102 A 
HETATM   15  C   UNL     1      78.233  27.076  34.317  1.00  0.00     0.057 A 
BRANCH  12  16
HETATM   16  O   UNL     1      80.290  25.188  31.232  1.00  0.00    -0.358 OA
HETATM   17  H   UNL     1      80.680  25.850  30.631  1.00  0.00     0.217 HD
ENDBRANCH  12  16
BRANCH  13  18
HETATM   18  O   UNL     1      77.657  25.857  30.934  1.00  0.00    -0.356 OA
HETATM   19  H   UNL     1      78.316  25.347  30.419  1.00  0.00     0.218 HD
ENDBRANCH  13  18
BRANCH  14  20
HETATM   20  O   UNL     1      76.296  27.127  32.945  1.00  0.00    -0.358 OA
HETATM   21  H   UNL     1      75.991  26.493  32.261  1.00  0.00     0.217 HD
ENDBRANCH  14  20
ENDBRANCH   8  10
ENDBRANCH   7   8
ENDBRANCH   4   7
BRANCH   5  22
HETATM   22  O   UNL     1      78.726  26.115  39.122  1.00  0.00    -0.306 OA
BRANCH  22  23
HETATM   23  C   UNL     1      77.625  26.902  39.403  1.00  0.00     0.294 C 
HETATM   24  O   UNL     1      76.894  26.853  40.385  1.00  0.00    -0.259 OA
BRANCH  23  25
HETATM   25  C   UNL     1      77.311  27.881  38.367  1.00  0.00     0.045 A 
HETATM   26  C   UNL     1      76.288  27.596  37.446  1.00  0.00     0.057 A 
HETATM   27  C   UNL     1      76.007  28.519  36.449  1.00  0.00     0.102 A 
HETATM   28  C   UNL     1      76.755  29.685  36.358  1.00  0.00     0.132 A 
HETATM   29  C   UNL     1      77.836  29.897  37.205  1.00  0.00     0.102 A 
HETATM   30  C   UNL     1      78.135  28.991  38.207  1.00  0.00     0.057 A 
BRANCH  27  31
HETATM   31  O   UNL     1      75.010  28.317  35.538  1.00  0.00    -0.358 OA
HETATM   32  H   UNL     1      75.256  28.764  34.706  1.00  0.00     0.217 HD
ENDBRANCH  27  31
BRANCH  28  33
HETATM   33  O   UNL     1      76.444  30.640  35.429  1.00  0.00    -0.356 OA
HETATM   34  H   UNL     1      77.228  30.666  34.844  1.00  0.00     0.218 HD
ENDBRANCH  28  33
BRANCH  29  35
HETATM   35  O   UNL     1      78.618  31.003  37.062  1.00  0.00    -0.358 OA
HETATM   36  H   UNL     1      78.540  31.476  37.913  1.00  0.00     0.217 HD
ENDBRANCH  29  35
ENDBRANCH  23  25
ENDBRANCH  22  23
ENDBRANCH   5  22
BRANCH   6  37
HETATM   37  O   UNL     1      78.592  23.236  40.234  1.00  0.00    -0.304 OA
BRANCH  37  38
HETATM   38  C   UNL     1      79.090  23.443  41.483  1.00  0.00     0.294 C 
HETATM   39  O   UNL     1      78.933  24.414  42.193  1.00  0.00    -0.259 OA
BRANCH  38  40
HETATM   40  C   UNL     1      79.914  22.280  41.824  1.00  0.00     0.045 A 
HETATM   41  C   UNL     1      79.837  21.177  40.971  1.00  0.00     0.057 A 
HETATM   42  C   UNL     1      80.616  20.069  41.233  1.00  0.00     0.102 A 
HETATM   43  C   UNL     1      81.478  20.062  42.319  1.00  0.00     0.132 A 
HETATM   44  C   UNL     1      81.574  21.177  43.150  1.00  0.00     0.102 A 
HETATM   45  C   UNL     1      80.789  22.301  42.914  1.00  0.00     0.057 A 
BRANCH  42  46
HETATM   46  O   UNL     1      80.535  19.002  40.393  1.00  0.00    -0.358 OA
HETATM   47  H   UNL     1      80.481  18.219  40.974  1.00  0.00     0.217 HD
ENDBRANCH  42  46
BRANCH  43  48
HETATM   48  O   UNL     1      82.250  18.956  42.543  1.00  0.00    -0.356 OA
HETATM   49  H   UNL     1      83.169  19.286  42.477  1.00  0.00     0.218 HD
ENDBRANCH  43  48
BRANCH  44  50
HETATM   50  O   UNL     1      82.478  21.126  44.174  1.00  0.00    -0.358 OA
HETATM   51  H   UNL     1      83.267  20.649  43.860  1.00  0.00     0.217 HD
ENDBRANCH  44  50
ENDBRANCH  38  40
ENDBRANCH  37  38
ENDBRANCH   6  37
ENDBRANCH   2   4
BRANCH   2  52
HETATM   52  C   UNL     1      79.029  24.039  36.155  1.00  0.00     0.216 C 
BRANCH  52  53
HETATM   53  O   UNL     1      78.538  22.775  35.716  1.00  0.00    -0.315 OA
BRANCH  53  54
HETATM   54  C   UNL     1      79.245  22.238  34.711  1.00  0.00     0.293 C 
HETATM   55  O   UNL     1      79.964  22.834  33.933  1.00  0.00    -0.259 OA
BRANCH  54  56
HETATM   56  C   UNL     1      78.915  20.803  34.686  1.00  0.00     0.045 C 
HETATM   57  C   UNL     1      77.716  20.305  35.233  1.00  0.00     0.057 C 
HETATM   58  C   UNL     1      77.413  18.961  35.116  1.00  0.00     0.102 C 
HETATM   59  C   UNL     1      78.212  18.143  34.334  1.00  0.00     0.133 C 
HETATM   60  C   UNL     1      79.328  18.690  33.696  1.00  0.00     0.116 C 
HETATM   61  C   UNL     1      79.776  19.973  33.983  1.00  0.00     0.058 C 
BRANCH  58  62
HETATM   62  O   UNL     1      76.275  18.466  35.684  1.00  0.00    -0.358 OA
HETATM   63  H   UNL     1      75.695  19.250  35.782  1.00  0.00     0.217 HD
ENDBRANCH  58  62
BRANCH  59  64
HETATM   64  O   UNL     1      77.798  16.857  34.140  1.00  0.00    -0.356 OA
HETATM   65  H   UNL     1      77.838  16.398  35.002  1.00  0.00     0.218 HD
ENDBRANCH  59  64
BRANCH  60  66
HETATM   66  O   UNL     1      79.866  18.077  32.564  1.00  0.00    -0.272 OA
BRANCH  66  67
HETATM   67  C   UNL     1      79.135  18.566  31.488  1.00  0.00     0.298 C 
HETATM   68  O   UNL     1      78.018  18.162  31.205  1.00  0.00    -0.259 OA
BRANCH  67  69
HETATM   69  C   UNL     1      79.847  19.603  30.689  1.00  0.00     0.045 A 
HETATM   70  C   UNL     1      81.162  19.355  30.264  1.00  0.00     0.057 A 
HETATM   71  C   UNL     1      81.810  20.292  29.466  1.00  0.00     0.102 A 
HETATM   72  C   UNL     1      81.180  21.483  29.132  1.00  0.00     0.132 A 
HETATM   73  C   UNL     1      79.887  21.737  29.584  1.00  0.00     0.102 A 
HETATM   74  C   UNL     1      79.197  20.794  30.346  1.00  0.00     0.057 A 
BRANCH  71  75
HETATM   75  O   UNL     1      83.069  19.998  29.044  1.00  0.00    -0.358 OA
HETATM   76  H   UNL     1      83.346  19.137  29.423  1.00  0.00     0.217 HD
ENDBRANCH  71  75
BRANCH  72  77
HETATM   77  O   UNL     1      81.835  22.409  28.371  1.00  0.00    -0.356 OA
HETATM   78  H   UNL     1      81.597  23.276  28.760  1.00  0.00     0.218 HD
ENDBRANCH  72  77
BRANCH  73  79
HETATM   79  O   UNL     1      79.333  22.945  29.260  1.00  0.00    -0.358 OA
HETATM   80  H   UNL     1      79.111  22.937  28.310  1.00  0.00     0.217 HD
ENDBRANCH  73  79
ENDBRANCH  67  69
ENDBRANCH  66  67
ENDBRANCH  60  66
ENDBRANCH  54  56
ENDBRANCH  53  54
ENDBRANCH  52  53
ENDBRANCH   2  52
BRANCH   3  81
HETATM   81  O   UNL     1      81.979  23.877  35.985  1.00  0.00    -0.285 OA
BRANCH  81  82
HETATM   82  C   UNL     1      83.082  24.619  35.697  1.00  0.00     0.295 C 
HETATM   83  O   UNL     1      83.287  25.023  34.561  1.00  0.00    -0.259 OA
BRANCH  82  84
HETATM   84  C   UNL     1      83.949  25.046  36.828  1.00  0.00     0.045 A 
HETATM   85  C   UNL     1      85.024  24.268  37.278  1.00  0.00     0.057 A 
HETATM   86  C   UNL     1      85.732  24.676  38.408  1.00  0.00     0.102 A 
HETATM   87  C   UNL     1      85.370  25.827  39.100  1.00  0.00     0.132 A 
HETATM   88  C   UNL     1      84.295  26.590  38.668  1.00  0.00     0.102 A 
HETATM   89  C   UNL     1      83.580  26.206  37.538  1.00  0.00     0.057 A 
BRANCH  86  90
HETATM   90  O   UNL     1      86.783  23.931  38.863  1.00  0.00    -0.358 OA
HETATM   91  H   UNL     1      86.501  23.651  39.760  1.00  0.00     0.217 HD
ENDBRANCH  86  90
BRANCH  87  92
HETATM   92  O   UNL     1      86.075  26.175  40.220  1.00  0.00    -0.356 OA
HETATM   93  H   UNL     1      86.602  26.955  39.942  1.00  0.00     0.218 HD
ENDBRANCH  87  92
BRANCH  88  94
HETATM   94  O   UNL     1      83.967  27.699  39.398  1.00  0.00    -0.358 OA
HETATM   95  H   UNL     1      83.010  27.664  39.586  1.00  0.00     0.217 HD
ENDBRANCH  88  94
ENDBRANCH  82  84
ENDBRANCH  81  82
ENDBRANCH   3  81
TORSDOF 38
ENDMDL
MODEL 6
REMARK VINA RESULT:   -10.570      1.740      4.680
REMARK INTER + INTRA:         -24.691
REMARK INTER:                 -27.448
REMARK INTRA:                   2.757
REMARK UNBOUND:                 2.564
REMARK WARNING: 32 MAX_TORS EXCEEDED!!!
REMARK  38 active torsions:
REMARK  status: ('A' for Active; 'I' for Inactive)
REMARK    1  A    between atoms: O_2  and  C_27 
REMARK    2  A    between atoms: O_2  and  C_33 
REMARK    3  A    between atoms: O_3  and  C_28 
REMARK    4  A    between atoms: O_3  and  C_34 
REMARK    5  A    between atoms: O_4  and  C_29 
REMARK    6  A    between atoms: O_4  and  C_35 
REMARK    7  A    between atoms: O_5  and  C_31 
REMARK    8  A    between atoms: O_5  and  C_36 
REMARK    9  A    between atoms: O_6  and  C_32 
REMARK   10  A    between atoms: O_6  and  C_39 
REMARK   11  A    between atoms: O_12  and  C_51 
REMARK   12  A    between atoms: O_13  and  C_52 
REMARK   13  A    between atoms: O_14  and  C_53 
REMARK   14  A    between atoms: O_15  and  C_54 
REMARK   15  A    between atoms: O_16  and  C_55 
REMARK   16  A    between atoms: O_17  and  C_56 
REMARK   17  A    between atoms: O_18  and  C_59 
REMARK   18  A    between atoms: O_19  and  C_60 
REMARK   19  A    between atoms: O_20  and  C_61 
REMARK   20  A    between atoms: O_21  and  C_62 
REMARK   21  A    between atoms: O_22  and  C_63 
REMARK   22  A    between atoms: O_23  and  C_64 
REMARK   23  A    between atoms: O_24  and  C_65 
REMARK   24  A    between atoms: O_24  and  C_86 
REMARK   25  A    between atoms: O_25  and  C_66 
REMARK   26  A    between atoms: O_26  and  C_67 
REMARK   27  A    between atoms: C_28  and  C_30 
REMARK   28  A    between atoms: C_29  and  C_31 
REMARK   29  A    between atoms: C_30  and  C_32 
REMARK   30  A    between atoms: C_33  and  C_37 
REMARK   31  A    between atoms: C_34  and  C_38 
REMARK   32  A    between atoms: C_35  and  C_40 
REMARK   33  A    between atoms: C_36  and  C_41 
REMARK   34  A    between atoms: C_39  and  C_42 
REMARK   35  A    between atoms: O_83  and  C_90 
REMARK   36  A    between atoms: O_84  and  C_91 
REMARK   37  A    between atoms: O_85  and  C_92 
REMARK   38  A    between atoms: C_86  and  C_87 
ROOT
HETATM    1  O   UNL     1      81.213  21.692  37.125  1.00  0.00    -0.348 OA
HETATM    2  C   UNL     1      80.501  22.755  37.588  1.00  0.00     0.201 A 
HETATM    3  C   UNL     1      81.878  22.887  37.232  1.00  0.00     0.282 A 
ENDROOT
BRANCH   2   4
HETATM    4  C   UNL     1      80.662  23.074  38.330  1.00  0.00     0.199 A 
HETATM    5  C   UNL     1      79.396  23.126  39.275  1.00  0.00     0.198 A 
HETATM    6  C   UNL     1      80.136  21.898  38.949  1.00  0.00     0.215 A 
BRANCH   4   7
HETATM    7  O   UNL     1      80.139  24.665  37.838  1.00  0.00    -0.306 OA
BRANCH   7   8
HETATM    8  C   UNL     1      80.028  25.969  38.020  1.00  0.00     0.294 C 
HETATM    9  O   UNL     1      80.473  26.537  39.012  1.00  0.00    -0.259 OA
BRANCH   8  10
HETATM   10  C   UNL     1      79.421  26.803  36.998  1.00  0.00     0.045 A 
HETATM   11  C   UNL     1      78.913  28.049  37.385  1.00  0.00     0.057 A 
HETATM   12  C   UNL     1      78.773  29.036  36.419  1.00  0.00     0.102 A 
HETATM   13  C   UNL     1      79.113  28.771  35.094  1.00  0.00     0.132 A 
HETATM   14  C   UNL     1      79.585  27.518  34.719  1.00  0.00     0.102 A 
HETATM   15  C   UNL     1      79.768  26.531  35.672  1.00  0.00     0.057 A 
BRANCH  12  16
HETATM   16  O   UNL     1      78.381  30.304  36.744  1.00  0.00    -0.358 OA
HETATM   17  H   UNL     1      79.075  30.694  37.308  1.00  0.00     0.217 HD
ENDBRANCH  12  16
BRANCH  13  18
HETATM   18  O   UNL     1      79.060  29.764  34.153  1.00  0.00    -0.356 OA
HETATM   19  H   UNL     1      79.933  30.202  34.220  1.00  0.00     0.218 HD
ENDBRANCH  13  18
BRANCH  14  20
HETATM   20  O   UNL     1      79.947  27.275  33.425  1.00  0.00    -0.358 OA
HETATM   21  H   UNL     1      79.236  27.699  32.899  1.00  0.00     0.217 HD
ENDBRANCH  14  20
ENDBRANCH   8  10
ENDBRANCH   7   8
ENDBRANCH   4   7
BRANCH   5  22
HETATM   22  O   UNL     1      79.795  23.727  40.637  1.00  0.00    -0.306 OA
BRANCH  22  23
HETATM   23  C   UNL     1      79.137  23.403  41.809  1.00  0.00     0.294 C 
HETATM   24  O   UNL     1      77.933  23.250  41.980  1.00  0.00    -0.259 OA
BRANCH  23  25
HETATM   25  C   UNL     1      80.014  23.258  42.966  1.00  0.00     0.045 A 
HETATM   26  C   UNL     1      80.142  24.332  43.864  1.00  0.00     0.057 A 
HETATM   27  C   UNL     1      80.994  24.200  44.951  1.00  0.00     0.102 A 
HETATM   28  C   UNL     1      81.725  23.031  45.116  1.00  0.00     0.132 A 
HETATM   29  C   UNL     1      81.673  22.026  44.159  1.00  0.00     0.102 A 
HETATM   30  C   UNL     1      80.830  22.136  43.067  1.00  0.00     0.057 A 
BRANCH  27  31
HETATM   31  O   UNL     1      81.146  25.194  45.874  1.00  0.00    -0.358 OA
HETATM   32  H   UNL     1      81.494  25.986  45.422  1.00  0.00     0.217 HD
ENDBRANCH  27  31
BRANCH  28  33
HETATM   33  O   UNL     1      82.512  22.853  46.221  1.00  0.00    -0.356 OA
HETATM   34  H   UNL     1      82.318  21.937  46.506  1.00  0.00     0.218 HD
ENDBRANCH  28  33
BRANCH  29  35
HETATM   35  O   UNL     1      82.451  20.915  44.281  1.00  0.00    -0.358 OA
HETATM   36  H   UNL     1      82.275  20.583  45.182  1.00  0.00     0.217 HD
ENDBRANCH  29  35
ENDBRANCH  23  25
ENDBRANCH  22  23
ENDBRANCH   5  22
BRANCH   6  37
HETATM   37  O   UNL     1      79.816  20.698  40.028  1.00  0.00    -0.304 OA
BRANCH  37  38
HETATM   38  C   UNL     1      79.167  19.533  39.759  1.00  0.00     0.294 C 
HETATM   39  O   UNL     1      78.246  19.358  38.989  1.00  0.00    -0.259 OA
BRANCH  38  40
HETATM   40  C   UNL     1      79.751  18.499  40.616  1.00  0.00     0.045 A 
HETATM   41  C   UNL     1      80.740  18.904  41.515  1.00  0.00     0.057 A 
HETATM   42  C   UNL     1      81.300  17.972  42.364  1.00  0.00     0.102 A 
HETATM   43  C   UNL     1      80.869  16.654  42.337  1.00  0.00     0.132 A 
HETATM   44  C   UNL     1      79.860  16.260  41.459  1.00  0.00     0.102 A 
HETATM   45  C   UNL     1      79.290  17.179  40.584  1.00  0.00     0.057 A 
BRANCH  42  46
HETATM   46  O   UNL     1      82.259  18.380  43.238  1.00  0.00    -0.358 OA
HETATM   47  H   UNL     1      81.877  18.240  44.126  1.00  0.00     0.217 HD
ENDBRANCH  42  46
BRANCH  43  48
HETATM   48  O   UNL     1      81.431  15.757  43.202  1.00  0.00    -0.356 OA
HETATM   49  H   UNL     1      81.847  16.315  43.890  1.00  0.00     0.218 HD
ENDBRANCH  43  48
BRANCH  44  50
HETATM   50  O   UNL     1      79.447  14.959  41.514  1.00  0.00    -0.358 OA
HETATM   51  H   UNL     1      79.905  14.525  42.257  1.00  0.00     0.217 HD
ENDBRANCH  44  50
ENDBRANCH  38  40
ENDBRANCH  37  38
ENDBRANCH   6  37
ENDBRANCH   2   4
BRANCH   2  52
HETATM   52  C   UNL     1      79.108  23.508  37.100  1.00  0.00     0.216 C 
BRANCH  52  53
HETATM   53  O   UNL     1      78.610  22.731  36.014  1.00  0.00    -0.315 OA
BRANCH  53  54
HETATM   54  C   UNL     1      78.256  23.459  34.945  1.00  0.00     0.293 C 
HETATM   55  O   UNL     1      77.336  24.251  34.881  1.00  0.00    -0.259 OA
BRANCH  54  56
HETATM   56  C   UNL     1      79.146  23.049  33.846  1.00  0.00     0.045 C 
HETATM   57  C   UNL     1      80.063  23.942  33.258  1.00  0.00     0.057 C 
HETATM   58  C   UNL     1      80.934  23.490  32.283  1.00  0.00     0.102 C 
HETATM   59  C   UNL     1      81.003  22.137  31.999  1.00  0.00     0.133 C 
HETATM   60  C   UNL     1      80.171  21.252  32.689  1.00  0.00     0.116 C 
HETATM   61  C   UNL     1      79.137  21.706  33.499  1.00  0.00     0.058 C 
BRANCH  58  62
HETATM   62  O   UNL     1      81.793  24.362  31.679  1.00  0.00    -0.358 OA
HETATM   63  H   UNL     1      81.206  25.018  31.248  1.00  0.00     0.217 HD
ENDBRANCH  58  62
BRANCH  59  64
HETATM   64  O   UNL     1      81.971  21.725  31.128  1.00  0.00    -0.356 OA
HETATM   65  H   UNL     1      82.346  20.891  31.472  1.00  0.00     0.218 HD
ENDBRANCH  59  64
BRANCH  60  66
HETATM   66  O   UNL     1      80.511  19.904  32.804  1.00  0.00    -0.272 OA
BRANCH  66  67
HETATM   67  C   UNL     1      79.741  19.241  31.856  1.00  0.00     0.298 C 
HETATM   68  O   UNL     1      78.565  18.961  32.033  1.00  0.00    -0.259 OA
BRANCH  67  69
HETATM   69  C   UNL     1      80.485  18.869  30.620  1.00  0.00     0.045 A 
HETATM   70  C   UNL     1      80.016  19.322  29.377  1.00  0.00     0.057 A 
HETATM   71  C   UNL     1      80.740  19.030  28.226  1.00  0.00     0.102 A 
HETATM   72  C   UNL     1      81.891  18.258  28.299  1.00  0.00     0.132 A 
HETATM   73  C   UNL     1      82.333  17.783  29.532  1.00  0.00     0.102 A 
HETATM   74  C   UNL     1      81.653  18.101  30.707  1.00  0.00     0.057 A 
BRANCH  71  75
HETATM   75  O   UNL     1      80.272  19.519  27.046  1.00  0.00    -0.358 OA
HETATM   76  H   UNL     1      79.317  19.722  27.134  1.00  0.00     0.217 HD
ENDBRANCH  71  75
BRANCH  72  77
HETATM   77  O   UNL     1      82.579  17.952  27.159  1.00  0.00    -0.356 OA
HETATM   78  H   UNL     1      83.463  17.659  27.463  1.00  0.00     0.218 HD
ENDBRANCH  72  77
BRANCH  73  79
HETATM   79  O   UNL     1      83.448  16.991  29.538  1.00  0.00    -0.358 OA
HETATM   80  H   UNL     1      83.182  16.083  29.301  1.00  0.00     0.217 HD
ENDBRANCH  73  79
ENDBRANCH  67  69
ENDBRANCH  66  67
ENDBRANCH  60  66
ENDBRANCH  54  56
ENDBRANCH  53  54
ENDBRANCH  52  53
ENDBRANCH   2  52
BRANCH   3  81
HETATM   81  O   UNL     1      81.846  23.914  36.054  1.00  0.00    -0.285 OA
BRANCH  81  82
HETATM   82  C   UNL     1      82.950  24.635  35.723  1.00  0.00     0.295 C 
HETATM   83  O   UNL     1      83.133  25.012  34.573  1.00  0.00    -0.259 OA
BRANCH  82  84
HETATM   84  C   UNL     1      83.849  25.078  36.824  1.00  0.00     0.045 A 
HETATM   85  C   UNL     1      84.948  24.315  37.240  1.00  0.00     0.057 A 
HETATM   86  C   UNL     1      85.687  24.735  38.344  1.00  0.00     0.102 A 
HETATM   87  C   UNL     1      85.334  25.883  39.045  1.00  0.00     0.132 A 
HETATM   88  C   UNL     1      84.236  26.632  38.646  1.00  0.00     0.102 A 
HETATM   89  C   UNL     1      83.488  26.235  37.542  1.00  0.00     0.057 A 
BRANCH  86  90
HETATM   90  O   UNL     1      86.763  24.005  38.767  1.00  0.00    -0.358 OA
HETATM   91  H   UNL     1      86.528  23.082  38.529  1.00  0.00     0.217 HD
ENDBRANCH  86  90
BRANCH  87  92
HETATM   92  O   UNL     1      86.072  26.245  40.140  1.00  0.00    -0.356 OA
HETATM   93  H   UNL     1      86.644  25.467  40.314  1.00  0.00     0.218 HD
ENDBRANCH  87  92
BRANCH  88  94
HETATM   94  O   UNL     1      83.918  27.739  39.384  1.00  0.00    -0.358 OA
HETATM   95  H   UNL     1      84.415  28.496  39.020  1.00  0.00     0.217 HD
ENDBRANCH  88  94
ENDBRANCH  82  84
ENDBRANCH  81  82
ENDBRANCH   3  81
TORSDOF 38
ENDMDL
MODEL 7
REMARK VINA RESULT:   -10.566      1.206      2.009
REMARK INTER + INTRA:         -24.680
REMARK INTER:                 -26.991
REMARK INTRA:                   2.311
REMARK UNBOUND:                 2.564
REMARK WARNING: 32 MAX_TORS EXCEEDED!!!
REMARK  38 active torsions:
REMARK  status: ('A' for Active; 'I' for Inactive)
REMARK    1  A    between atoms: O_2  and  C_27 
REMARK    2  A    between atoms: O_2  and  C_33 
REMARK    3  A    between atoms: O_3  and  C_28 
REMARK    4  A    between atoms: O_3  and  C_34 
REMARK    5  A    between atoms: O_4  and  C_29 
REMARK    6  A    between atoms: O_4  and  C_35 
REMARK    7  A    between atoms: O_5  and  C_31 
REMARK    8  A    between atoms: O_5  and  C_36 
REMARK    9  A    between atoms: O_6  and  C_32 
REMARK   10  A    between atoms: O_6  and  C_39 
REMARK   11  A    between atoms: O_12  and  C_51 
REMARK   12  A    between atoms: O_13  and  C_52 
REMARK   13  A    between atoms: O_14  and  C_53 
REMARK   14  A    between atoms: O_15  and  C_54 
REMARK   15  A    between atoms: O_16  and  C_55 
REMARK   16  A    between atoms: O_17  and  C_56 
REMARK   17  A    between atoms: O_18  and  C_59 
REMARK   18  A    between atoms: O_19  and  C_60 
REMARK   19  A    between atoms: O_20  and  C_61 
REMARK   20  A    between atoms: O_21  and  C_62 
REMARK   21  A    between atoms: O_22  and  C_63 
REMARK   22  A    between atoms: O_23  and  C_64 
REMARK   23  A    between atoms: O_24  and  C_65 
REMARK   24  A    between atoms: O_24  and  C_86 
REMARK   25  A    between atoms: O_25  and  C_66 
REMARK   26  A    between atoms: O_26  and  C_67 
REMARK   27  A    between atoms: C_28  and  C_30 
REMARK   28  A    between atoms: C_29  and  C_31 
REMARK   29  A    between atoms: C_30  and  C_32 
REMARK   30  A    between atoms: C_33  and  C_37 
REMARK   31  A    between atoms: C_34  and  C_38 
REMARK   32  A    between atoms: C_35  and  C_40 
REMARK   33  A    between atoms: C_36  and  C_41 
REMARK   34  A    between atoms: C_39  and  C_42 
REMARK   35  A    between atoms: O_83  and  C_90 
REMARK   36  A    between atoms: O_84  and  C_91 
REMARK   37  A    between atoms: O_85  and  C_92 
REMARK   38  A    between atoms: C_86  and  C_87 
ROOT
HETATM    1  O   UNL     1      80.514  22.810  37.926  1.00  0.00    -0.348 OA
HETATM    2  C   UNL     1      79.834  23.927  37.547  1.00  0.00     0.201 A 
HETATM    3  C   UNL     1      81.263  23.899  37.558  1.00  0.00     0.282 A 
ENDROOT
BRANCH   2   4
HETATM    4  C   UNL     1      79.844  24.601  38.020  1.00  0.00     0.199 A 
HETATM    5  C   UNL     1      78.402  25.068  38.470  1.00  0.00     0.198 A 
HETATM    6  C   UNL     1      79.107  23.905  39.027  1.00  0.00     0.215 A 
BRANCH   4   7
HETATM    7  O   UNL     1      79.562  25.649  36.652  1.00  0.00    -0.306 OA
BRANCH   7   8
HETATM    8  C   UNL     1      79.698  26.795  36.008  1.00  0.00     0.294 C 
HETATM    9  O   UNL     1      80.664  27.533  36.171  1.00  0.00    -0.259 OA
BRANCH   8  10
HETATM   10  C   UNL     1      78.721  27.196  35.011  1.00  0.00     0.045 A 
HETATM   11  C   UNL     1      77.466  26.576  35.038  1.00  0.00     0.057 A 
HETATM   12  C   UNL     1      76.391  27.233  34.455  1.00  0.00     0.102 A 
HETATM   13  C   UNL     1      76.576  28.469  33.840  1.00  0.00     0.132 A 
HETATM   14  C   UNL     1      77.836  29.056  33.792  1.00  0.00     0.102 A 
HETATM   15  C   UNL     1      78.914  28.438  34.401  1.00  0.00     0.057 A 
BRANCH  12  16
HETATM   16  O   UNL     1      75.121  26.734  34.533  1.00  0.00    -0.358 OA
HETATM   17  H   UNL     1      74.508  27.491  34.594  1.00  0.00     0.217 HD
ENDBRANCH  12  16
BRANCH  13  18
HETATM   18  O   UNL     1      75.507  29.162  33.339  1.00  0.00    -0.356 OA
HETATM   19  H   UNL     1      74.728  28.697  33.710  1.00  0.00     0.218 HD
ENDBRANCH  13  18
BRANCH  14  20
HETATM   20  O   UNL     1      78.004  30.284  33.218  1.00  0.00    -0.358 OA
HETATM   21  H   UNL     1      77.276  30.338  32.563  1.00  0.00     0.217 HD
ENDBRANCH  14  20
ENDBRANCH   8  10
ENDBRANCH   7   8
ENDBRANCH   4   7
BRANCH   5  22
HETATM   22  O   UNL     1      78.520  26.325  39.352  1.00  0.00    -0.306 OA
BRANCH  22  23
HETATM   23  C   UNL     1      77.414  27.044  39.766  1.00  0.00     0.294 C 
HETATM   24  O   UNL     1      76.796  26.937  40.819  1.00  0.00    -0.259 OA
BRANCH  23  25
HETATM   25  C   UNL     1      76.939  28.022  38.793  1.00  0.00     0.045 A 
HETATM   26  C   UNL     1      75.652  27.874  38.248  1.00  0.00     0.057 A 
HETATM   27  C   UNL     1      75.212  28.792  37.306  1.00  0.00     0.102 A 
HETATM   28  C   UNL     1      76.054  29.817  36.896  1.00  0.00     0.132 A 
HETATM   29  C   UNL     1      77.363  29.881  37.359  1.00  0.00     0.102 A 
HETATM   30  C   UNL     1      77.823  28.976  38.299  1.00  0.00     0.057 A 
BRANCH  27  31
HETATM   31  O   UNL     1      73.964  28.721  36.757  1.00  0.00    -0.358 OA
HETATM   32  H   UNL     1      73.305  28.815  37.471  1.00  0.00     0.217 HD
ENDBRANCH  27  31
BRANCH  28  33
HETATM   33  O   UNL     1      75.612  30.774  36.025  1.00  0.00    -0.356 OA
HETATM   34  H   UNL     1      74.978  31.301  36.554  1.00  0.00     0.218 HD
ENDBRANCH  28  33
BRANCH  29  35
HETATM   35  O   UNL     1      78.213  30.838  36.894  1.00  0.00    -0.358 OA
HETATM   36  H   UNL     1      79.002  30.348  36.593  1.00  0.00     0.217 HD
ENDBRANCH  29  35
ENDBRANCH  23  25
ENDBRANCH  22  23
ENDBRANCH   5  22
BRANCH   6  37
HETATM   37  O   UNL     1      78.464  23.446  40.470  1.00  0.00    -0.304 OA
BRANCH  37  38
HETATM   38  C   UNL     1      79.071  23.545  41.684  1.00  0.00     0.294 C 
HETATM   39  O   UNL     1      78.982  24.451  42.486  1.00  0.00    -0.259 OA
BRANCH  38  40
HETATM   40  C   UNL     1      79.915  22.359  41.849  1.00  0.00     0.045 A 
HETATM   41  C   UNL     1      80.771  22.338  42.952  1.00  0.00     0.057 A 
HETATM   42  C   UNL     1      81.564  21.230  43.168  1.00  0.00     0.102 A 
HETATM   43  C   UNL     1      81.495  20.144  42.309  1.00  0.00     0.132 A 
HETATM   44  C   UNL     1      80.618  20.157  41.225  1.00  0.00     0.102 A 
HETATM   45  C   UNL     1      79.818  21.268  40.980  1.00  0.00     0.057 A 
BRANCH  42  46
HETATM   46  O   UNL     1      82.389  21.221  44.249  1.00  0.00    -0.358 OA
HETATM   47  H   UNL     1      82.738  20.310  44.301  1.00  0.00     0.217 HD
ENDBRANCH  42  46
BRANCH  43  48
HETATM   48  O   UNL     1      82.282  19.054  42.558  1.00  0.00    -0.356 OA
HETATM   49  H   UNL     1      82.106  18.840  43.497  1.00  0.00     0.218 HD
ENDBRANCH  43  48
BRANCH  44  50
HETATM   50  O   UNL     1      80.563  19.037  40.444  1.00  0.00    -0.358 OA
HETATM   51  H   UNL     1      80.304  18.285  41.007  1.00  0.00     0.217 HD
ENDBRANCH  44  50
ENDBRANCH  38  40
ENDBRANCH  37  38
ENDBRANCH   6  37
ENDBRANCH   2   4
BRANCH   2  52
HETATM   52  C   UNL     1      78.698  24.244  36.384  1.00  0.00     0.216 C 
BRANCH  52  53
HETATM   53  O   UNL     1      78.433  22.994  35.754  1.00  0.00    -0.315 OA
BRANCH  53  54
HETATM   54  C   UNL     1      77.861  23.106  34.546  1.00  0.00     0.293 C 
HETATM   55  O   UNL     1      76.696  23.372  34.319  1.00  0.00    -0.259 OA
BRANCH  54  56
HETATM   56  C   UNL     1      78.898  22.765  33.557  1.00  0.00     0.045 C 
HETATM   57  C   UNL     1      79.813  23.722  33.077  1.00  0.00     0.057 C 
HETATM   58  C   UNL     1      80.819  23.337  32.210  1.00  0.00     0.102 C 
HETATM   59  C   UNL     1      81.013  21.993  31.939  1.00  0.00     0.133 C 
HETATM   60  C   UNL     1      80.169  21.050  32.530  1.00  0.00     0.116 C 
HETATM   61  C   UNL     1      79.021  21.427  33.214  1.00  0.00     0.058 C 
BRANCH  58  62
HETATM   62  O   UNL     1      81.680  24.269  31.708  1.00  0.00    -0.358 OA
HETATM   63  H   UNL     1      82.089  24.672  32.502  1.00  0.00     0.217 HD
ENDBRANCH  58  62
BRANCH  59  64
HETATM   64  O   UNL     1      82.100  21.654  31.185  1.00  0.00    -0.356 OA
HETATM   65  H   UNL     1      82.729  22.401  31.216  1.00  0.00     0.218 HD
ENDBRANCH  59  64
BRANCH  60  66
HETATM   66  O   UNL     1      80.586  19.728  32.685  1.00  0.00    -0.272 OA
BRANCH  66  67
HETATM   67  C   UNL     1      79.853  18.992  31.762  1.00  0.00     0.298 C 
HETATM   68  O   UNL     1      78.707  18.623  31.965  1.00  0.00    -0.259 OA
BRANCH  67  69
HETATM   69  C   UNL     1      80.601  18.662  30.516  1.00  0.00     0.045 A 
HETATM   70  C   UNL     1      80.134  19.155  29.287  1.00  0.00     0.057 A 
HETATM   71  C   UNL     1      80.861  18.903  28.129  1.00  0.00     0.102 A 
HETATM   72  C   UNL     1      82.013  18.131  28.179  1.00  0.00     0.132 A 
HETATM   73  C   UNL     1      82.454  17.617  29.398  1.00  0.00     0.102 A 
HETATM   74  C   UNL     1      81.770  17.894  30.581  1.00  0.00     0.057 A 
BRANCH  71  75
HETATM   75  O   UNL     1      80.395  19.429  26.965  1.00  0.00    -0.358 OA
HETATM   76  H   UNL     1      79.534  19.016  26.742  1.00  0.00     0.217 HD
ENDBRANCH  71  75
BRANCH  72  77
HETATM   77  O   UNL     1      82.705  17.865  27.032  1.00  0.00    -0.356 OA
HETATM   78  H   UNL     1      82.049  17.950  26.310  1.00  0.00     0.218 HD
ENDBRANCH  72  77
BRANCH  73  79
HETATM   79  O   UNL     1      83.571  16.827  29.380  1.00  0.00    -0.358 OA
HETATM   80  H   UNL     1      83.363  15.989  29.833  1.00  0.00     0.217 HD
ENDBRANCH  73  79
ENDBRANCH  67  69
ENDBRANCH  66  67
ENDBRANCH  60  66
ENDBRANCH  54  56
ENDBRANCH  53  54
ENDBRANCH  52  53
ENDBRANCH   2  52
BRANCH   3  81
HETATM   81  O   UNL     1      81.637  24.127  36.058  1.00  0.00    -0.285 OA
BRANCH  81  82
HETATM   82  C   UNL     1      82.806  24.727  35.711  1.00  0.00     0.295 C 
HETATM   83  O   UNL     1      83.025  25.054  34.553  1.00  0.00    -0.259 OA
BRANCH  82  84
HETATM   84  C   UNL     1      83.745  25.107  36.802  1.00  0.00     0.045 A 
HETATM   85  C   UNL     1      84.812  24.284  37.186  1.00  0.00     0.057 A 
HETATM   86  C   UNL     1      85.590  24.649  38.283  1.00  0.00     0.102 A 
HETATM   87  C   UNL     1      85.306  25.802  39.008  1.00  0.00     0.132 A 
HETATM   88  C   UNL     1      84.240  26.610  38.641  1.00  0.00     0.102 A 
HETATM   89  C   UNL     1      83.454  26.268  37.544  1.00  0.00     0.057 A 
BRANCH  86  90
HETATM   90  O   UNL     1      86.636  23.861  38.675  1.00  0.00    -0.358 OA
HETATM   91  H   UNL     1      87.382  24.491  38.769  1.00  0.00     0.217 HD
ENDBRANCH  86  90
BRANCH  87  92
HETATM   92  O   UNL     1      86.080  26.109  40.095  1.00  0.00    -0.356 OA
HETATM   93  H   UNL     1      86.539  25.269  40.310  1.00  0.00     0.218 HD
ENDBRANCH  87  92
BRANCH  88  94
HETATM   94  O   UNL     1      83.989  27.719  39.402  1.00  0.00    -0.358 OA
HETATM   95  H   UNL     1      83.861  28.475  38.798  1.00  0.00     0.217 HD
ENDBRANCH  88  94
ENDBRANCH  82  84
ENDBRANCH  81  82
ENDBRANCH   3  81
TORSDOF 38
ENDMDL
MODEL 8
REMARK VINA RESULT:   -10.443      1.502      2.631
REMARK INTER + INTRA:         -24.364
REMARK INTER:                 -26.498
REMARK INTRA:                   2.134
REMARK UNBOUND:                 2.564
REMARK WARNING: 32 MAX_TORS EXCEEDED!!!
REMARK  38 active torsions:
REMARK  status: ('A' for Active; 'I' for Inactive)
REMARK    1  A    between atoms: O_2  and  C_27 
REMARK    2  A    between atoms: O_2  and  C_33 
REMARK    3  A    between atoms: O_3  and  C_28 
REMARK    4  A    between atoms: O_3  and  C_34 
REMARK    5  A    between atoms: O_4  and  C_29 
REMARK    6  A    between atoms: O_4  and  C_35 
REMARK    7  A    between atoms: O_5  and  C_31 
REMARK    8  A    between atoms: O_5  and  C_36 
REMARK    9  A    between atoms: O_6  and  C_32 
REMARK   10  A    between atoms: O_6  and  C_39 
REMARK   11  A    between atoms: O_12  and  C_51 
REMARK   12  A    between atoms: O_13  and  C_52 
REMARK   13  A    between atoms: O_14  and  C_53 
REMARK   14  A    between atoms: O_15  and  C_54 
REMARK   15  A    between atoms: O_16  and  C_55 
REMARK   16  A    between atoms: O_17  and  C_56 
REMARK   17  A    between atoms: O_18  and  C_59 
REMARK   18  A    between atoms: O_19  and  C_60 
REMARK   19  A    between atoms: O_20  and  C_61 
REMARK   20  A    between atoms: O_21  and  C_62 
REMARK   21  A    between atoms: O_22  and  C_63 
REMARK   22  A    between atoms: O_23  and  C_64 
REMARK   23  A    between atoms: O_24  and  C_65 
REMARK   24  A    between atoms: O_24  and  C_86 
REMARK   25  A    between atoms: O_25  and  C_66 
REMARK   26  A    between atoms: O_26  and  C_67 
REMARK   27  A    between atoms: C_28  and  C_30 
REMARK   28  A    between atoms: C_29  and  C_31 
REMARK   29  A    between atoms: C_30  and  C_32 
REMARK   30  A    between atoms: C_33  and  C_37 
REMARK   31  A    between atoms: C_34  and  C_38 
REMARK   32  A    between atoms: C_35  and  C_40 
REMARK   33  A    between atoms: C_36  and  C_41 
REMARK   34  A    between atoms: C_39  and  C_42 
REMARK   35  A    between atoms: O_83  and  C_90 
REMARK   36  A    between atoms: O_84  and  C_91 
REMARK   37  A    between atoms: O_85  and  C_92 
REMARK   38  A    between atoms: C_86  and  C_87 
ROOT
HETATM    1  O   UNL     1      81.445  22.689  38.262  1.00  0.00    -0.348 OA
HETATM    2  C   UNL     1      80.667  23.489  37.482  1.00  0.00     0.201 A 
HETATM    3  C   UNL     1      81.984  23.888  37.869  1.00  0.00     0.282 A 
ENDROOT
BRANCH   2   4
HETATM    4  C   UNL     1      80.365  24.195  37.781  1.00  0.00     0.199 A 
HETATM    5  C   UNL     1      78.788  24.275  37.718  1.00  0.00     0.198 A 
HETATM    6  C   UNL     1      79.538  23.460  38.684  1.00  0.00     0.215 A 
BRANCH   4   7
HETATM    7  O   UNL     1      80.287  24.913  36.191  1.00  0.00    -0.306 OA
BRANCH   7   8
HETATM    8  C   UNL     1      80.321  25.950  35.372  1.00  0.00     0.294 C 
HETATM    9  O   UNL     1      80.568  27.088  35.758  1.00  0.00    -0.259 OA
BRANCH   8  10
HETATM   10  C   UNL     1      80.131  25.762  33.945  1.00  0.00     0.045 A 
HETATM   11  C   UNL     1      81.228  25.337  33.187  1.00  0.00     0.057 A 
HETATM   12  C   UNL     1      80.990  24.705  31.974  1.00  0.00     0.102 A 
HETATM   13  C   UNL     1      79.685  24.526  31.523  1.00  0.00     0.132 A 
HETATM   14  C   UNL     1      78.606  24.985  32.271  1.00  0.00     0.102 A 
HETATM   15  C   UNL     1      78.818  25.583  33.501  1.00  0.00     0.057 A 
BRANCH  12  16
HETATM   16  O   UNL     1      82.009  24.174  31.233  1.00  0.00    -0.358 OA
HETATM   17  H   UNL     1      81.845  23.217  31.147  1.00  0.00     0.217 HD
ENDBRANCH  12  16
BRANCH  13  18
HETATM   18  O   UNL     1      79.439  23.829  30.370  1.00  0.00    -0.356 OA
HETATM   19  H   UNL     1      79.632  24.472  29.658  1.00  0.00     0.218 HD
ENDBRANCH  13  18
BRANCH  14  20
HETATM   20  O   UNL     1      77.328  24.777  31.838  1.00  0.00    -0.358 OA
HETATM   21  H   UNL     1      76.885  24.359  32.607  1.00  0.00     0.217 HD
ENDBRANCH  14  20
ENDBRANCH   8  10
ENDBRANCH   7   8
ENDBRANCH   4   7
BRANCH   5  22
HETATM   22  O   UNL     1      78.317  25.621  38.302  1.00  0.00    -0.306 OA
BRANCH  22  23
HETATM   23  C   UNL     1      77.058  26.134  38.053  1.00  0.00     0.294 C 
HETATM   24  O   UNL     1      75.981  25.722  38.465  1.00  0.00    -0.259 OA
BRANCH  23  25
HETATM   25  C   UNL     1      77.050  27.293  37.165  1.00  0.00     0.045 A 
HETATM   26  C   UNL     1      76.420  27.190  35.913  1.00  0.00     0.057 A 
HETATM   27  C   UNL     1      76.434  28.285  35.062  1.00  0.00     0.102 A 
HETATM   28  C   UNL     1      77.091  29.447  35.445  1.00  0.00     0.132 A 
HETATM   29  C   UNL     1      77.804  29.494  36.636  1.00  0.00     0.102 A 
HETATM   30  C   UNL     1      77.805  28.413  37.500  1.00  0.00     0.057 A 
BRANCH  27  31
HETATM   31  O   UNL     1      75.820  28.260  33.843  1.00  0.00    -0.358 OA
HETATM   32  H   UNL     1      75.046  28.855  33.874  1.00  0.00     0.217 HD
ENDBRANCH  27  31
BRANCH  28  33
HETATM   33  O   UNL     1      77.051  30.561  34.653  1.00  0.00    -0.356 OA
HETATM   34  H   UNL     1      77.858  31.058  34.900  1.00  0.00     0.218 HD
ENDBRANCH  28  33
BRANCH  29  35
HETATM   35  O   UNL     1      78.515  30.606  36.972  1.00  0.00    -0.358 OA
HETATM   36  H   UNL     1      79.425  30.424  36.665  1.00  0.00     0.217 HD
ENDBRANCH  29  35
ENDBRANCH  23  25
ENDBRANCH  22  23
ENDBRANCH   5  22
BRANCH   6  37
HETATM   37  O   UNL     1      78.603  23.037  39.970  1.00  0.00    -0.304 OA
BRANCH  37  38
HETATM   38  C   UNL     1      78.498  21.792  40.508  1.00  0.00     0.294 C 
HETATM   39  O   UNL     1      77.637  20.963  40.300  1.00  0.00    -0.259 OA
BRANCH  38  40
HETATM   40  C   UNL     1      79.611  21.626  41.447  1.00  0.00     0.045 A 
HETATM   41  C   UNL     1      79.758  22.603  42.434  1.00  0.00     0.057 A 
HETATM   42  C   UNL     1      80.772  22.476  43.361  1.00  0.00     0.102 A 
HETATM   43  C   UNL     1      81.621  21.380  43.321  1.00  0.00     0.132 A 
HETATM   44  C   UNL     1      81.451  20.391  42.353  1.00  0.00     0.102 A 
HETATM   45  C   UNL     1      80.444  20.505  41.400  1.00  0.00     0.057 A 
BRANCH  42  46
HETATM   46  O   UNL     1      80.902  23.432  44.319  1.00  0.00    -0.358 OA
HETATM   47  H   UNL     1      81.277  22.971  45.095  1.00  0.00     0.217 HD
ENDBRANCH  42  46
BRANCH  43  48
HETATM   48  O   UNL     1      82.606  21.273  44.263  1.00  0.00    -0.356 OA
HETATM   49  H   UNL     1      82.317  21.871  44.982  1.00  0.00     0.218 HD
ENDBRANCH  43  48
BRANCH  44  50
HETATM   50  O   UNL     1      82.289  19.313  42.397  1.00  0.00    -0.358 OA
HETATM   51  H   UNL     1      82.885  19.359  41.628  1.00  0.00     0.217 HD
ENDBRANCH  44  50
ENDBRANCH  38  40
ENDBRANCH  37  38
ENDBRANCH   6  37
ENDBRANCH   2   4
BRANCH   2  52
HETATM   52  C   UNL     1      79.906  23.287  36.025  1.00  0.00     0.216 C 
BRANCH  52  53
HETATM   53  O   UNL     1      80.283  21.991  35.569  1.00  0.00    -0.315 OA
BRANCH  53  54
HETATM   54  C   UNL     1      79.366  21.044  35.810  1.00  0.00     0.293 C 
HETATM   55  O   UNL     1      78.779  20.854  36.857  1.00  0.00    -0.259 OA
BRANCH  54  56
HETATM   56  C   UNL     1      79.271  20.232  34.585  1.00  0.00     0.045 C 
HETATM   57  C   UNL     1      78.434  19.102  34.503  1.00  0.00     0.057 C 
HETATM   58  C   UNL     1      78.317  18.418  33.307  1.00  0.00     0.102 C 
HETATM   59  C   UNL     1      78.901  18.933  32.162  1.00  0.00     0.133 C 
HETATM   60  C   UNL     1      79.622  20.127  32.244  1.00  0.00     0.116 C 
HETATM   61  C   UNL     1      79.942  20.703  33.466  1.00  0.00     0.058 C 
BRANCH  58  62
HETATM   62  O   UNL     1      77.542  17.296  33.236  1.00  0.00    -0.358 OA
HETATM   63  H   UNL     1      76.726  17.596  32.784  1.00  0.00     0.217 HD
ENDBRANCH  58  62
BRANCH  59  64
HETATM   64  O   UNL     1      78.646  18.294  30.983  1.00  0.00    -0.356 OA
HETATM   65  H   UNL     1      77.803  17.809  31.083  1.00  0.00     0.218 HD
ENDBRANCH  59  64
BRANCH  60  66
HETATM   66  O   UNL     1      79.811  20.917  31.110  1.00  0.00    -0.272 OA
BRANCH  66  67
HETATM   67  C   UNL     1      81.144  20.752  30.755  1.00  0.00     0.298 C 
HETATM   68  O   UNL     1      82.041  21.456  31.194  1.00  0.00    -0.259 OA
BRANCH  67  69
HETATM   69  C   UNL     1      81.381  19.663  29.766  1.00  0.00     0.045 A 
HETATM   70  C   UNL     1      82.351  18.687  30.042  1.00  0.00     0.057 A 
HETATM   71  C   UNL     1      82.533  17.634  29.152  1.00  0.00     0.102 A 
HETATM   72  C   UNL     1      81.796  17.572  27.979  1.00  0.00     0.132 A 
HETATM   73  C   UNL     1      80.857  18.563  27.695  1.00  0.00     0.102 A 
HETATM   74  C   UNL     1      80.620  19.604  28.591  1.00  0.00     0.057 A 
BRANCH  71  75
HETATM   75  O   UNL     1      83.457  16.689  29.475  1.00  0.00    -0.358 OA
HETATM   76  H   UNL     1      83.133  16.165  30.238  1.00  0.00     0.217 HD
ENDBRANCH  71  75
BRANCH  72  77
HETATM   77  O   UNL     1      82.002  16.549  27.097  1.00  0.00    -0.356 OA
HETATM   78  H   UNL     1      81.143  16.423  26.644  1.00  0.00     0.218 HD
ENDBRANCH  72  77
BRANCH  73  79
HETATM   79  O   UNL     1      80.191  18.474  26.503  1.00  0.00    -0.358 OA
HETATM   80  H   UNL     1      79.800  19.345  26.303  1.00  0.00     0.217 HD
ENDBRANCH  73  79
ENDBRANCH  67  69
ENDBRANCH  66  67
ENDBRANCH  60  66
ENDBRANCH  54  56
ENDBRANCH  53  54
ENDBRANCH  52  53
ENDBRANCH   2  52
BRANCH   3  81
HETATM   81  O   UNL     1      82.737  24.004  36.505  1.00  0.00    -0.285 OA
BRANCH  81  82
HETATM   82  C   UNL     1      83.648  24.990  36.289  1.00  0.00     0.295 C 
HETATM   83  O   UNL     1      84.065  25.225  35.164  1.00  0.00    -0.259 OA
BRANCH  82  84
HETATM   84  C   UNL     1      84.007  25.870  37.435  1.00  0.00     0.045 A 
HETATM   85  C   UNL     1      83.551  27.191  37.531  1.00  0.00     0.057 A 
HETATM   86  C   UNL     1      84.008  27.993  38.576  1.00  0.00     0.102 A 
HETATM   87  C   UNL     1      84.922  27.505  39.503  1.00  0.00     0.132 A 
HETATM   88  C   UNL     1      85.389  26.203  39.401  1.00  0.00     0.102 A 
HETATM   89  C   UNL     1      84.940  25.382  38.371  1.00  0.00     0.057 A 
BRANCH  86  90
HETATM   90  O   UNL     1      83.576  29.285  38.687  1.00  0.00    -0.358 OA
HETATM   91  H   UNL     1      83.015  29.276  39.493  1.00  0.00     0.217 HD
ENDBRANCH  86  90
BRANCH  87  92
HETATM   92  O   UNL     1      85.365  28.336  40.497  1.00  0.00    -0.356 OA
HETATM   93  H   UNL     1      84.643  28.327  41.160  1.00  0.00     0.218 HD
ENDBRANCH  87  92
BRANCH  88  94
HETATM   94  O   UNL     1      86.305  25.780  40.325  1.00  0.00    -0.358 OA
HETATM   95  H   UNL     1      86.224  26.350  41.112  1.00  0.00     0.217 HD
ENDBRANCH  88  94
ENDBRANCH  82  84
ENDBRANCH  81  82
ENDBRANCH   3  81
TORSDOF 38
ENDMDL
MODEL 9
REMARK VINA RESULT:   -10.415      1.170      2.518
REMARK INTER + INTRA:         -24.291
REMARK INTER:                 -25.269
REMARK INTRA:                   0.978
REMARK UNBOUND:                 2.564
REMARK WARNING: 32 MAX_TORS EXCEEDED!!!
REMARK  38 active torsions:
REMARK  status: ('A' for Active; 'I' for Inactive)
REMARK    1  A    between atoms: O_2  and  C_27 
REMARK    2  A    between atoms: O_2  and  C_33 
REMARK    3  A    between atoms: O_3  and  C_28 
REMARK    4  A    between atoms: O_3  and  C_34 
REMARK    5  A    between atoms: O_4  and  C_29 
REMARK    6  A    between atoms: O_4  and  C_35 
REMARK    7  A    between atoms: O_5  and  C_31 
REMARK    8  A    between atoms: O_5  and  C_36 
REMARK    9  A    between atoms: O_6  and  C_32 
REMARK   10  A    between atoms: O_6  and  C_39 
REMARK   11  A    between atoms: O_12  and  C_51 
REMARK   12  A    between atoms: O_13  and  C_52 
REMARK   13  A    between atoms: O_14  and  C_53 
REMARK   14  A    between atoms: O_15  and  C_54 
REMARK   15  A    between atoms: O_16  and  C_55 
REMARK   16  A    between atoms: O_17  and  C_56 
REMARK   17  A    between atoms: O_18  and  C_59 
REMARK   18  A    between atoms: O_19  and  C_60 
REMARK   19  A    between atoms: O_20  and  C_61 
REMARK   20  A    between atoms: O_21  and  C_62 
REMARK   21  A    between atoms: O_22  and  C_63 
REMARK   22  A    between atoms: O_23  and  C_64 
REMARK   23  A    between atoms: O_24  and  C_65 
REMARK   24  A    between atoms: O_24  and  C_86 
REMARK   25  A    between atoms: O_25  and  C_66 
REMARK   26  A    between atoms: O_26  and  C_67 
REMARK   27  A    between atoms: C_28  and  C_30 
REMARK   28  A    between atoms: C_29  and  C_31 
REMARK   29  A    between atoms: C_30  and  C_32 
REMARK   30  A    between atoms: C_33  and  C_37 
REMARK   31  A    between atoms: C_34  and  C_38 
REMARK   32  A    between atoms: C_35  and  C_40 
REMARK   33  A    between atoms: C_36  and  C_41 
REMARK   34  A    between atoms: C_39  and  C_42 
REMARK   35  A    between atoms: O_83  and  C_90 
REMARK   36  A    between atoms: O_84  and  C_91 
REMARK   37  A    between atoms: O_85  and  C_92 
REMARK   38  A    between atoms: C_86  and  C_87 
ROOT
HETATM    1  O   UNL     1      80.487  22.459  37.701  1.00  0.00    -0.348 OA
HETATM    2  C   UNL     1      79.890  23.614  37.296  1.00  0.00     0.201 A 
HETATM    3  C   UNL     1      81.308  23.531  37.455  1.00  0.00     0.282 A 
ENDROOT
BRANCH   2   4
HETATM    4  C   UNL     1      79.874  24.271  37.794  1.00  0.00     0.199 A 
HETATM    5  C   UNL     1      78.409  24.763  38.127  1.00  0.00     0.198 A 
HETATM    6  C   UNL     1      79.029  23.561  38.702  1.00  0.00     0.215 A 
BRANCH   4   7
HETATM    7  O   UNL     1      79.747  25.375  36.448  1.00  0.00    -0.306 OA
BRANCH   7   8
HETATM    8  C   UNL     1      79.978  26.536  35.861  1.00  0.00     0.294 C 
HETATM    9  O   UNL     1      80.695  27.397  36.360  1.00  0.00    -0.259 OA
BRANCH   8  10
HETATM   10  C   UNL     1      79.432  26.813  34.544  1.00  0.00     0.045 A 
HETATM   11  C   UNL     1      80.043  26.205  33.440  1.00  0.00     0.057 A 
HETATM   12  C   UNL     1      79.304  26.051  32.276  1.00  0.00     0.102 A 
HETATM   13  C   UNL     1      77.992  26.517  32.212  1.00  0.00     0.132 A 
HETATM   14  C   UNL     1      77.411  27.149  33.306  1.00  0.00     0.102 A 
HETATM   15  C   UNL     1      78.116  27.279  34.490  1.00  0.00     0.057 A 
BRANCH  12  16
HETATM   16  O   UNL     1      79.803  25.377  31.196  1.00  0.00    -0.358 OA
HETATM   17  H   UNL     1      79.165  24.677  30.963  1.00  0.00     0.217 HD
ENDBRANCH  12  16
BRANCH  13  18
HETATM   18  O   UNL     1      77.230  26.293  31.098  1.00  0.00    -0.356 OA
HETATM   19  H   UNL     1      77.665  25.533  30.661  1.00  0.00     0.218 HD
ENDBRANCH  13  18
BRANCH  14  20
HETATM   20  O   UNL     1      76.114  27.574  33.248  1.00  0.00    -0.358 OA
HETATM   21  H   UNL     1      75.653  27.008  33.903  1.00  0.00     0.217 HD
ENDBRANCH  14  20
ENDBRANCH   8  10
ENDBRANCH   7   8
ENDBRANCH   4   7
BRANCH   5  22
HETATM   22  O   UNL     1      78.477  25.984  39.065  1.00  0.00    -0.306 OA
BRANCH  22  23
HETATM   23  C   UNL     1      77.368  26.758  39.351  1.00  0.00     0.294 C 
HETATM   24  O   UNL     1      76.589  26.641  40.289  1.00  0.00    -0.259 OA
BRANCH  23  25
HETATM   25  C   UNL     1      77.114  27.818  38.381  1.00  0.00     0.045 A 
HETATM   26  C   UNL     1      75.988  27.723  37.545  1.00  0.00     0.057 A 
HETATM   27  C   UNL     1      75.761  28.721  36.609  1.00  0.00     0.102 A 
HETATM   28  C   UNL     1      76.659  29.774  36.491  1.00  0.00     0.132 A 
HETATM   29  C   UNL     1      77.826  29.792  37.245  1.00  0.00     0.102 A 
HETATM   30  C   UNL     1      78.073  28.808  38.186  1.00  0.00     0.057 A 
BRANCH  27  31
HETATM   31  O   UNL     1      74.673  28.703  35.784  1.00  0.00    -0.358 OA
HETATM   32  H   UNL     1      74.530  29.606  35.441  1.00  0.00     0.217 HD
ENDBRANCH  27  31
BRANCH  28  33
HETATM   33  O   UNL     1      76.413  30.804  35.626  1.00  0.00    -0.356 OA
HETATM   34  H   UNL     1      76.522  31.607  36.176  1.00  0.00     0.218 HD
ENDBRANCH  28  33
BRANCH  29  35
HETATM   35  O   UNL     1      78.744  30.782  37.071  1.00  0.00    -0.358 OA
HETATM   36  H   UNL     1      78.217  31.595  36.946  1.00  0.00     0.217 HD
ENDBRANCH  29  35
ENDBRANCH  23  25
ENDBRANCH  22  23
ENDBRANCH   5  22
BRANCH   6  37
HETATM   37  O   UNL     1      78.243  23.069  40.061  1.00  0.00    -0.304 OA
BRANCH  37  38
HETATM   38  C   UNL     1      78.694  23.202  41.338  1.00  0.00     0.294 C 
HETATM   39  O   UNL     1      78.417  24.073  42.136  1.00  0.00    -0.259 OA
BRANCH  38  40
HETATM   40  C   UNL     1      79.637  22.109  41.584  1.00  0.00     0.045 A 
HETATM   41  C   UNL     1      80.545  22.279  42.632  1.00  0.00     0.057 A 
HETATM   42  C   UNL     1      81.434  21.264  42.923  1.00  0.00     0.102 A 
HETATM   43  C   UNL     1      81.410  20.085  42.195  1.00  0.00     0.132 A 
HETATM   44  C   UNL     1      80.483  19.907  41.170  1.00  0.00     0.102 A 
HETATM   45  C   UNL     1      79.585  20.920  40.849  1.00  0.00     0.057 A 
BRANCH  42  46
HETATM   46  O   UNL     1      82.310  21.441  43.949  1.00  0.00    -0.358 OA
HETATM   47  H   UNL     1      82.242  22.386  44.187  1.00  0.00     0.217 HD
ENDBRANCH  42  46
BRANCH  43  48
HETATM   48  O   UNL     1      82.293  19.092  42.518  1.00  0.00    -0.356 OA
HETATM   49  H   UNL     1      83.159  19.545  42.564  1.00  0.00     0.218 HD
ENDBRANCH  43  48
BRANCH  44  50
HETATM   50  O   UNL     1      80.479  18.704  40.522  1.00  0.00    -0.358 OA
HETATM   51  H   UNL     1      79.784  18.147  40.918  1.00  0.00     0.217 HD
ENDBRANCH  44  50
ENDBRANCH  38  40
ENDBRANCH  37  38
ENDBRANCH   6  37
ENDBRANCH   2   4
BRANCH   2  52
HETATM   52  C   UNL     1      78.894  24.016  36.035  1.00  0.00     0.216 C 
BRANCH  52  53
HETATM   53  O   UNL     1      78.694  22.810  35.303  1.00  0.00    -0.315 OA
BRANCH  53  54
HETATM   54  C   UNL     1      77.422  22.385  35.295  1.00  0.00     0.293 C 
HETATM   55  O   UNL     1      76.695  22.259  36.261  1.00  0.00    -0.259 OA
BRANCH  54  56
HETATM   56  C   UNL     1      77.110  22.025  33.902  1.00  0.00     0.045 C 
HETATM   57  C   UNL     1      76.856  23.002  32.919  1.00  0.00     0.057 C 
HETATM   58  C   UNL     1      76.646  22.618  31.607  1.00  0.00     0.102 C 
HETATM   59  C   UNL     1      76.834  21.297  31.240  1.00  0.00     0.133 C 
HETATM   60  C   UNL     1      77.212  20.367  32.212  1.00  0.00     0.116 C 
HETATM   61  C   UNL     1      77.204  20.683  33.564  1.00  0.00     0.058 C 
BRANCH  58  62
HETATM   62  O   UNL     1      76.355  23.558  30.661  1.00  0.00    -0.358 OA
HETATM   63  H   UNL     1      76.135  24.361  31.178  1.00  0.00     0.217 HD
ENDBRANCH  58  62
BRANCH  59  64
HETATM   64  O   UNL     1      76.746  20.994  29.911  1.00  0.00    -0.356 OA
HETATM   65  H   UNL     1      75.820  20.744  29.724  1.00  0.00     0.218 HD
ENDBRANCH  59  64
BRANCH  60  66
HETATM   66  O   UNL     1      77.861  19.187  31.847  1.00  0.00    -0.272 OA
BRANCH  66  67
HETATM   67  C   UNL     1      79.203  19.391  32.140  1.00  0.00     0.298 C 
HETATM   68  O   UNL     1      79.734  18.969  33.156  1.00  0.00    -0.259 OA
BRANCH  67  69
HETATM   69  C   UNL     1      79.933  20.199  31.123  1.00  0.00     0.045 A 
HETATM   70  C   UNL     1      80.002  19.733  29.800  1.00  0.00     0.057 A 
HETATM   71  C   UNL     1      80.628  20.513  28.834  1.00  0.00     0.102 A 
HETATM   72  C   UNL     1      81.220  21.719  29.181  1.00  0.00     0.132 A 
HETATM   73  C   UNL     1      81.175  22.161  30.503  1.00  0.00     0.102 A 
HETATM   74  C   UNL     1      80.513  21.422  31.482  1.00  0.00     0.057 A 
BRANCH  71  75
HETATM   75  O   UNL     1      80.642  20.044  27.558  1.00  0.00    -0.358 OA
HETATM   76  H   UNL     1      80.332  20.748  26.949  1.00  0.00     0.217 HD
ENDBRANCH  71  75
BRANCH  72  77
HETATM   77  O   UNL     1      81.856  22.465  28.230  1.00  0.00    -0.356 OA
HETATM   78  H   UNL     1      81.382  22.274  27.394  1.00  0.00     0.218 HD
ENDBRANCH  72  77
BRANCH  73  79
HETATM   79  O   UNL     1      81.813  23.336  30.795  1.00  0.00    -0.358 OA
HETATM   80  H   UNL     1      81.586  23.988  30.107  1.00  0.00     0.217 HD
ENDBRANCH  73  79
ENDBRANCH  67  69
ENDBRANCH  66  67
ENDBRANCH  60  66
ENDBRANCH  54  56
ENDBRANCH  53  54
ENDBRANCH  52  53
ENDBRANCH   2  52
BRANCH   3  81
HETATM   81  O   UNL     1      81.845  23.797  36.012  1.00  0.00    -0.285 OA
BRANCH  81  82
HETATM   82  C   UNL     1      82.934  24.585  35.804  1.00  0.00     0.295 C 
HETATM   83  O   UNL     1      83.185  25.028  34.692  1.00  0.00    -0.259 OA
BRANCH  82  84
HETATM   84  C   UNL     1      83.722  25.012  36.992  1.00  0.00     0.045 A 
HETATM   85  C   UNL     1      83.438  26.193  37.689  1.00  0.00     0.057 A 
HETATM   86  C   UNL     1      84.278  26.588  38.729  1.00  0.00     0.102 A 
HETATM   87  C   UNL     1      85.400  25.838  39.063  1.00  0.00     0.132 A 
HETATM   88  C   UNL     1      85.695  24.677  38.364  1.00  0.00     0.102 A 
HETATM   89  C   UNL     1      84.865  24.260  37.328  1.00  0.00     0.057 A 
BRANCH  86  90
HETATM   90  O   UNL     1      84.018  27.738  39.421  1.00  0.00    -0.358 OA
HETATM   91  H   UNL     1      83.689  27.419  40.289  1.00  0.00     0.217 HD
ENDBRANCH  86  90
BRANCH  87  92
HETATM   92  O   UNL     1      86.213  26.277  40.074  1.00  0.00    -0.356 OA
HETATM   93  H   UNL     1      86.742  25.488  40.319  1.00  0.00     0.218 HD
ENDBRANCH  87  92
BRANCH  88  94
HETATM   94  O   UNL     1      86.823  23.989  38.718  1.00  0.00    -0.358 OA
HETATM   95  H   UNL     1      86.547  23.144  39.119  1.00  0.00     0.217 HD
ENDBRANCH  88  94
ENDBRANCH  82  84
ENDBRANCH  81  82
ENDBRANCH   3  81
TORSDOF 38
ENDMDL
MODEL 10
REMARK VINA RESULT:   -10.362      1.422      2.525
REMARK INTER + INTRA:         -24.154
REMARK INTER:                 -26.718
REMARK INTRA:                   2.564
REMARK UNBOUND:                 2.564
REMARK WARNING: 32 MAX_TORS EXCEEDED!!!
REMARK  38 active torsions:
REMARK  status: ('A' for Active; 'I' for Inactive)
REMARK    1  A    between atoms: O_2  and  C_27 
REMARK    2  A    between atoms: O_2  and  C_33 
REMARK    3  A    between atoms: O_3  and  C_28 
REMARK    4  A    between atoms: O_3  and  C_34 
REMARK    5  A    between atoms: O_4  and  C_29 
REMARK    6  A    between atoms: O_4  and  C_35 
REMARK    7  A    between atoms: O_5  and  C_31 
REMARK    8  A    between atoms: O_5  and  C_36 
REMARK    9  A    between atoms: O_6  and  C_32 
REMARK   10  A    between atoms: O_6  and  C_39 
REMARK   11  A    between atoms: O_12  and  C_51 
REMARK   12  A    between atoms: O_13  and  C_52 
REMARK   13  A    between atoms: O_14  and  C_53 
REMARK   14  A    between atoms: O_15  and  C_54 
REMARK   15  A    between atoms: O_16  and  C_55 
REMARK   16  A    between atoms: O_17  and  C_56 
REMARK   17  A    between atoms: O_18  and  C_59 
REMARK   18  A    between atoms: O_19  and  C_60 
REMARK   19  A    between atoms: O_20  and  C_61 
REMARK   20  A    between atoms: O_21  and  C_62 
REMARK   21  A    between atoms: O_22  and  C_63 
REMARK   22  A    between atoms: O_23  and  C_64 
REMARK   23  A    between atoms: O_24  and  C_65 
REMARK   24  A    between atoms: O_24  and  C_86 
REMARK   25  A    between atoms: O_25  and  C_66 
REMARK   26  A    between atoms: O_26  and  C_67 
REMARK   27  A    between atoms: C_28  and  C_30 
REMARK   28  A    between atoms: C_29  and  C_31 
REMARK   29  A    between atoms: C_30  and  C_32 
REMARK   30  A    between atoms: C_33  and  C_37 
REMARK   31  A    between atoms: C_34  and  C_38 
REMARK   32  A    between atoms: C_35  and  C_40 
REMARK   33  A    between atoms: C_36  and  C_41 
REMARK   34  A    between atoms: C_39  and  C_42 
REMARK   35  A    between atoms: O_83  and  C_90 
REMARK   36  A    between atoms: O_84  and  C_91 
REMARK   37  A    between atoms: O_85  and  C_92 
REMARK   38  A    between atoms: C_86  and  C_87 
ROOT
HETATM    1  O   UNL     1      81.188  22.196  37.578  1.00  0.00    -0.348 OA
HETATM    2  C   UNL     1      80.308  22.816  36.746  1.00  0.00     0.201 A 
HETATM    3  C   UNL     1      81.531  23.446  37.130  1.00  0.00     0.282 A 
ENDROOT
BRANCH   2   4
HETATM    4  C   UNL     1      79.887  23.476  37.002  1.00  0.00     0.199 A 
HETATM    5  C   UNL     1      78.320  23.267  36.972  1.00  0.00     0.198 A 
HETATM    6  C   UNL     1      79.216  22.672  37.973  1.00  0.00     0.215 A 
BRANCH   4   7
HETATM    7  O   UNL     1      79.663  24.052  35.369  1.00  0.00    -0.306 OA
BRANCH   7   8
HETATM    8  C   UNL     1      79.381  24.998  34.490  1.00  0.00     0.294 C 
HETATM    9  O   UNL     1      78.802  24.766  33.433  1.00  0.00    -0.259 OA
BRANCH   8  10
HETATM   10  C   UNL     1      79.693  26.386  34.781  1.00  0.00     0.045 A 
HETATM   11  C   UNL     1      79.048  27.375  34.029  1.00  0.00     0.057 A 
HETATM   12  C   UNL     1      78.944  28.651  34.564  1.00  0.00     0.102 A 
HETATM   13  C   UNL     1      79.493  28.934  35.813  1.00  0.00     0.132 A 
HETATM   14  C   UNL     1      80.161  27.949  36.533  1.00  0.00     0.102 A 
HETATM   15  C   UNL     1      80.243  26.660  36.036  1.00  0.00     0.057 A 
BRANCH  12  16
HETATM   16  O   UNL     1      78.240  29.637  33.930  1.00  0.00    -0.358 OA
HETATM   17  H   UNL     1      78.593  30.494  34.231  1.00  0.00     0.217 HD
ENDBRANCH  12  16
BRANCH  13  18
HETATM   18  O   UNL     1      79.320  30.165  36.384  1.00  0.00    -0.356 OA
HETATM   19  H   UNL     1      79.756  30.086  37.257  1.00  0.00     0.218 HD
ENDBRANCH  13  18
BRANCH  14  20
HETATM   20  O   UNL     1      80.668  28.224  37.770  1.00  0.00    -0.358 OA
HETATM   21  H   UNL     1      81.556  28.595  37.583  1.00  0.00     0.217 HD
ENDBRANCH  14  20
ENDBRANCH   8  10
ENDBRANCH   7   8
ENDBRANCH   4   7
BRANCH   5  22
HETATM   22  O   UNL     1      77.621  24.546  37.472  1.00  0.00    -0.306 OA
BRANCH  22  23
HETATM   23  C   UNL     1      76.372  24.930  37.021  1.00  0.00     0.294 C 
HETATM   24  O   UNL     1      75.422  24.212  36.731  1.00  0.00    -0.259 OA
BRANCH  23  25
HETATM   25  C   UNL     1      76.212  26.371  36.858  1.00  0.00     0.045 A 
HETATM   26  C   UNL     1      75.673  26.868  35.659  1.00  0.00     0.057 A 
HETATM   27  C   UNL     1      75.543  28.239  35.498  1.00  0.00     0.102 A 
HETATM   28  C   UNL     1      75.974  29.095  36.504  1.00  0.00     0.132 A 
HETATM   29  C   UNL     1      76.608  28.593  37.633  1.00  0.00     0.102 A 
HETATM   30  C   UNL     1      76.749  27.228  37.814  1.00  0.00     0.057 A 
BRANCH  27  31
HETATM   31  O   UNL     1      75.005  28.786  34.369  1.00  0.00    -0.358 OA
HETATM   32  H   UNL     1      75.732  29.116  33.808  1.00  0.00     0.217 HD
ENDBRANCH  27  31
BRANCH  28  33
HETATM   33  O   UNL     1      75.786  30.445  36.395  1.00  0.00    -0.356 OA
HETATM   34  H   UNL     1      75.218  30.543  35.603  1.00  0.00     0.218 HD
ENDBRANCH  28  33
BRANCH  29  35
HETATM   35  O   UNL     1      77.102  29.437  38.580  1.00  0.00    -0.358 OA
HETATM   36  H   UNL     1      76.317  29.885  38.951  1.00  0.00     0.217 HD
ENDBRANCH  29  35
ENDBRANCH  23  25
ENDBRANCH  22  23
ENDBRANCH   5  22
BRANCH   6  37
HETATM   37  O   UNL     1      78.386  22.182  39.307  1.00  0.00    -0.304 OA
BRANCH  37  38
HETATM   38  C   UNL     1      78.473  20.960  39.898  1.00  0.00     0.294 C 
HETATM   39  O   UNL     1      77.794  19.979  39.678  1.00  0.00    -0.259 OA
BRANCH  38  40
HETATM   40  C   UNL     1      79.527  21.038  40.913  1.00  0.00     0.045 A 
HETATM   41  C   UNL     1      79.538  22.171  41.729  1.00  0.00     0.057 A 
HETATM   42  C   UNL     1      80.493  22.277  42.719  1.00  0.00     0.102 A 
HETATM   43  C   UNL     1      81.416  21.261  42.911  1.00  0.00     0.132 A 
HETATM   44  C   UNL     1      81.382  20.118  42.114  1.00  0.00     0.102 A 
HETATM   45  C   UNL     1      80.438  19.994  41.101  1.00  0.00     0.057 A 
BRANCH  42  46
HETATM   46  O   UNL     1      80.491  23.384  43.510  1.00  0.00    -0.358 OA
HETATM   47  H   UNL     1      81.427  23.539  43.741  1.00  0.00     0.217 HD
ENDBRANCH  42  46
BRANCH  43  48
HETATM   48  O   UNL     1      82.340  21.388  43.911  1.00  0.00    -0.356 OA
HETATM   49  H   UNL     1      81.975  22.090  44.488  1.00  0.00     0.218 HD
ENDBRANCH  43  48
BRANCH  44  50
HETATM   50  O   UNL     1      82.288  19.131  42.385  1.00  0.00    -0.358 OA
HETATM   51  H   UNL     1      81.815  18.280  42.403  1.00  0.00     0.217 HD
ENDBRANCH  44  50
ENDBRANCH  38  40
ENDBRANCH  37  38
ENDBRANCH   6  37
ENDBRANCH   2   4
BRANCH   2  52
HETATM   52  C   UNL     1      79.625  22.419  35.290  1.00  0.00     0.216 C 
BRANCH  52  53
HETATM   53  O   UNL     1      80.282  21.228  34.867  1.00  0.00    -0.315 OA
BRANCH  53  54
HETATM   54  C   UNL     1      79.582  20.509  33.978  1.00  0.00     0.293 C 
HETATM   55  O   UNL     1      79.021  19.450  34.184  1.00  0.00    -0.259 OA
BRANCH  54  56
HETATM   56  C   UNL     1      79.697  21.211  32.688  1.00  0.00     0.045 C 
HETATM   57  C   UNL     1      80.828  21.983  32.358  1.00  0.00     0.057 C 
HETATM   58  C   UNL     1      80.926  22.558  31.104  1.00  0.00     0.102 C 
HETATM   59  C   UNL     1      79.989  22.249  30.133  1.00  0.00     0.133 C 
HETATM   60  C   UNL     1      78.944  21.376  30.447  1.00  0.00     0.116 C 
HETATM   61  C   UNL     1      78.699  20.973  31.754  1.00  0.00     0.058 C 
BRANCH  58  62
HETATM   62  O   UNL     1      81.998  23.344  30.796  1.00  0.00    -0.358 OA
HETATM   63  H   UNL     1      81.673  23.923  30.075  1.00  0.00     0.217 HD
ENDBRANCH  58  62
BRANCH  59  64
HETATM   64  O   UNL     1      80.203  22.734  28.875  1.00  0.00    -0.356 OA
HETATM   65  H   UNL     1      81.139  22.572  28.648  1.00  0.00     0.218 HD
ENDBRANCH  59  64
BRANCH  60  66
HETATM   66  O   UNL     1      78.282  20.674  29.440  1.00  0.00    -0.272 OA
BRANCH  66  67
HETATM   67  C   UNL     1      78.442  19.329  29.753  1.00  0.00     0.298 C 
HETATM   68  O   UNL     1      77.659  18.714  30.461  1.00  0.00    -0.259 OA
BRANCH  67  69
HETATM   69  C   UNL     1      79.670  18.712  29.177  1.00  0.00     0.045 A 
HETATM   70  C   UNL     1      79.882  18.775  27.791  1.00  0.00     0.057 A 
HETATM   71  C   UNL     1      81.055  18.255  27.255  1.00  0.00     0.102 A 
HETATM   72  C   UNL     1      81.987  17.638  28.076  1.00  0.00     0.132 A 
HETATM   73  C   UNL     1      81.755  17.549  29.448  1.00  0.00     0.102 A 
HETATM   74  C   UNL     1      80.610  18.104  30.018  1.00  0.00     0.057 A 
BRANCH  71  75
HETATM   75  O   UNL     1      81.239  18.370  25.913  1.00  0.00    -0.358 OA
HETATM   76  H   UNL     1      80.367  18.447  25.470  1.00  0.00     0.217 HD
ENDBRANCH  71  75
BRANCH  72  77
HETATM   77  O   UNL     1      83.124  17.105  27.537  1.00  0.00    -0.356 OA
HETATM   78  H   UNL     1      83.792  17.819  27.588  1.00  0.00     0.218 HD
ENDBRANCH  72  77
BRANCH  73  79
HETATM   79  O   UNL     1      82.688  16.891  30.202  1.00  0.00    -0.358 OA
HETATM   80  H   UNL     1      83.481  17.454  30.272  1.00  0.00     0.217 HD
ENDBRANCH  73  79
ENDBRANCH  67  69
ENDBRANCH  66  67
ENDBRANCH  60  66
ENDBRANCH  54  56
ENDBRANCH  53  54
ENDBRANCH  52  53
ENDBRANCH   2  52
BRANCH   3  81
HETATM   81  O   UNL     1      82.287  23.617  35.774  1.00  0.00    -0.285 OA
BRANCH  81  82
HETATM   82  C   UNL     1      83.164  24.639  35.584  1.00  0.00     0.295 C 
HETATM   83  O   UNL     1      83.180  25.267  34.534  1.00  0.00    -0.259 OA
BRANCH  82  84
HETATM   84  C   UNL     1      83.997  25.066  36.742  1.00  0.00     0.045 A 
HETATM   85  C   UNL     1      85.063  24.292  37.217  1.00  0.00     0.057 A 
HETATM   86  C   UNL     1      85.737  24.697  38.368  1.00  0.00     0.102 A 
HETATM   87  C   UNL     1      85.348  25.841  39.056  1.00  0.00     0.132 A 
HETATM   88  C   UNL     1      84.281  26.600  38.600  1.00  0.00     0.102 A 
HETATM   89  C   UNL     1      83.599  26.219  37.448  1.00  0.00     0.057 A 
BRANCH  86  90
HETATM   90  O   UNL     1      86.781  23.956  38.848  1.00  0.00    -0.358 OA
HETATM   91  H   UNL     1      87.504  24.611  38.952  1.00  0.00     0.217 HD
ENDBRANCH  86  90
BRANCH  87  92
HETATM   92  O   UNL     1      86.020  26.188  40.198  1.00  0.00    -0.356 OA
HETATM   93  H   UNL     1      85.722  25.532  40.863  1.00  0.00     0.218 HD
ENDBRANCH  87  92
BRANCH  88  94
HETATM   94  O   UNL     1      83.925  27.703  39.327  1.00  0.00    -0.358 OA
HETATM   95  H   UNL     1      84.049  28.488  38.762  1.00  0.00     0.217 HD
ENDBRANCH  88  94
ENDBRANCH  82  84
ENDBRANCH  81  82
ENDBRANCH   3  81
TORSDOF 38
ENDMDL
