MODEL 1
REMARK VINA RESULT:    -9.119      0.000      0.000
REMARK INTER + INTRA:         -26.114
REMARK INTER:                 -24.847
REMARK INTRA:                  -1.268
REMARK UNBOUND:                -1.268
REMARK WARNING: 32 MAX_TORS EXCEEDED!!!
REMARK  43 active torsions:
REMARK  status: ('A' for Active; 'I' for Inactive)
REMARK    1  A    between atoms: O_2  and  C_27 
REMARK    2  A    between atoms: O_2  and  C_33 
REMARK    3  A    between atoms: O_3  and  C_28 
REMARK    4  A    between atoms: O_3  and  C_34 
REMARK    5  A    between atoms: O_4  and  C_29 
REMARK    6  A    between atoms: O_4  and  C_35 
REMARK    7  A    between atoms: O_5  and  C_31 
REMARK    8  A    between atoms: O_5  and  C_36 
REMARK    9  A    between atoms: O_6  and  C_32 
REMARK   10  A    between atoms: O_6  and  C_39 
REMARK   11  A    between atoms: O_12  and  C_51 
REMARK   12  A    between atoms: O_13  and  C_52 
REMARK   13  A    between atoms: O_13  and  C_99 
REMARK   14  A    between atoms: O_14  and  C_53 
REMARK   15  A    between atoms: O_15  and  C_54 
REMARK   16  A    between atoms: O_16  and  C_55 
REMARK   17  A    between atoms: O_17  and  C_56 
REMARK   18  A    between atoms: O_18  and  C_59 
REMARK   19  A    between atoms: O_19  and  C_60 
REMARK   20  A    between atoms: O_20  and  C_61 
REMARK   21  A    between atoms: O_21  and  C_62 
REMARK   22  A    between atoms: O_22  and  C_63 
REMARK   23  A    between atoms: O_23  and  C_64 
REMARK   24  A    between atoms: O_24  and  C_65 
REMARK   25  A    between atoms: O_24  and  C_85 
REMARK   26  A    between atoms: O_25  and  C_66 
REMARK   27  A    between atoms: O_26  and  C_67 
REMARK   28  A    between atoms: C_28  and  C_30 
REMARK   29  A    between atoms: C_29  and  C_31 
REMARK   30  A    between atoms: C_30  and  C_32 
REMARK   31  A    between atoms: C_33  and  C_37 
REMARK   32  A    between atoms: C_34  and  C_38 
REMARK   33  A    between atoms: C_35  and  C_40 
REMARK   34  A    between atoms: C_36  and  C_41 
REMARK   35  A    between atoms: C_39  and  C_42 
REMARK   36  A    between atoms: O_82  and  C_89 
REMARK   37  A    between atoms: O_83  and  C_90 
REMARK   38  A    between atoms: O_84  and  C_91 
REMARK   39  A    between atoms: C_85  and  C_86 
REMARK   40  A    between atoms: O_96  and  C_103 
REMARK   41  A    between atoms: O_97  and  C_104 
REMARK   42  A    between atoms: O_98  and  C_105 
REMARK   43  A    between atoms: C_99  and  C_100 
ROOT
HETATM    1  O   UNL     1     -37.858  13.534  54.810  1.00  0.00    -0.348 OA
HETATM    2  C   UNL     1     -39.064  14.061  54.453  1.00  0.00     0.201 A 
HETATM    3  C   UNL     1     -38.695  12.722  54.118  1.00  0.00     0.282 A 
ENDROOT
BRANCH   2   4
HETATM    4  C   UNL     1     -39.234  14.213  53.660  1.00  0.00     0.199 A 
HETATM    5  C   UNL     1     -39.748  15.736  53.516  1.00  0.00     0.198 A 
HETATM    6  C   UNL     1     -38.342  15.329  53.683  1.00  0.00     0.215 A 
BRANCH   4   7
HETATM    7  O   UNL     1     -40.930  13.881  53.824  1.00  0.00    -0.306 OA
BRANCH   7   8
HETATM    8  C   UNL     1     -42.048  13.465  53.251  1.00  0.00     0.294 C 
HETATM    9  O   UNL     1     -43.045  14.172  53.151  1.00  0.00    -0.259 OA
BRANCH   8  10
HETATM   10  C   UNL     1     -42.056  12.165  52.604  1.00  0.00     0.045 A 
HETATM   11  C   UNL     1     -43.140  11.321  52.878  1.00  0.00     0.057 A 
HETATM   12  C   UNL     1     -43.449  10.321  51.974  1.00  0.00     0.102 A 
HETATM   13  C   UNL     1     -42.662  10.149  50.842  1.00  0.00     0.132 A 
HETATM   14  C   UNL     1     -41.514  10.914  50.652  1.00  0.00     0.102 A 
HETATM   15  C   UNL     1     -41.210  11.949  51.518  1.00  0.00     0.057 A 
BRANCH  12  16
HETATM   16  O   UNL     1     -44.545   9.522  52.135  1.00  0.00    -0.358 OA
HETATM   17  H   UNL     1     -44.912   9.709  53.020  1.00  0.00     0.217 HD
ENDBRANCH  12  16
BRANCH  13  18
HETATM   18  O   UNL     1     -43.034   9.271  49.861  1.00  0.00    -0.356 OA
HETATM   19  H   UNL     1     -43.858   9.661  49.502  1.00  0.00     0.218 HD
ENDBRANCH  13  18
BRANCH  14  20
HETATM   20  O   UNL     1     -40.716  10.674  49.572  1.00  0.00    -0.358 OA
HETATM   21  H   UNL     1     -39.852  10.442  49.967  1.00  0.00     0.217 HD
ENDBRANCH  14  20
ENDBRANCH   8  10
ENDBRANCH   7   8
ENDBRANCH   4   7
BRANCH   5  22
HETATM   22  O   UNL     1     -40.092  16.111  52.157  1.00  0.00    -0.306 OA
BRANCH  22  23
HETATM   23  C   UNL     1     -41.021  17.079  52.023  1.00  0.00     0.294 C 
HETATM   24  O   UNL     1     -42.216  17.126  52.284  1.00  0.00    -0.259 OA
BRANCH  23  25
HETATM   25  C   UNL     1     -40.414  18.209  51.447  1.00  0.00     0.045 C 
HETATM   26  C   UNL     1     -40.982  18.447  50.222  1.00  0.00     0.058 C 
HETATM   27  C   UNL     1     -40.078  18.635  49.225  1.00  0.00     0.116 C 
HETATM   28  C   UNL     1     -38.773  19.066  49.527  1.00  0.00     0.133 C 
HETATM   29  C   UNL     1     -38.306  19.004  50.839  1.00  0.00     0.102 C 
HETATM   30  C   UNL     1     -39.089  18.423  51.789  1.00  0.00     0.057 C 
BRANCH  27  31
HETATM   31  O   UNL     1     -40.408  18.206  47.930  1.00  0.00    -0.272 OA
BRANCH  31  32
HETATM   32  C   UNL     1     -41.743  18.249  47.476  1.00  0.00     0.298 C 
HETATM   33  O   UNL     1     -42.451  19.151  47.126  1.00  0.00    -0.259 OA
BRANCH  32  34
HETATM   34  C   UNL     1     -41.945  16.825  47.207  1.00  0.00     0.045 C 
HETATM   35  C   UNL     1     -42.696  16.083  48.118  1.00  0.00     0.057 C 
HETATM   36  C   UNL     1     -42.244  14.803  48.384  1.00  0.00     0.102 C 
HETATM   37  C   UNL     1     -41.019  14.371  47.876  1.00  0.00     0.132 C 
HETATM   38  C   UNL     1     -40.333  15.129  46.942  1.00  0.00     0.102 C 
HETATM   39  C   UNL     1     -40.880  16.291  46.466  1.00  0.00     0.057 C 
BRANCH  36  40
HETATM   40  O   UNL     1     -42.908  13.977  49.240  1.00  0.00    -0.358 OA
HETATM   41  H   UNL     1     -42.225  13.585  49.816  1.00  0.00     0.217 HD
ENDBRANCH  36  40
BRANCH  37  42
HETATM   42  O   UNL     1     -40.437  13.232  48.349  1.00  0.00    -0.356 OA
HETATM   43  H   UNL     1     -39.597  13.166  47.851  1.00  0.00     0.218 HD
ENDBRANCH  37  42
BRANCH  38  44
HETATM   44  O   UNL     1     -39.030  14.867  46.641  1.00  0.00    -0.358 OA
HETATM   45  H   UNL     1     -38.973  14.943  45.667  1.00  0.00     0.217 HD
ENDBRANCH  38  44
ENDBRANCH  32  34
ENDBRANCH  31  32
ENDBRANCH  27  31
BRANCH  28  46
HETATM   46  O   UNL     1     -37.921  19.537  48.574  1.00  0.00    -0.356 OA
HETATM   47  H   UNL     1     -37.036  19.567  48.979  1.00  0.00     0.218 HD
ENDBRANCH  28  46
BRANCH  29  48
HETATM   48  O   UNL     1     -37.074  19.426  51.219  1.00  0.00    -0.358 OA
HETATM   49  H   UNL     1     -37.239  20.147  51.849  1.00  0.00     0.217 HD
ENDBRANCH  29  48
ENDBRANCH  23  25
ENDBRANCH  22  23
ENDBRANCH   5  22
BRANCH   6  50
HETATM   50  O   UNL     1     -37.418  16.643  53.289  1.00  0.00    -0.304 OA
BRANCH  50  51
HETATM   51  C   UNL     1     -36.491  17.294  54.048  1.00  0.00     0.294 C 
HETATM   52  O   UNL     1     -36.318  18.483  54.225  1.00  0.00    -0.259 OA
BRANCH  51  53
HETATM   53  C   UNL     1     -35.680  16.233  54.641  1.00  0.00     0.045 A 
HETATM   54  C   UNL     1     -34.771  15.607  53.786  1.00  0.00     0.057 A 
HETATM   55  C   UNL     1     -33.996  14.575  54.265  1.00  0.00     0.102 A 
HETATM   56  C   UNL     1     -34.092  14.198  55.594  1.00  0.00     0.132 A 
HETATM   57  C   UNL     1     -34.969  14.854  56.456  1.00  0.00     0.102 A 
HETATM   58  C   UNL     1     -35.791  15.873  55.988  1.00  0.00     0.057 A 
BRANCH  55  59
HETATM   59  O   UNL     1     -33.117  13.972  53.422  1.00  0.00    -0.358 OA
HETATM   60  H   UNL     1     -33.595  13.901  52.572  1.00  0.00     0.217 HD
ENDBRANCH  55  59
BRANCH  56  61
HETATM   61  O   UNL     1     -33.269  13.212  56.063  1.00  0.00    -0.356 OA
HETATM   62  H   UNL     1     -33.212  12.578  55.319  1.00  0.00     0.218 HD
ENDBRANCH  56  61
BRANCH  57  63
HETATM   63  O   UNL     1     -34.944  14.492  57.773  1.00  0.00    -0.358 OA
HETATM   64  H   UNL     1     -34.873  13.519  57.805  1.00  0.00     0.217 HD
ENDBRANCH  57  63
ENDBRANCH  51  53
ENDBRANCH  50  51
ENDBRANCH   6  50
ENDBRANCH   2   4
BRANCH   2  65
HETATM   65  C   UNL     1     -40.340  14.669  55.303  1.00  0.00     0.216 C 
BRANCH  65  66
HETATM   66  O   UNL     1     -40.042  14.405  56.672  1.00  0.00    -0.315 OA
BRANCH  66  67
HETATM   67  C   UNL     1     -39.442  15.434  57.281  1.00  0.00     0.293 C 
HETATM   68  O   UNL     1     -39.424  16.587  56.895  1.00  0.00    -0.259 OA
BRANCH  67  69
HETATM   69  C   UNL     1     -38.738  14.893  58.453  1.00  0.00     0.045 C 
HETATM   70  C   UNL     1     -38.770  13.529  58.798  1.00  0.00     0.057 C 
HETATM   71  C   UNL     1     -38.009  13.077  59.863  1.00  0.00     0.102 C 
HETATM   72  C   UNL     1     -37.101  13.929  60.468  1.00  0.00     0.133 C 
HETATM   73  C   UNL     1     -36.997  15.247  60.015  1.00  0.00     0.116 C 
HETATM   74  C   UNL     1     -37.919  15.783  59.129  1.00  0.00     0.058 C 
BRANCH  71  75
HETATM   75  O   UNL     1     -38.073  11.768  60.245  1.00  0.00    -0.358 OA
HETATM   76  H   UNL     1     -38.741  11.758  60.962  1.00  0.00     0.217 HD
ENDBRANCH  71  75
BRANCH  72  77
HETATM   77  O   UNL     1     -36.270  13.396  61.412  1.00  0.00    -0.356 OA
HETATM   78  H   UNL     1     -35.507  14.000  61.511  1.00  0.00     0.218 HD
ENDBRANCH  72  77
BRANCH  73  79
HETATM   79  O   UNL     1     -35.834  15.988  60.208  1.00  0.00    -0.272 OA
BRANCH  79  80
HETATM   80  C   UNL     1     -36.264  17.208  60.709  1.00  0.00     0.298 C 
HETATM   81  O   UNL     1     -36.502  17.389  61.894  1.00  0.00    -0.259 OA
BRANCH  80  82
HETATM   82  C   UNL     1     -36.430  18.283  59.688  1.00  0.00     0.045 A 
HETATM   83  C   UNL     1     -35.582  18.288  58.570  1.00  0.00     0.057 A 
HETATM   84  C   UNL     1     -35.691  19.307  57.630  1.00  0.00     0.102 A 
HETATM   85  C   UNL     1     -36.616  20.326  57.804  1.00  0.00     0.132 A 
HETATM   86  C   UNL     1     -37.452  20.321  58.918  1.00  0.00     0.102 A 
HETATM   87  C   UNL     1     -37.386  19.292  59.859  1.00  0.00     0.057 A 
BRANCH  84  88
HETATM   88  O   UNL     1     -34.849  19.271  56.564  1.00  0.00    -0.358 OA
HETATM   89  H   UNL     1     -34.746  20.173  56.192  1.00  0.00     0.217 HD
ENDBRANCH  84  88
BRANCH  85  90
HETATM   90  O   UNL     1     -36.696  21.339  56.890  1.00  0.00    -0.356 OA
HETATM   91  H   UNL     1     -35.982  21.967  57.121  1.00  0.00     0.218 HD
ENDBRANCH  85  90
BRANCH  86  92
HETATM   92  O   UNL     1     -38.311  21.375  59.061  1.00  0.00    -0.358 OA
HETATM   93  H   UNL     1     -39.042  21.087  59.638  1.00  0.00     0.217 HD
ENDBRANCH  86  92
ENDBRANCH  80  82
ENDBRANCH  79  80
ENDBRANCH  73  79
ENDBRANCH  67  69
ENDBRANCH  66  67
ENDBRANCH  65  66
ENDBRANCH   2  65
BRANCH   3  94
HETATM   94  O   UNL     1     -38.210  11.426  54.753  1.00  0.00    -0.285 OA
BRANCH  94  95
HETATM   95  C   UNL     1     -38.874  10.281  54.441  1.00  0.00     0.295 C 
HETATM   96  O   UNL     1     -39.174   9.872  53.332  1.00  0.00    -0.259 OA
BRANCH  95  97
HETATM   97  C   UNL     1     -39.196   9.588  55.681  1.00  0.00     0.045 A 
HETATM   98  C   UNL     1     -39.021   8.204  55.757  1.00  0.00     0.057 A 
HETATM   99  C   UNL     1     -39.225   7.581  56.971  1.00  0.00     0.102 A 
HETATM  100  C   UNL     1     -39.657   8.317  58.069  1.00  0.00     0.132 A 
HETATM  101  C   UNL     1     -39.884   9.687  57.966  1.00  0.00     0.102 A 
HETATM  102  C   UNL     1     -39.649  10.341  56.767  1.00  0.00     0.057 A 
BRANCH  99 103
HETATM  103  O   UNL     1     -38.967   6.247  57.086  1.00  0.00    -0.358 OA
HETATM  104  H   UNL     1     -38.085   6.143  56.673  1.00  0.00     0.217 HD
ENDBRANCH  99 103
BRANCH 100 105
HETATM  105  O   UNL     1     -39.851   7.671  59.259  1.00  0.00    -0.356 OA
HETATM  106  H   UNL     1     -38.943   7.495  59.581  1.00  0.00     0.218 HD
ENDBRANCH 100 105
BRANCH 101 107
HETATM  107  O   UNL     1     -40.319  10.357  59.073  1.00  0.00    -0.358 OA
HETATM  108  H   UNL     1     -41.181   9.980  59.329  1.00  0.00     0.217 HD
ENDBRANCH 101 107
ENDBRANCH  95  97
ENDBRANCH  94  95
ENDBRANCH   3  94
TORSDOF 43
ENDMDL
MODEL 2
REMARK VINA RESULT:    -9.111      0.957      3.037
REMARK INTER + INTRA:         -26.092
REMARK INTER:                 -23.458
REMARK INTRA:                  -2.634
REMARK UNBOUND:                -1.268
REMARK WARNING: 32 MAX_TORS EXCEEDED!!!
REMARK  43 active torsions:
REMARK  status: ('A' for Active; 'I' for Inactive)
REMARK    1  A    between atoms: O_2  and  C_27 
REMARK    2  A    between atoms: O_2  and  C_33 
REMARK    3  A    between atoms: O_3  and  C_28 
REMARK    4  A    between atoms: O_3  and  C_34 
REMARK    5  A    between atoms: O_4  and  C_29 
REMARK    6  A    between atoms: O_4  and  C_35 
REMARK    7  A    between atoms: O_5  and  C_31 
REMARK    8  A    between atoms: O_5  and  C_36 
REMARK    9  A    between atoms: O_6  and  C_32 
REMARK   10  A    between atoms: O_6  and  C_39 
REMARK   11  A    between atoms: O_12  and  C_51 
REMARK   12  A    between atoms: O_13  and  C_52 
REMARK   13  A    between atoms: O_13  and  C_99 
REMARK   14  A    between atoms: O_14  and  C_53 
REMARK   15  A    between atoms: O_15  and  C_54 
REMARK   16  A    between atoms: O_16  and  C_55 
REMARK   17  A    between atoms: O_17  and  C_56 
REMARK   18  A    between atoms: O_18  and  C_59 
REMARK   19  A    between atoms: O_19  and  C_60 
REMARK   20  A    between atoms: O_20  and  C_61 
REMARK   21  A    between atoms: O_21  and  C_62 
REMARK   22  A    between atoms: O_22  and  C_63 
REMARK   23  A    between atoms: O_23  and  C_64 
REMARK   24  A    between atoms: O_24  and  C_65 
REMARK   25  A    between atoms: O_24  and  C_85 
REMARK   26  A    between atoms: O_25  and  C_66 
REMARK   27  A    between atoms: O_26  and  C_67 
REMARK   28  A    between atoms: C_28  and  C_30 
REMARK   29  A    between atoms: C_29  and  C_31 
REMARK   30  A    between atoms: C_30  and  C_32 
REMARK   31  A    between atoms: C_33  and  C_37 
REMARK   32  A    between atoms: C_34  and  C_38 
REMARK   33  A    between atoms: C_35  and  C_40 
REMARK   34  A    between atoms: C_36  and  C_41 
REMARK   35  A    between atoms: C_39  and  C_42 
REMARK   36  A    between atoms: O_82  and  C_89 
REMARK   37  A    between atoms: O_83  and  C_90 
REMARK   38  A    between atoms: O_84  and  C_91 
REMARK   39  A    between atoms: C_85  and  C_86 
REMARK   40  A    between atoms: O_96  and  C_103 
REMARK   41  A    between atoms: O_97  and  C_104 
REMARK   42  A    between atoms: O_98  and  C_105 
REMARK   43  A    between atoms: C_99  and  C_100 
ROOT
HETATM    1  O   UNL     1     -37.892  13.270  54.872  1.00  0.00    -0.348 OA
HETATM    2  C   UNL     1     -39.108  13.793  54.543  1.00  0.00     0.201 A 
HETATM    3  C   UNL     1     -38.745  12.452  54.208  1.00  0.00     0.282 A 
ENDROOT
BRANCH   2   4
HETATM    4  C   UNL     1     -39.299  13.939  53.754  1.00  0.00     0.199 A 
HETATM    5  C   UNL     1     -40.074  15.351  53.654  1.00  0.00     0.198 A 
HETATM    6  C   UNL     1     -38.619  15.194  53.821  1.00  0.00     0.215 A 
BRANCH   4   7
HETATM    7  O   UNL     1     -40.909  13.307  53.891  1.00  0.00    -0.306 OA
BRANCH   7   8
HETATM    8  C   UNL     1     -41.703  12.247  53.843  1.00  0.00     0.294 C 
HETATM    9  O   UNL     1     -42.140  11.700  54.848  1.00  0.00    -0.259 OA
BRANCH   8  10
HETATM   10  C   UNL     1     -42.175  11.791  52.547  1.00  0.00     0.045 A 
HETATM   11  C   UNL     1     -41.269  11.844  51.481  1.00  0.00     0.057 A 
HETATM   12  C   UNL     1     -41.475  11.020  50.389  1.00  0.00     0.102 A 
HETATM   13  C   UNL     1     -42.591  10.192  50.356  1.00  0.00     0.132 A 
HETATM   14  C   UNL     1     -43.548  10.247  51.365  1.00  0.00     0.102 A 
HETATM   15  C   UNL     1     -43.340  11.029  52.487  1.00  0.00     0.057 A 
BRANCH  12  16
HETATM   16  O   UNL     1     -40.582  10.957  49.359  1.00  0.00    -0.358 OA
HETATM   17  H   UNL     1     -39.752  10.589  49.716  1.00  0.00     0.217 HD
ENDBRANCH  12  16
BRANCH  13  18
HETATM   18  O   UNL     1     -42.736   9.262  49.363  1.00  0.00    -0.356 OA
HETATM   19  H   UNL     1     -42.155   8.527  49.648  1.00  0.00     0.218 HD
ENDBRANCH  13  18
BRANCH  14  20
HETATM   20  O   UNL     1     -44.672   9.479  51.269  1.00  0.00    -0.358 OA
HETATM   21  H   UNL     1     -45.393  10.132  51.172  1.00  0.00     0.217 HD
ENDBRANCH  14  20
ENDBRANCH   8  10
ENDBRANCH   7   8
ENDBRANCH   4   7
BRANCH   5  22
HETATM   22  O   UNL     1     -40.474  15.704  52.305  1.00  0.00    -0.306 OA
BRANCH  22  23
HETATM   23  C   UNL     1     -41.792  15.905  52.108  1.00  0.00     0.294 C 
HETATM   24  O   UNL     1     -42.671  16.403  52.801  1.00  0.00    -0.259 OA
BRANCH  23  25
HETATM   25  C   UNL     1     -42.141  15.399  50.843  1.00  0.00     0.045 C 
HETATM   26  C   UNL     1     -41.180  15.760  49.934  1.00  0.00     0.058 C 
HETATM   27  C   UNL     1     -41.680  16.308  48.796  1.00  0.00     0.116 C 
HETATM   28  C   UNL     1     -43.000  16.029  48.399  1.00  0.00     0.133 C 
HETATM   29  C   UNL     1     -43.894  15.458  49.304  1.00  0.00     0.102 C 
HETATM   30  C   UNL     1     -43.499  15.280  50.594  1.00  0.00     0.057 C 
BRANCH  27  31
HETATM   31  O   UNL     1     -40.931  17.299  48.144  1.00  0.00    -0.272 OA
BRANCH  31  32
HETATM   32  C   UNL     1     -41.487  18.571  47.890  1.00  0.00     0.298 C 
HETATM   33  O   UNL     1     -42.390  18.935  47.190  1.00  0.00    -0.259 OA
BRANCH  32  34
HETATM   34  C   UNL     1     -40.885  19.316  48.997  1.00  0.00     0.045 C 
HETATM   35  C   UNL     1     -39.559  19.040  49.331  1.00  0.00     0.057 C 
HETATM   36  C   UNL     1     -39.261  19.021  50.681  1.00  0.00     0.102 C 
HETATM   37  C   UNL     1     -40.280  19.117  51.628  1.00  0.00     0.132 C 
HETATM   38  C   UNL     1     -41.574  19.432  51.246  1.00  0.00     0.102 C 
HETATM   39  C   UNL     1     -41.854  19.707  49.933  1.00  0.00     0.057 C 
BRANCH  36  40
HETATM   40  O   UNL     1     -37.995  18.786  51.127  1.00  0.00    -0.358 OA
HETATM   41  H   UNL     1     -37.453  18.645  50.328  1.00  0.00     0.217 HD
ENDBRANCH  36  40
BRANCH  37  42
HETATM   42  O   UNL     1     -40.038  18.824  52.938  1.00  0.00    -0.356 OA
HETATM   43  H   UNL     1     -40.704  18.140  53.158  1.00  0.00     0.218 HD
ENDBRANCH  37  42
BRANCH  38  44
HETATM   44  O   UNL     1     -42.622  19.267  52.100  1.00  0.00    -0.358 OA
HETATM   45  H   UNL     1     -42.369  19.750  52.912  1.00  0.00     0.217 HD
ENDBRANCH  38  44
ENDBRANCH  32  34
ENDBRANCH  31  32
ENDBRANCH  27  31
BRANCH  28  46
HETATM   46  O   UNL     1     -43.461  16.312  47.148  1.00  0.00    -0.356 OA
HETATM   47  H   UNL     1     -44.303  16.789  47.260  1.00  0.00     0.218 HD
ENDBRANCH  28  46
BRANCH  29  48
HETATM   48  O   UNL     1     -45.173  15.130  48.992  1.00  0.00    -0.358 OA
HETATM   49  H   UNL     1     -45.203  14.160  49.039  1.00  0.00     0.217 HD
ENDBRANCH  29  48
ENDBRANCH  23  25
ENDBRANCH  22  23
ENDBRANCH   5  22
BRANCH   6  50
HETATM   50  O   UNL     1     -37.941  16.664  53.480  1.00  0.00    -0.304 OA
BRANCH  50  51
HETATM   51  C   UNL     1     -36.984  17.344  54.172  1.00  0.00     0.294 C 
HETATM   52  O   UNL     1     -36.901  18.527  54.435  1.00  0.00    -0.259 OA
BRANCH  51  53
HETATM   53  C   UNL     1     -36.006  16.330  54.559  1.00  0.00     0.045 A 
HETATM   54  C   UNL     1     -36.081  15.880  55.877  1.00  0.00     0.057 A 
HETATM   55  C   UNL     1     -35.170  14.949  56.324  1.00  0.00     0.102 A 
HETATM   56  C   UNL     1     -34.221  14.437  55.454  1.00  0.00     0.132 A 
HETATM   57  C   UNL     1     -34.178  14.857  54.125  1.00  0.00     0.102 A 
HETATM   58  C   UNL     1     -35.061  15.825  53.660  1.00  0.00     0.057 A 
BRANCH  55  59
HETATM   59  O   UNL     1     -35.250  14.521  57.611  1.00  0.00    -0.358 OA
HETATM   60  H   UNL     1     -36.092  14.888  57.944  1.00  0.00     0.217 HD
ENDBRANCH  55  59
BRANCH  56  61
HETATM   61  O   UNL     1     -33.366  13.469  55.902  1.00  0.00    -0.356 OA
HETATM   62  H   UNL     1     -33.896  12.648  55.859  1.00  0.00     0.218 HD
ENDBRANCH  56  61
BRANCH  57  63
HETATM   63  O   UNL     1     -33.278  14.242  53.302  1.00  0.00    -0.358 OA
HETATM   64  H   UNL     1     -32.507  14.834  53.221  1.00  0.00     0.217 HD
ENDBRANCH  57  63
ENDBRANCH  51  53
ENDBRANCH  50  51
ENDBRANCH   6  50
ENDBRANCH   2   4
BRANCH   2  65
HETATM   65  C   UNL     1     -40.362  14.405  55.423  1.00  0.00     0.216 C 
BRANCH  65  66
HETATM   66  O   UNL     1     -40.022  14.160  56.785  1.00  0.00    -0.315 OA
BRANCH  66  67
HETATM   67  C   UNL     1     -39.509  15.235  57.393  1.00  0.00     0.293 C 
HETATM   68  O   UNL     1     -39.573  16.383  57.000  1.00  0.00    -0.259 OA
BRANCH  67  69
HETATM   69  C   UNL     1     -38.780  14.756  58.577  1.00  0.00     0.045 C 
HETATM   70  C   UNL     1     -38.793  13.409  58.986  1.00  0.00     0.057 C 
HETATM   71  C   UNL     1     -38.010  13.014  60.057  1.00  0.00     0.102 C 
HETATM   72  C   UNL     1     -37.100  13.902  60.607  1.00  0.00     0.133 C 
HETATM   73  C   UNL     1     -37.016  15.198  60.091  1.00  0.00     0.116 C 
HETATM   74  C   UNL     1     -37.959  15.683  59.197  1.00  0.00     0.058 C 
BRANCH  71  75
HETATM   75  O   UNL     1     -38.055  11.724  60.501  1.00  0.00    -0.358 OA
HETATM   76  H   UNL     1     -38.664  11.275  59.879  1.00  0.00     0.217 HD
ENDBRANCH  71  75
BRANCH  72  77
HETATM   77  O   UNL     1     -36.248  13.421  61.560  1.00  0.00    -0.356 OA
HETATM   78  H   UNL     1     -36.656  13.585  62.433  1.00  0.00     0.218 HD
ENDBRANCH  72  77
BRANCH  73  79
HETATM   79  O   UNL     1     -35.858  15.957  60.229  1.00  0.00    -0.272 OA
BRANCH  79  80
HETATM   80  C   UNL     1     -36.286  17.179  60.727  1.00  0.00     0.298 C 
HETATM   81  O   UNL     1     -36.598  17.344  61.897  1.00  0.00    -0.259 OA
BRANCH  80  82
HETATM   82  C   UNL     1     -36.352  18.278  59.720  1.00  0.00     0.045 A 
HETATM   83  C   UNL     1     -37.293  19.303  59.901  1.00  0.00     0.057 A 
HETATM   84  C   UNL     1     -37.400  20.313  58.950  1.00  0.00     0.102 A 
HETATM   85  C   UNL     1     -36.599  20.297  57.818  1.00  0.00     0.132 A 
HETATM   86  C   UNL     1     -35.671  19.275  57.639  1.00  0.00     0.102 A 
HETATM   87  C   UNL     1     -35.519  18.269  58.594  1.00  0.00     0.057 A 
BRANCH  84  88
HETATM   88  O   UNL     1     -38.325  21.285  59.168  1.00  0.00    -0.358 OA
HETATM   89  H   UNL     1     -39.171  20.880  59.454  1.00  0.00     0.217 HD
ENDBRANCH  84  88
BRANCH  85  90
HETATM   90  O   UNL     1     -36.732  21.278  56.875  1.00  0.00    -0.356 OA
HETATM   91  H   UNL     1     -35.861  21.720  56.822  1.00  0.00     0.218 HD
ENDBRANCH  85  90
BRANCH  86  92
HETATM   92  O   UNL     1     -34.942  19.287  56.482  1.00  0.00    -0.358 OA
HETATM   93  H   UNL     1     -34.884  18.370  56.158  1.00  0.00     0.217 HD
ENDBRANCH  86  92
ENDBRANCH  80  82
ENDBRANCH  79  80
ENDBRANCH  73  79
ENDBRANCH  67  69
ENDBRANCH  66  67
ENDBRANCH  65  66
ENDBRANCH   2  65
BRANCH   3  94
HETATM   94  O   UNL     1     -38.241  11.162  54.838  1.00  0.00    -0.285 OA
BRANCH  94  95
HETATM   95  C   UNL     1     -38.936  10.019  54.585  1.00  0.00     0.295 C 
HETATM   96  O   UNL     1     -39.277   9.579  53.501  1.00  0.00    -0.259 OA
BRANCH  95  97
HETATM   97  C   UNL     1     -39.235   9.376  55.857  1.00  0.00     0.045 A 
HETATM   98  C   UNL     1     -39.064   7.995  55.982  1.00  0.00     0.057 A 
HETATM   99  C   UNL     1     -39.244   7.420  57.223  1.00  0.00     0.102 A 
HETATM  100  C   UNL     1     -39.650   8.199  58.302  1.00  0.00     0.132 A 
HETATM  101  C   UNL     1     -39.873   9.565  58.151  1.00  0.00     0.102 A 
HETATM  102  C   UNL     1     -39.662  10.172  56.924  1.00  0.00     0.057 A 
BRANCH  99 103
HETATM  103  O   UNL     1     -38.989   6.090  57.384  1.00  0.00    -0.358 OA
HETATM  104  H   UNL     1     -39.760   5.764  57.894  1.00  0.00     0.217 HD
ENDBRANCH  99 103
BRANCH 100 105
HETATM  105  O   UNL     1     -39.821   7.599  59.519  1.00  0.00    -0.356 OA
HETATM  106  H   UNL     1     -40.596   8.062  59.901  1.00  0.00     0.218 HD
ENDBRANCH 100 105
BRANCH 101 107
HETATM  107  O   UNL     1     -40.282  10.279  59.240  1.00  0.00    -0.358 OA
HETATM  108  H   UNL     1     -39.624  10.979  59.402  1.00  0.00     0.217 HD
ENDBRANCH 101 107
ENDBRANCH  95  97
ENDBRANCH  94  95
ENDBRANCH   3  94
TORSDOF 43
ENDMDL
MODEL 3
REMARK VINA RESULT:    -9.049      1.177      2.796
REMARK INTER + INTRA:         -25.922
REMARK INTER:                 -24.680
REMARK INTRA:                  -1.242
REMARK UNBOUND:                -1.268
REMARK WARNING: 32 MAX_TORS EXCEEDED!!!
REMARK  43 active torsions:
REMARK  status: ('A' for Active; 'I' for Inactive)
REMARK    1  A    between atoms: O_2  and  C_27 
REMARK    2  A    between atoms: O_2  and  C_33 
REMARK    3  A    between atoms: O_3  and  C_28 
REMARK    4  A    between atoms: O_3  and  C_34 
REMARK    5  A    between atoms: O_4  and  C_29 
REMARK    6  A    between atoms: O_4  and  C_35 
REMARK    7  A    between atoms: O_5  and  C_31 
REMARK    8  A    between atoms: O_5  and  C_36 
REMARK    9  A    between atoms: O_6  and  C_32 
REMARK   10  A    between atoms: O_6  and  C_39 
REMARK   11  A    between atoms: O_12  and  C_51 
REMARK   12  A    between atoms: O_13  and  C_52 
REMARK   13  A    between atoms: O_13  and  C_99 
REMARK   14  A    between atoms: O_14  and  C_53 
REMARK   15  A    between atoms: O_15  and  C_54 
REMARK   16  A    between atoms: O_16  and  C_55 
REMARK   17  A    between atoms: O_17  and  C_56 
REMARK   18  A    between atoms: O_18  and  C_59 
REMARK   19  A    between atoms: O_19  and  C_60 
REMARK   20  A    between atoms: O_20  and  C_61 
REMARK   21  A    between atoms: O_21  and  C_62 
REMARK   22  A    between atoms: O_22  and  C_63 
REMARK   23  A    between atoms: O_23  and  C_64 
REMARK   24  A    between atoms: O_24  and  C_65 
REMARK   25  A    between atoms: O_24  and  C_85 
REMARK   26  A    between atoms: O_25  and  C_66 
REMARK   27  A    between atoms: O_26  and  C_67 
REMARK   28  A    between atoms: C_28  and  C_30 
REMARK   29  A    between atoms: C_29  and  C_31 
REMARK   30  A    between atoms: C_30  and  C_32 
REMARK   31  A    between atoms: C_33  and  C_37 
REMARK   32  A    between atoms: C_34  and  C_38 
REMARK   33  A    between atoms: C_35  and  C_40 
REMARK   34  A    between atoms: C_36  and  C_41 
REMARK   35  A    between atoms: C_39  and  C_42 
REMARK   36  A    between atoms: O_82  and  C_89 
REMARK   37  A    between atoms: O_83  and  C_90 
REMARK   38  A    between atoms: O_84  and  C_91 
REMARK   39  A    between atoms: C_85  and  C_86 
REMARK   40  A    between atoms: O_96  and  C_103 
REMARK   41  A    between atoms: O_97  and  C_104 
REMARK   42  A    between atoms: O_98  and  C_105 
REMARK   43  A    between atoms: C_99  and  C_100 
ROOT
HETATM    1  O   UNL     1     -37.803  13.367  54.808  1.00  0.00    -0.348 OA
HETATM    2  C   UNL     1     -39.018  13.912  54.509  1.00  0.00     0.201 A 
HETATM    3  C   UNL     1     -38.680  12.571  54.150  1.00  0.00     0.282 A 
ENDROOT
BRANCH   2   4
HETATM    4  C   UNL     1     -39.221  14.070  53.726  1.00  0.00     0.199 A 
HETATM    5  C   UNL     1     -39.796  15.576  53.628  1.00  0.00     0.198 A 
HETATM    6  C   UNL     1     -38.371  15.219  53.737  1.00  0.00     0.215 A 
BRANCH   4   7
HETATM    7  O   UNL     1     -40.897  13.673  53.945  1.00  0.00    -0.306 OA
BRANCH   7   8
HETATM    8  C   UNL     1     -42.014  13.204  53.410  1.00  0.00     0.294 C 
HETATM    9  O   UNL     1     -43.121  13.652  53.686  1.00  0.00    -0.259 OA
BRANCH   8  10
HETATM   10  C   UNL     1     -41.916  12.203  52.361  1.00  0.00     0.045 A 
HETATM   11  C   UNL     1     -42.820  11.135  52.410  1.00  0.00     0.057 A 
HETATM   12  C   UNL     1     -43.096  10.442  51.246  1.00  0.00     0.102 A 
HETATM   13  C   UNL     1     -42.445  10.791  50.068  1.00  0.00     0.132 A 
HETATM   14  C   UNL     1     -41.456  11.770  50.066  1.00  0.00     0.102 A 
HETATM   15  C   UNL     1     -41.196  12.507  51.208  1.00  0.00     0.057 A 
BRANCH  12  16
HETATM   16  O   UNL     1     -44.033   9.450  51.206  1.00  0.00    -0.358 OA
HETATM   17  H   UNL     1     -44.069   9.049  52.095  1.00  0.00     0.217 HD
ENDBRANCH  12  16
BRANCH  13  18
HETATM   18  O   UNL     1     -42.810  10.225  48.878  1.00  0.00    -0.356 OA
HETATM   19  H   UNL     1     -43.425   9.508  49.141  1.00  0.00     0.218 HD
ENDBRANCH  13  18
BRANCH  14  20
HETATM   20  O   UNL     1     -40.779  12.041  48.913  1.00  0.00    -0.358 OA
HETATM   21  H   UNL     1     -41.481  12.305  48.286  1.00  0.00     0.217 HD
ENDBRANCH  14  20
ENDBRANCH   8  10
ENDBRANCH   7   8
ENDBRANCH   4   7
BRANCH   5  22
HETATM   22  O   UNL     1     -40.203  15.960  52.290  1.00  0.00    -0.306 OA
BRANCH  22  23
HETATM   23  C   UNL     1     -41.371  16.627  52.190  1.00  0.00     0.294 C 
HETATM   24  O   UNL     1     -41.880  17.516  52.860  1.00  0.00    -0.259 OA
BRANCH  23  25
HETATM   25  C   UNL     1     -42.084  16.124  51.088  1.00  0.00     0.045 C 
HETATM   26  C   UNL     1     -41.281  16.165  49.977  1.00  0.00     0.058 C 
HETATM   27  C   UNL     1     -41.873  16.728  48.892  1.00  0.00     0.116 C 
HETATM   28  C   UNL     1     -43.276  16.753  48.787  1.00  0.00     0.133 C 
HETATM   29  C   UNL     1     -44.063  16.491  49.907  1.00  0.00     0.102 C 
HETATM   30  C   UNL     1     -43.454  16.324  51.113  1.00  0.00     0.057 C 
BRANCH  27  31
HETATM   31  O   UNL     1     -41.076  17.450  47.991  1.00  0.00    -0.272 OA
BRANCH  31  32
HETATM   32  C   UNL     1     -40.000  16.827  47.323  1.00  0.00     0.298 C 
HETATM   33  O   UNL     1     -39.891  15.763  46.780  1.00  0.00    -0.259 OA
BRANCH  32  34
HETATM   34  C   UNL     1     -39.123  17.987  47.156  1.00  0.00     0.045 C 
HETATM   35  C   UNL     1     -37.917  17.808  46.481  1.00  0.00     0.057 C 
HETATM   36  C   UNL     1     -36.825  18.486  46.991  1.00  0.00     0.102 C 
HETATM   37  C   UNL     1     -36.925  19.172  48.201  1.00  0.00     0.132 C 
HETATM   38  C   UNL     1     -38.155  19.355  48.811  1.00  0.00     0.102 C 
HETATM   39  C   UNL     1     -39.298  18.909  48.199  1.00  0.00     0.057 C 
BRANCH  36  40
HETATM   40  O   UNL     1     -35.599  18.406  46.402  1.00  0.00    -0.358 OA
HETATM   41  H   UNL     1     -35.040  19.064  46.859  1.00  0.00     0.217 HD
ENDBRANCH  36  40
BRANCH  37  42
HETATM   42  O   UNL     1     -35.804  19.604  48.847  1.00  0.00    -0.356 OA
HETATM   43  H   UNL     1     -35.682  18.961  49.575  1.00  0.00     0.218 HD
ENDBRANCH  37  42
BRANCH  38  44
HETATM   44  O   UNL     1     -38.246  19.774  50.104  1.00  0.00    -0.358 OA
HETATM   45  H   UNL     1     -39.144  19.516  50.393  1.00  0.00     0.217 HD
ENDBRANCH  38  44
ENDBRANCH  32  34
ENDBRANCH  31  32
ENDBRANCH  27  31
BRANCH  28  46
HETATM   46  O   UNL     1     -43.915  17.041  47.618  1.00  0.00    -0.356 OA
HETATM   47  H   UNL     1     -43.421  16.591  46.909  1.00  0.00     0.218 HD
ENDBRANCH  28  46
BRANCH  29  48
HETATM   48  O   UNL     1     -45.419  16.466  49.884  1.00  0.00    -0.358 OA
HETATM   49  H   UNL     1     -45.670  17.095  49.187  1.00  0.00     0.217 HD
ENDBRANCH  29  48
ENDBRANCH  23  25
ENDBRANCH  22  23
ENDBRANCH   5  22
BRANCH   6  50
HETATM   50  O   UNL     1     -37.511  16.573  53.335  1.00  0.00    -0.304 OA
BRANCH  50  51
HETATM   51  C   UNL     1     -36.624  17.278  54.093  1.00  0.00     0.294 C 
HETATM   52  O   UNL     1     -36.526  18.475  54.273  1.00  0.00    -0.259 OA
BRANCH  51  53
HETATM   53  C   UNL     1     -35.747  16.268  54.682  1.00  0.00     0.045 A 
HETATM   54  C   UNL     1     -35.995  15.945  56.016  1.00  0.00     0.057 A 
HETATM   55  C   UNL     1     -35.188  15.026  56.648  1.00  0.00     0.102 A 
HETATM   56  C   UNL     1     -34.170  14.402  55.947  1.00  0.00     0.132 A 
HETATM   57  C   UNL     1     -33.953  14.695  54.602  1.00  0.00     0.102 A 
HETATM   58  C   UNL     1     -34.728  15.648  53.951  1.00  0.00     0.057 A 
BRANCH  55  59
HETATM   59  O   UNL     1     -35.438  14.722  57.949  1.00  0.00    -0.358 OA
HETATM   60  H   UNL     1     -35.054  15.464  58.457  1.00  0.00     0.217 HD
ENDBRANCH  55  59
BRANCH  56  61
HETATM   61  O   UNL     1     -33.420  13.449  56.578  1.00  0.00    -0.356 OA
HETATM   62  H   UNL     1     -34.082  12.817  56.923  1.00  0.00     0.218 HD
ENDBRANCH  56  61
BRANCH  57  63
HETATM   63  O   UNL     1     -32.992  13.975  53.949  1.00  0.00    -0.358 OA
HETATM   64  H   UNL     1     -33.451  13.317  53.393  1.00  0.00     0.217 HD
ENDBRANCH  57  63
ENDBRANCH  51  53
ENDBRANCH  50  51
ENDBRANCH   6  50
ENDBRANCH   2   4
BRANCH   2  65
HETATM   65  C   UNL     1     -40.246  14.530  55.421  1.00  0.00     0.216 C 
BRANCH  65  66
HETATM   66  O   UNL     1     -39.872  14.284  56.774  1.00  0.00    -0.315 OA
BRANCH  66  67
HETATM   67  C   UNL     1     -39.429  15.381  57.398  1.00  0.00     0.293 C 
HETATM   68  O   UNL     1     -39.365  16.500  56.927  1.00  0.00    -0.259 OA
BRANCH  67  69
HETATM   69  C   UNL     1     -38.955  14.963  58.725  1.00  0.00     0.045 C 
HETATM   70  C   UNL     1     -38.520  13.652  59.001  1.00  0.00     0.057 C 
HETATM   71  C   UNL     1     -38.001  13.355  60.250  1.00  0.00     0.102 C 
HETATM   72  C   UNL     1     -37.757  14.376  61.153  1.00  0.00     0.133 C 
HETATM   73  C   UNL     1     -38.078  15.689  60.799  1.00  0.00     0.116 C 
HETATM   74  C   UNL     1     -38.824  15.972  59.666  1.00  0.00     0.058 C 
BRANCH  71  75
HETATM   75  O   UNL     1     -37.628  12.077  60.550  1.00  0.00    -0.358 OA
HETATM   76  H   UNL     1     -36.649  12.102  60.542  1.00  0.00     0.217 HD
ENDBRANCH  71  75
BRANCH  72  77
HETATM   77  O   UNL     1     -37.108  14.051  62.310  1.00  0.00    -0.356 OA
HETATM   78  H   UNL     1     -36.420  13.393  62.088  1.00  0.00     0.218 HD
ENDBRANCH  72  77
BRANCH  73  79
HETATM   79  O   UNL     1     -37.445  16.774  61.400  1.00  0.00    -0.272 OA
BRANCH  79  80
HETATM   80  C   UNL     1     -36.323  17.013  60.619  1.00  0.00     0.298 C 
HETATM   81  O   UNL     1     -35.298  16.356  60.716  1.00  0.00    -0.259 OA
BRANCH  80  82
HETATM   82  C   UNL     1     -36.458  18.147  59.658  1.00  0.00     0.045 A 
HETATM   83  C   UNL     1     -35.607  18.191  58.544  1.00  0.00     0.057 A 
HETATM   84  C   UNL     1     -35.686  19.264  57.661  1.00  0.00     0.102 A 
HETATM   85  C   UNL     1     -36.585  20.295  57.891  1.00  0.00     0.132 A 
HETATM   86  C   UNL     1     -37.423  20.251  59.001  1.00  0.00     0.102 A 
HETATM   87  C   UNL     1     -37.387  19.170  59.884  1.00  0.00     0.057 A 
BRANCH  84  88
HETATM   88  O   UNL     1     -34.843  19.264  56.596  1.00  0.00    -0.358 OA
HETATM   89  H   UNL     1     -35.195  18.675  55.894  1.00  0.00     0.217 HD
ENDBRANCH  84  88
BRANCH  85  90
HETATM   90  O   UNL     1     -36.636  21.359  57.034  1.00  0.00    -0.356 OA
HETATM   91  H   UNL     1     -37.584  21.509  56.847  1.00  0.00     0.218 HD
ENDBRANCH  85  90
BRANCH  86  92
HETATM   92  O   UNL     1     -38.255  21.318  59.201  1.00  0.00    -0.358 OA
HETATM   93  H   UNL     1     -38.996  21.239  58.573  1.00  0.00     0.217 HD
ENDBRANCH  86  92
ENDBRANCH  80  82
ENDBRANCH  79  80
ENDBRANCH  73  79
ENDBRANCH  67  69
ENDBRANCH  66  67
ENDBRANCH  65  66
ENDBRANCH   2  65
BRANCH   3  94
HETATM   94  O   UNL     1     -38.183  11.265  54.755  1.00  0.00    -0.285 OA
BRANCH  94  95
HETATM   95  C   UNL     1     -38.923  10.144  54.537  1.00  0.00     0.295 C 
HETATM   96  O   UNL     1     -39.300   9.695  53.468  1.00  0.00    -0.259 OA
BRANCH  95  97
HETATM   97  C   UNL     1     -39.219   9.535  55.827  1.00  0.00     0.045 A 
HETATM   98  C   UNL     1     -39.150   8.146  55.960  1.00  0.00     0.057 A 
HETATM   99  C   UNL     1     -39.325   7.596  57.213  1.00  0.00     0.102 A 
HETATM  100  C   UNL     1     -39.626   8.412  58.298  1.00  0.00     0.132 A 
HETATM  101  C   UNL     1     -39.750   9.791  58.141  1.00  0.00     0.102 A 
HETATM  102  C   UNL     1     -39.541  10.370  56.900  1.00  0.00     0.057 A 
BRANCH  99 103
HETATM  103  O   UNL     1     -39.166   6.252  57.378  1.00  0.00    -0.358 OA
HETATM  104  H   UNL     1     -38.789   6.170  58.279  1.00  0.00     0.217 HD
ENDBRANCH  99 103
BRANCH 100 105
HETATM  105  O   UNL     1     -39.794   7.838  59.528  1.00  0.00    -0.356 OA
HETATM  106  H   UNL     1     -40.020   8.592  60.110  1.00  0.00     0.218 HD
ENDBRANCH 100 105
BRANCH 101 107
HETATM  107  O   UNL     1     -40.059  10.542  59.238  1.00  0.00    -0.358 OA
HETATM  108  H   UNL     1     -40.552   9.975  59.859  1.00  0.00     0.217 HD
ENDBRANCH 101 107
ENDBRANCH  95  97
ENDBRANCH  94  95
ENDBRANCH   3  94
TORSDOF 43
ENDMDL
MODEL 4
REMARK VINA RESULT:    -9.000      2.044      4.564
REMARK INTER + INTRA:         -25.789
REMARK INTER:                 -21.454
REMARK INTRA:                  -4.335
REMARK UNBOUND:                -1.268
REMARK WARNING: 32 MAX_TORS EXCEEDED!!!
REMARK  43 active torsions:
REMARK  status: ('A' for Active; 'I' for Inactive)
REMARK    1  A    between atoms: O_2  and  C_27 
REMARK    2  A    between atoms: O_2  and  C_33 
REMARK    3  A    between atoms: O_3  and  C_28 
REMARK    4  A    between atoms: O_3  and  C_34 
REMARK    5  A    between atoms: O_4  and  C_29 
REMARK    6  A    between atoms: O_4  and  C_35 
REMARK    7  A    between atoms: O_5  and  C_31 
REMARK    8  A    between atoms: O_5  and  C_36 
REMARK    9  A    between atoms: O_6  and  C_32 
REMARK   10  A    between atoms: O_6  and  C_39 
REMARK   11  A    between atoms: O_12  and  C_51 
REMARK   12  A    between atoms: O_13  and  C_52 
REMARK   13  A    between atoms: O_13  and  C_99 
REMARK   14  A    between atoms: O_14  and  C_53 
REMARK   15  A    between atoms: O_15  and  C_54 
REMARK   16  A    between atoms: O_16  and  C_55 
REMARK   17  A    between atoms: O_17  and  C_56 
REMARK   18  A    between atoms: O_18  and  C_59 
REMARK   19  A    between atoms: O_19  and  C_60 
REMARK   20  A    between atoms: O_20  and  C_61 
REMARK   21  A    between atoms: O_21  and  C_62 
REMARK   22  A    between atoms: O_22  and  C_63 
REMARK   23  A    between atoms: O_23  and  C_64 
REMARK   24  A    between atoms: O_24  and  C_65 
REMARK   25  A    between atoms: O_24  and  C_85 
REMARK   26  A    between atoms: O_25  and  C_66 
REMARK   27  A    between atoms: O_26  and  C_67 
REMARK   28  A    between atoms: C_28  and  C_30 
REMARK   29  A    between atoms: C_29  and  C_31 
REMARK   30  A    between atoms: C_30  and  C_32 
REMARK   31  A    between atoms: C_33  and  C_37 
REMARK   32  A    between atoms: C_34  and  C_38 
REMARK   33  A    between atoms: C_35  and  C_40 
REMARK   34  A    between atoms: C_36  and  C_41 
REMARK   35  A    between atoms: C_39  and  C_42 
REMARK   36  A    between atoms: O_82  and  C_89 
REMARK   37  A    between atoms: O_83  and  C_90 
REMARK   38  A    between atoms: O_84  and  C_91 
REMARK   39  A    between atoms: C_85  and  C_86 
REMARK   40  A    between atoms: O_96  and  C_103 
REMARK   41  A    between atoms: O_97  and  C_104 
REMARK   42  A    between atoms: O_98  and  C_105 
REMARK   43  A    between atoms: C_99  and  C_100 
ROOT
HETATM    1  O   UNL     1     -37.340  13.306  54.608  1.00  0.00    -0.348 OA
HETATM    2  C   UNL     1     -38.535  13.959  54.527  1.00  0.00     0.201 A 
HETATM    3  C   UNL     1     -38.389  12.595  54.128  1.00  0.00     0.282 A 
ENDROOT
BRANCH   2   4
HETATM    4  C   UNL     1     -38.862  14.140  53.791  1.00  0.00     0.199 A 
HETATM    5  C   UNL     1     -39.573  15.586  53.874  1.00  0.00     0.198 A 
HETATM    6  C   UNL     1     -38.122  15.362  53.762  1.00  0.00     0.215 A 
BRANCH   4   7
HETATM    7  O   UNL     1     -40.448  13.572  54.212  1.00  0.00    -0.306 OA
BRANCH   7   8
HETATM    8  C   UNL     1     -41.375  12.638  54.069  1.00  0.00     0.294 C 
HETATM    9  O   UNL     1     -42.177  12.359  54.953  1.00  0.00    -0.259 OA
BRANCH   8  10
HETATM   10  C   UNL     1     -41.531  12.006  52.771  1.00  0.00     0.045 A 
HETATM   11  C   UNL     1     -42.439  10.944  52.681  1.00  0.00     0.057 A 
HETATM   12  C   UNL     1     -42.974  10.627  51.446  1.00  0.00     0.102 A 
HETATM   13  C   UNL     1     -42.573  11.338  50.321  1.00  0.00     0.132 A 
HETATM   14  C   UNL     1     -41.575  12.303  50.409  1.00  0.00     0.102 A 
HETATM   15  C   UNL     1     -41.059  12.669  51.639  1.00  0.00     0.057 A 
BRANCH  12  16
HETATM   16  O   UNL     1     -43.931   9.663  51.304  1.00  0.00    -0.358 OA
HETATM   17  H   UNL     1     -44.709   9.949  51.820  1.00  0.00     0.217 HD
ENDBRANCH  12  16
BRANCH  13  18
HETATM   18  O   UNL     1     -43.197  11.146  49.119  1.00  0.00    -0.356 OA
HETATM   19  H   UNL     1     -42.471  11.228  48.466  1.00  0.00     0.218 HD
ENDBRANCH  13  18
BRANCH  14  20
HETATM   20  O   UNL     1     -41.145  12.933  49.277  1.00  0.00    -0.358 OA
HETATM   21  H   UNL     1     -41.702  12.549  48.571  1.00  0.00     0.217 HD
ENDBRANCH  14  20
ENDBRANCH   8  10
ENDBRANCH   7   8
ENDBRANCH   4   7
BRANCH   5  22
HETATM   22  O   UNL     1     -40.199  16.001  52.634  1.00  0.00    -0.306 OA
BRANCH  22  23
HETATM   23  C   UNL     1     -40.893  17.157  52.673  1.00  0.00     0.294 C 
HETATM   24  O   UNL     1     -40.587  18.319  52.433  1.00  0.00    -0.259 OA
BRANCH  23  25
HETATM   25  C   UNL     1     -42.203  16.883  53.101  1.00  0.00     0.045 C 
HETATM   26  C   UNL     1     -42.320  17.210  54.428  1.00  0.00     0.058 C 
HETATM   27  C   UNL     1     -42.887  16.235  55.186  1.00  0.00     0.116 C 
HETATM   28  C   UNL     1     -43.722  15.273  54.589  1.00  0.00     0.133 C 
HETATM   29  C   UNL     1     -43.729  15.120  53.203  1.00  0.00     0.102 C 
HETATM   30  C   UNL     1     -42.841  15.834  52.459  1.00  0.00     0.057 C 
BRANCH  27  31
HETATM   31  O   UNL     1     -42.469  16.091  56.517  1.00  0.00    -0.272 OA
BRANCH  31  32
HETATM   32  C   UNL     1     -43.277  16.551  57.579  1.00  0.00     0.298 C 
HETATM   33  O   UNL     1     -44.205  16.063  58.160  1.00  0.00    -0.259 OA
BRANCH  32  34
HETATM   34  C   UNL     1     -42.452  17.671  58.034  1.00  0.00     0.045 C 
HETATM   35  C   UNL     1     -42.897  18.966  57.773  1.00  0.00     0.057 C 
HETATM   36  C   UNL     1     -41.930  19.883  57.406  1.00  0.00     0.102 C 
HETATM   37  C   UNL     1     -40.620  19.466  57.169  1.00  0.00     0.132 C 
HETATM   38  C   UNL     1     -40.219  18.179  57.484  1.00  0.00     0.102 C 
HETATM   39  C   UNL     1     -41.095  17.314  58.085  1.00  0.00     0.057 C 
BRANCH  36  40
HETATM   40  O   UNL     1     -42.242  21.184  57.149  1.00  0.00    -0.358 OA
HETATM   41  H   UNL     1     -41.857  21.383  56.275  1.00  0.00     0.217 HD
ENDBRANCH  36  40
BRANCH  37  42
HETATM   42  O   UNL     1     -39.732  20.295  56.547  1.00  0.00    -0.356 OA
HETATM   43  H   UNL     1     -40.231  21.127  56.416  1.00  0.00     0.218 HD
ENDBRANCH  37  42
BRANCH  38  44
HETATM   44  O   UNL     1     -39.043  17.672  57.017  1.00  0.00    -0.358 OA
HETATM   45  H   UNL     1     -39.245  16.749  56.765  1.00  0.00     0.217 HD
ENDBRANCH  38  44
ENDBRANCH  32  34
ENDBRANCH  31  32
ENDBRANCH  27  31
BRANCH  28  46
HETATM   46  O   UNL     1     -44.533  14.456  55.319  1.00  0.00    -0.356 OA
HETATM   47  H   UNL     1     -44.547  13.595  54.864  1.00  0.00     0.218 HD
ENDBRANCH  28  46
BRANCH  29  48
HETATM   48  O   UNL     1     -44.526  14.239  52.548  1.00  0.00    -0.358 OA
HETATM   49  H   UNL     1     -44.854  14.725  51.773  1.00  0.00     0.217 HD
ENDBRANCH  29  48
ENDBRANCH  23  25
ENDBRANCH  22  23
ENDBRANCH   5  22
BRANCH   6  50
HETATM   50  O   UNL     1     -37.449  16.812  53.337  1.00  0.00    -0.304 OA
BRANCH  50  51
HETATM   51  C   UNL     1     -36.324  17.407  53.825  1.00  0.00     0.294 C 
HETATM   52  O   UNL     1     -35.965  18.566  53.768  1.00  0.00    -0.259 OA
BRANCH  51  53
HETATM   53  C   UNL     1     -35.573  16.327  54.461  1.00  0.00     0.045 A 
HETATM   54  C   UNL     1     -34.649  15.666  53.650  1.00  0.00     0.057 A 
HETATM   55  C   UNL     1     -33.927  14.616  54.170  1.00  0.00     0.102 A 
HETATM   56  C   UNL     1     -34.092  14.253  55.497  1.00  0.00     0.132 A 
HETATM   57  C   UNL     1     -34.983  14.945  56.315  1.00  0.00     0.102 A 
HETATM   58  C   UNL     1     -35.752  15.984  55.805  1.00  0.00     0.057 A 
BRANCH  55  59
HETATM   59  O   UNL     1     -33.033  13.977  53.370  1.00  0.00    -0.358 OA
HETATM   60  H   UNL     1     -33.564  13.640  52.622  1.00  0.00     0.217 HD
ENDBRANCH  55  59
BRANCH  56  61
HETATM   61  O   UNL     1     -33.321  13.247  56.008  1.00  0.00    -0.356 OA
HETATM   62  H   UNL     1     -32.943  12.813  55.217  1.00  0.00     0.218 HD
ENDBRANCH  56  61
BRANCH  57  63
HETATM   63  O   UNL     1     -35.025  14.594  57.635  1.00  0.00    -0.358 OA
HETATM   64  H   UNL     1     -35.552  13.775  57.701  1.00  0.00     0.217 HD
ENDBRANCH  57  63
ENDBRANCH  51  53
ENDBRANCH  50  51
ENDBRANCH   6  50
ENDBRANCH   2   4
BRANCH   2  65
HETATM   65  C   UNL     1     -39.518  14.680  55.638  1.00  0.00     0.216 C 
BRANCH  65  66
HETATM   66  O   UNL     1     -38.865  14.501  56.893  1.00  0.00    -0.315 OA
BRANCH  66  67
HETATM   67  C   UNL     1     -39.672  13.990  57.829  1.00  0.00     0.293 C 
HETATM   68  O   UNL     1     -40.751  13.462  57.640  1.00  0.00    -0.259 OA
BRANCH  67  69
HETATM   69  C   UNL     1     -39.051  14.265  59.133  1.00  0.00     0.045 C 
HETATM   70  C   UNL     1     -39.356  13.527  60.293  1.00  0.00     0.057 C 
HETATM   71  C   UNL     1     -38.664  13.782  61.464  1.00  0.00     0.102 C 
HETATM   72  C   UNL     1     -37.573  14.634  61.446  1.00  0.00     0.133 C 
HETATM   73  C   UNL     1     -37.212  15.253  60.246  1.00  0.00     0.116 C 
HETATM   74  C   UNL     1     -38.036  15.207  59.132  1.00  0.00     0.058 C 
BRANCH  71  75
HETATM   75  O   UNL     1     -38.987  13.115  62.611  1.00  0.00    -0.358 OA
HETATM   76  H   UNL     1     -38.248  13.312  63.222  1.00  0.00     0.217 HD
ENDBRANCH  71  75
BRANCH  72  77
HETATM   77  O   UNL     1     -36.835  14.737  62.591  1.00  0.00    -0.356 OA
HETATM   78  H   UNL     1     -37.277  15.388  63.171  1.00  0.00     0.218 HD
ENDBRANCH  72  77
BRANCH  73  79
HETATM   79  O   UNL     1     -35.912  15.700  60.026  1.00  0.00    -0.272 OA
BRANCH  79  80
HETATM   80  C   UNL     1     -35.874  16.976  60.571  1.00  0.00     0.298 C 
HETATM   81  O   UNL     1     -35.633  17.185  61.750  1.00  0.00    -0.259 OA
BRANCH  80  82
HETATM   82  C   UNL     1     -36.166  18.078  59.607  1.00  0.00     0.045 A 
HETATM   83  C   UNL     1     -35.391  18.178  58.442  1.00  0.00     0.057 A 
HETATM   84  C   UNL     1     -35.618  19.224  57.554  1.00  0.00     0.102 A 
HETATM   85  C   UNL     1     -36.588  20.177  57.827  1.00  0.00     0.132 A 
HETATM   86  C   UNL     1     -37.350  20.078  58.988  1.00  0.00     0.102 A 
HETATM   87  C   UNL     1     -37.166  19.020  59.879  1.00  0.00     0.057 A 
BRANCH  84  88
HETATM   88  O   UNL     1     -34.845  19.280  56.438  1.00  0.00    -0.358 OA
HETATM   89  H   UNL     1     -34.816  20.200  56.100  1.00  0.00     0.217 HD
ENDBRANCH  84  88
BRANCH  85  90
HETATM   90  O   UNL     1     -36.784  21.218  56.963  1.00  0.00    -0.356 OA
HETATM   91  H   UNL     1     -36.298  20.986  56.147  1.00  0.00     0.218 HD
ENDBRANCH  85  90
BRANCH  86  92
HETATM   92  O   UNL     1     -38.259  21.072  59.227  1.00  0.00    -0.358 OA
HETATM   93  H   UNL     1     -38.445  21.515  58.379  1.00  0.00     0.217 HD
ENDBRANCH  86  92
ENDBRANCH  80  82
ENDBRANCH  79  80
ENDBRANCH  73  79
ENDBRANCH  67  69
ENDBRANCH  66  67
ENDBRANCH  65  66
ENDBRANCH   2  65
BRANCH   3  94
HETATM   94  O   UNL     1     -37.909  11.247  54.647  1.00  0.00    -0.285 OA
BRANCH  94  95
HETATM   95  C   UNL     1     -38.671  10.154  54.370  1.00  0.00     0.295 C 
HETATM   96  O   UNL     1     -38.976   9.716  53.274  1.00  0.00    -0.259 OA
BRANCH  95  97
HETATM   97  C   UNL     1     -39.096   9.562  55.632  1.00  0.00     0.045 A 
HETATM   98  C   UNL     1     -38.975   8.183  55.815  1.00  0.00     0.057 A 
HETATM   99  C   UNL     1     -39.277   7.655  57.054  1.00  0.00     0.102 A 
HETATM  100  C   UNL     1     -39.752   8.481  58.067  1.00  0.00     0.132 A 
HETATM  101  C   UNL     1     -39.923   9.846  57.854  1.00  0.00     0.102 A 
HETATM  102  C   UNL     1     -39.590  10.405  56.631  1.00  0.00     0.057 A 
BRANCH  99 103
HETATM  103  O   UNL     1     -39.074   6.325  57.279  1.00  0.00    -0.358 OA
HETATM  104  H   UNL     1     -39.059   5.936  56.380  1.00  0.00     0.217 HD
ENDBRANCH  99 103
BRANCH 100 105
HETATM  105  O   UNL     1     -40.044   7.928  59.284  1.00  0.00    -0.356 OA
HETATM  106  H   UNL     1     -39.370   7.225  59.390  1.00  0.00     0.218 HD
ENDBRANCH 100 105
BRANCH 101 107
HETATM  107  O   UNL     1     -40.404  10.607  58.880  1.00  0.00    -0.358 OA
HETATM  108  H   UNL     1     -39.990  11.488  58.817  1.00  0.00     0.217 HD
ENDBRANCH 101 107
ENDBRANCH  95  97
ENDBRANCH  94  95
ENDBRANCH   3  94
TORSDOF 43
ENDMDL
MODEL 5
REMARK VINA RESULT:    -8.974      3.448     10.885
REMARK INTER + INTRA:         -25.718
REMARK INTER:                 -22.224
REMARK INTRA:                  -3.494
REMARK UNBOUND:                -1.268
REMARK WARNING: 32 MAX_TORS EXCEEDED!!!
REMARK  43 active torsions:
REMARK  status: ('A' for Active; 'I' for Inactive)
REMARK    1  A    between atoms: O_2  and  C_27 
REMARK    2  A    between atoms: O_2  and  C_33 
REMARK    3  A    between atoms: O_3  and  C_28 
REMARK    4  A    between atoms: O_3  and  C_34 
REMARK    5  A    between atoms: O_4  and  C_29 
REMARK    6  A    between atoms: O_4  and  C_35 
REMARK    7  A    between atoms: O_5  and  C_31 
REMARK    8  A    between atoms: O_5  and  C_36 
REMARK    9  A    between atoms: O_6  and  C_32 
REMARK   10  A    between atoms: O_6  and  C_39 
REMARK   11  A    between atoms: O_12  and  C_51 
REMARK   12  A    between atoms: O_13  and  C_52 
REMARK   13  A    between atoms: O_13  and  C_99 
REMARK   14  A    between atoms: O_14  and  C_53 
REMARK   15  A    between atoms: O_15  and  C_54 
REMARK   16  A    between atoms: O_16  and  C_55 
REMARK   17  A    between atoms: O_17  and  C_56 
REMARK   18  A    between atoms: O_18  and  C_59 
REMARK   19  A    between atoms: O_19  and  C_60 
REMARK   20  A    between atoms: O_20  and  C_61 
REMARK   21  A    between atoms: O_21  and  C_62 
REMARK   22  A    between atoms: O_22  and  C_63 
REMARK   23  A    between atoms: O_23  and  C_64 
REMARK   24  A    between atoms: O_24  and  C_65 
REMARK   25  A    between atoms: O_24  and  C_85 
REMARK   26  A    between atoms: O_25  and  C_66 
REMARK   27  A    between atoms: O_26  and  C_67 
REMARK   28  A    between atoms: C_28  and  C_30 
REMARK   29  A    between atoms: C_29  and  C_31 
REMARK   30  A    between atoms: C_30  and  C_32 
REMARK   31  A    between atoms: C_33  and  C_37 
REMARK   32  A    between atoms: C_34  and  C_38 
REMARK   33  A    between atoms: C_35  and  C_40 
REMARK   34  A    between atoms: C_36  and  C_41 
REMARK   35  A    between atoms: C_39  and  C_42 
REMARK   36  A    between atoms: O_82  and  C_89 
REMARK   37  A    between atoms: O_83  and  C_90 
REMARK   38  A    between atoms: O_84  and  C_91 
REMARK   39  A    between atoms: C_85  and  C_86 
REMARK   40  A    between atoms: O_96  and  C_103 
REMARK   41  A    between atoms: O_97  and  C_104 
REMARK   42  A    between atoms: O_98  and  C_105 
REMARK   43  A    between atoms: C_99  and  C_100 
ROOT
HETATM    1  O   UNL     1     -38.697  12.532  56.916  1.00  0.00    -0.348 OA
HETATM    2  C   UNL     1     -39.668  13.375  57.372  1.00  0.00     0.201 A 
HETATM    3  C   UNL     1     -38.603  13.828  56.533  1.00  0.00     0.282 A 
ENDROOT
BRANCH   2   4
HETATM    4  C   UNL     1     -39.484  13.962  57.922  1.00  0.00     0.199 A 
HETATM    5  C   UNL     1     -40.619  13.978  59.070  1.00  0.00     0.198 A 
HETATM    6  C   UNL     1     -39.528  12.993  58.971  1.00  0.00     0.215 A 
BRANCH   4   7
HETATM    7  O   UNL     1     -40.513  15.153  57.188  1.00  0.00    -0.306 OA
BRANCH   7   8
HETATM    8  C   UNL     1     -40.712  16.428  56.891  1.00  0.00     0.294 C 
HETATM    9  O   UNL     1     -41.734  16.830  56.347  1.00  0.00    -0.259 OA
BRANCH   8  10
HETATM   10  C   UNL     1     -39.736  17.406  57.339  1.00  0.00     0.045 A 
HETATM   11  C   UNL     1     -38.680  17.701  56.468  1.00  0.00     0.057 A 
HETATM   12  C   UNL     1     -38.020  18.908  56.606  1.00  0.00     0.102 A 
HETATM   13  C   UNL     1     -38.389  19.781  57.623  1.00  0.00     0.132 A 
HETATM   14  C   UNL     1     -39.354  19.415  58.557  1.00  0.00     0.102 A 
HETATM   15  C   UNL     1     -40.059  18.234  58.412  1.00  0.00     0.057 A 
BRANCH  12  16
HETATM   16  O   UNL     1     -37.042  19.295  55.735  1.00  0.00    -0.358 OA
HETATM   17  H   UNL     1     -37.408  19.214  54.834  1.00  0.00     0.217 HD
ENDBRANCH  12  16
BRANCH  13  18
HETATM   18  O   UNL     1     -37.857  21.040  57.687  1.00  0.00    -0.356 OA
HETATM   19  H   UNL     1     -37.101  20.940  58.303  1.00  0.00     0.218 HD
ENDBRANCH  13  18
BRANCH  14  20
HETATM   20  O   UNL     1     -39.644  20.258  59.591  1.00  0.00    -0.358 OA
HETATM   21  H   UNL     1     -40.123  19.691  60.227  1.00  0.00     0.217 HD
ENDBRANCH  14  20
ENDBRANCH   8  10
ENDBRANCH   7   8
ENDBRANCH   4   7
BRANCH   5  22
HETATM   22  O   UNL     1     -40.406  14.988  60.088  1.00  0.00    -0.306 OA
BRANCH  22  23
HETATM   23  C   UNL     1     -41.137  14.862  61.215  1.00  0.00     0.294 C 
HETATM   24  O   UNL     1     -42.306  14.561  61.418  1.00  0.00    -0.259 OA
BRANCH  23  25
HETATM   25  C   UNL     1     -40.323  15.176  62.317  1.00  0.00     0.045 C 
HETATM   26  C   UNL     1     -39.255  15.922  61.889  1.00  0.00     0.058 C 
HETATM   27  C   UNL     1     -38.055  15.474  62.342  1.00  0.00     0.116 C 
HETATM   28  C   UNL     1     -37.988  14.698  63.514  1.00  0.00     0.133 C 
HETATM   29  C   UNL     1     -39.147  14.128  64.039  1.00  0.00     0.102 C 
HETATM   30  C   UNL     1     -40.310  14.244  63.342  1.00  0.00     0.057 C 
BRANCH  27  31
HETATM   31  O   UNL     1     -36.928  15.629  61.521  1.00  0.00    -0.272 OA
BRANCH  31  32
HETATM   32  C   UNL     1     -36.342  14.514  60.886  1.00  0.00     0.298 C 
HETATM   33  O   UNL     1     -36.211  13.369  61.217  1.00  0.00    -0.259 OA
BRANCH  32  34
HETATM   34  C   UNL     1     -36.234  15.048  59.527  1.00  0.00     0.045 C 
HETATM   35  C   UNL     1     -35.313  14.460  58.661  1.00  0.00     0.057 C 
HETATM   36  C   UNL     1     -34.616  15.322  57.834  1.00  0.00     0.102 C 
HETATM   37  C   UNL     1     -34.737  16.702  57.995  1.00  0.00     0.132 C 
HETATM   38  C   UNL     1     -35.696  17.235  58.840  1.00  0.00     0.102 C 
HETATM   39  C   UNL     1     -36.576  16.408  59.488  1.00  0.00     0.057 C 
BRANCH  36  40
HETATM   40  O   UNL     1     -33.707  14.862  56.929  1.00  0.00    -0.358 OA
HETATM   41  H   UNL     1     -32.918  14.614  57.447  1.00  0.00     0.217 HD
ENDBRANCH  36  40
BRANCH  37  42
HETATM   42  O   UNL     1     -33.859  17.550  57.384  1.00  0.00    -0.356 OA
HETATM   43  H   UNL     1     -33.099  17.594  58.000  1.00  0.00     0.218 HD
ENDBRANCH  37  42
BRANCH  38  44
HETATM   44  O   UNL     1     -35.655  18.544  59.217  1.00  0.00    -0.358 OA
HETATM   45  H   UNL     1     -36.591  18.815  59.296  1.00  0.00     0.217 HD
ENDBRANCH  38  44
ENDBRANCH  32  34
ENDBRANCH  31  32
ENDBRANCH  27  31
BRANCH  28  46
HETATM   46  O   UNL     1     -36.815  14.461  64.166  1.00  0.00    -0.356 OA
HETATM   47  H   UNL     1     -36.853  14.958  65.002  1.00  0.00     0.218 HD
ENDBRANCH  28  46
BRANCH  29  48
HETATM   48  O   UNL     1     -39.173  13.393  65.179  1.00  0.00    -0.358 OA
HETATM   49  H   UNL     1     -38.315  12.936  65.203  1.00  0.00     0.217 HD
ENDBRANCH  29  48
ENDBRANCH  23  25
ENDBRANCH  22  23
ENDBRANCH   5  22
BRANCH   6  50
HETATM   50  O   UNL     1     -39.461  12.211  60.427  1.00  0.00    -0.304 OA
BRANCH  50  51
HETATM   51  C   UNL     1     -39.082  10.929  60.691  1.00  0.00     0.294 C 
HETATM   52  O   UNL     1     -37.981  10.417  60.664  1.00  0.00    -0.259 OA
BRANCH  51  53
HETATM   53  C   UNL     1     -40.322  10.232  61.025  1.00  0.00     0.045 A 
HETATM   54  C   UNL     1     -40.304   9.482  62.201  1.00  0.00     0.057 A 
HETATM   55  C   UNL     1     -41.426   8.770  62.563  1.00  0.00     0.102 A 
HETATM   56  C   UNL     1     -42.569   8.838  61.785  1.00  0.00     0.132 A 
HETATM   57  C   UNL     1     -42.597   9.623  60.634  1.00  0.00     0.102 A 
HETATM   58  C   UNL     1     -41.466  10.321  60.225  1.00  0.00     0.057 A 
BRANCH  55  59
HETATM   59  O   UNL     1     -41.395   8.040  63.710  1.00  0.00    -0.358 OA
HETATM   60  H   UNL     1     -42.314   7.730  63.833  1.00  0.00     0.217 HD
ENDBRANCH  55  59
BRANCH  56  61
HETATM   61  O   UNL     1     -43.690   8.171  62.195  1.00  0.00    -0.356 OA
HETATM   62  H   UNL     1     -44.261   8.157  61.401  1.00  0.00     0.218 HD
ENDBRANCH  56  61
BRANCH  57  63
HETATM   63  O   UNL     1     -43.786   9.717  59.967  1.00  0.00    -0.358 OA
HETATM   64  H   UNL     1     -44.414  10.175  60.556  1.00  0.00     0.217 HD
ENDBRANCH  57  63
ENDBRANCH  51  53
ENDBRANCH  50  51
ENDBRANCH   6  50
ENDBRANCH   2   4
BRANCH   2  65
HETATM   65  C   UNL     1     -41.307  13.430  57.194  1.00  0.00     0.216 C 
BRANCH  65  66
HETATM   66  O   UNL     1     -41.597  12.563  56.100  1.00  0.00    -0.315 OA
BRANCH  66  67
HETATM   67  C   UNL     1     -41.990  11.347  56.493  1.00  0.00     0.293 C 
HETATM   68  O   UNL     1     -42.998  11.084  57.120  1.00  0.00    -0.259 OA
BRANCH  67  69
HETATM   69  C   UNL     1     -40.934  10.402  56.099  1.00  0.00     0.045 C 
HETATM   70  C   UNL     1     -40.229  10.510  54.885  1.00  0.00     0.057 C 
HETATM   71  C   UNL     1     -39.186   9.639  54.623  1.00  0.00     0.102 C 
HETATM   72  C   UNL     1     -38.737   8.786  55.617  1.00  0.00     0.133 C 
HETATM   73  C   UNL     1     -39.375   8.794  56.860  1.00  0.00     0.116 C 
HETATM   74  C   UNL     1     -40.569   9.471  57.057  1.00  0.00     0.058 C 
BRANCH  71  75
HETATM   75  O   UNL     1     -38.530   9.695  53.427  1.00  0.00    -0.358 OA
HETATM   76  H   UNL     1     -38.269  10.635  53.338  1.00  0.00     0.217 HD
ENDBRANCH  71  75
BRANCH  72  77
HETATM   77  O   UNL     1     -37.613   8.055  55.359  1.00  0.00    -0.356 OA
HETATM   78  H   UNL     1     -37.194   7.842  56.217  1.00  0.00     0.218 HD
ENDBRANCH  72  77
BRANCH  73  79
HETATM   79  O   UNL     1     -38.719   8.366  58.012  1.00  0.00    -0.272 OA
BRANCH  79  80
HETATM   80  C   UNL     1     -38.959   7.001  58.075  1.00  0.00     0.298 C 
HETATM   81  O   UNL     1     -39.475   6.377  57.159  1.00  0.00    -0.259 OA
BRANCH  80  82
HETATM   82  C   UNL     1     -38.552   6.351  59.355  1.00  0.00     0.045 A 
HETATM   83  C   UNL     1     -37.328   5.669  59.406  1.00  0.00     0.057 A 
HETATM   84  C   UNL     1     -36.951   5.019  60.577  1.00  0.00     0.102 A 
HETATM   85  C   UNL     1     -37.790   5.024  61.682  1.00  0.00     0.132 A 
HETATM   86  C   UNL     1     -39.008   5.696  61.625  1.00  0.00     0.102 A 
HETATM   87  C   UNL     1     -39.394   6.384  60.474  1.00  0.00     0.057 A 
BRANCH  84  88
HETATM   88  O   UNL     1     -35.756   4.373  60.581  1.00  0.00    -0.358 OA
HETATM   89  H   UNL     1     -35.127   4.834  59.986  1.00  0.00     0.217 HD
ENDBRANCH  84  88
BRANCH  85  90
HETATM   90  O   UNL     1     -37.426   4.357  62.818  1.00  0.00    -0.356 OA
HETATM   91  H   UNL     1     -37.190   5.047  63.470  1.00  0.00     0.218 HD
ENDBRANCH  85  90
BRANCH  86  92
HETATM   92  O   UNL     1     -39.814   5.626  62.728  1.00  0.00    -0.358 OA
HETATM   93  H   UNL     1     -39.840   4.696  63.019  1.00  0.00     0.217 HD
ENDBRANCH  86  92
ENDBRANCH  80  82
ENDBRANCH  79  80
ENDBRANCH  73  79
ENDBRANCH  67  69
ENDBRANCH  66  67
ENDBRANCH  65  66
ENDBRANCH   2  65
BRANCH   3  94
HETATM   94  O   UNL     1     -37.939  13.543  55.193  1.00  0.00    -0.285 OA
BRANCH  94  95
HETATM   95  C   UNL     1     -38.335  14.280  54.120  1.00  0.00     0.295 C 
HETATM   96  O   UNL     1     -39.336  14.129  53.441  1.00  0.00    -0.259 OA
BRANCH  95  97
HETATM   97  C   UNL     1     -37.339  15.317  53.886  1.00  0.00     0.045 A 
HETATM   98  C   UNL     1     -35.997  15.053  54.171  1.00  0.00     0.057 A 
HETATM   99  C   UNL     1     -35.055  16.005  53.839  1.00  0.00     0.102 A 
HETATM  100  C   UNL     1     -35.453  17.220  53.292  1.00  0.00     0.132 A 
HETATM  101  C   UNL     1     -36.799  17.494  53.066  1.00  0.00     0.102 A 
HETATM  102  C   UNL     1     -37.760  16.539  53.356  1.00  0.00     0.057 A 
BRANCH  99 103
HETATM  103  O   UNL     1     -33.733  15.725  54.023  1.00  0.00    -0.358 OA
HETATM  104  H   UNL     1     -33.310  16.038  53.195  1.00  0.00     0.217 HD
ENDBRANCH  99 103
BRANCH 100 105
HETATM  105  O   UNL     1     -34.495  18.144  52.974  1.00  0.00    -0.356 OA
HETATM  106  H   UNL     1     -33.774  17.963  53.612  1.00  0.00     0.218 HD
ENDBRANCH 100 105
BRANCH 101 107
HETATM  107  O   UNL     1     -37.134  18.708  52.539  1.00  0.00    -0.358 OA
HETATM  108  H   UNL     1     -37.820  18.560  51.862  1.00  0.00     0.217 HD
ENDBRANCH 101 107
ENDBRANCH  95  97
ENDBRANCH  94  95
ENDBRANCH   3  94
TORSDOF 43
ENDMDL
MODEL 6
REMARK VINA RESULT:    -8.925      1.284      2.027
REMARK INTER + INTRA:         -25.583
REMARK INTER:                 -23.953
REMARK INTRA:                  -1.630
REMARK UNBOUND:                -1.268
REMARK WARNING: 32 MAX_TORS EXCEEDED!!!
REMARK  43 active torsions:
REMARK  status: ('A' for Active; 'I' for Inactive)
REMARK    1  A    between atoms: O_2  and  C_27 
REMARK    2  A    between atoms: O_2  and  C_33 
REMARK    3  A    between atoms: O_3  and  C_28 
REMARK    4  A    between atoms: O_3  and  C_34 
REMARK    5  A    between atoms: O_4  and  C_29 
REMARK    6  A    between atoms: O_4  and  C_35 
REMARK    7  A    between atoms: O_5  and  C_31 
REMARK    8  A    between atoms: O_5  and  C_36 
REMARK    9  A    between atoms: O_6  and  C_32 
REMARK   10  A    between atoms: O_6  and  C_39 
REMARK   11  A    between atoms: O_12  and  C_51 
REMARK   12  A    between atoms: O_13  and  C_52 
REMARK   13  A    between atoms: O_13  and  C_99 
REMARK   14  A    between atoms: O_14  and  C_53 
REMARK   15  A    between atoms: O_15  and  C_54 
REMARK   16  A    between atoms: O_16  and  C_55 
REMARK   17  A    between atoms: O_17  and  C_56 
REMARK   18  A    between atoms: O_18  and  C_59 
REMARK   19  A    between atoms: O_19  and  C_60 
REMARK   20  A    between atoms: O_20  and  C_61 
REMARK   21  A    between atoms: O_21  and  C_62 
REMARK   22  A    between atoms: O_22  and  C_63 
REMARK   23  A    between atoms: O_23  and  C_64 
REMARK   24  A    between atoms: O_24  and  C_65 
REMARK   25  A    between atoms: O_24  and  C_85 
REMARK   26  A    between atoms: O_25  and  C_66 
REMARK   27  A    between atoms: O_26  and  C_67 
REMARK   28  A    between atoms: C_28  and  C_30 
REMARK   29  A    between atoms: C_29  and  C_31 
REMARK   30  A    between atoms: C_30  and  C_32 
REMARK   31  A    between atoms: C_33  and  C_37 
REMARK   32  A    between atoms: C_34  and  C_38 
REMARK   33  A    between atoms: C_35  and  C_40 
REMARK   34  A    between atoms: C_36  and  C_41 
REMARK   35  A    between atoms: C_39  and  C_42 
REMARK   36  A    between atoms: O_82  and  C_89 
REMARK   37  A    between atoms: O_83  and  C_90 
REMARK   38  A    between atoms: O_84  and  C_91 
REMARK   39  A    between atoms: C_85  and  C_86 
REMARK   40  A    between atoms: O_96  and  C_103 
REMARK   41  A    between atoms: O_97  and  C_104 
REMARK   42  A    between atoms: O_98  and  C_105 
REMARK   43  A    between atoms: C_99  and  C_100 
ROOT
HETATM    1  O   UNL     1     -37.652  14.010  54.888  1.00  0.00    -0.348 OA
HETATM    2  C   UNL     1     -38.718  14.786  54.537  1.00  0.00     0.201 A 
HETATM    3  C   UNL     1     -38.723  13.368  54.360  1.00  0.00     0.282 A 
ENDROOT
BRANCH   2   4
HETATM    4  C   UNL     1     -38.917  14.886  53.743  1.00  0.00     0.199 A 
HETATM    5  C   UNL     1     -39.311  16.431  53.491  1.00  0.00     0.198 A 
HETATM    6  C   UNL     1     -37.936  15.919  53.628  1.00  0.00     0.215 A 
BRANCH   4   7
HETATM    7  O   UNL     1     -40.623  14.717  54.014  1.00  0.00    -0.306 OA
BRANCH   7   8
HETATM    8  C   UNL     1     -41.786  14.263  53.572  1.00  0.00     0.294 C 
HETATM    9  O   UNL     1     -42.791  14.962  53.512  1.00  0.00    -0.259 OA
BRANCH   8  10
HETATM   10  C   UNL     1     -41.844  12.922  53.018  1.00  0.00     0.045 A 
HETATM   11  C   UNL     1     -42.779  12.040  53.575  1.00  0.00     0.057 A 
HETATM   12  C   UNL     1     -43.208  10.962  52.822  1.00  0.00     0.102 A 
HETATM   13  C   UNL     1     -42.679  10.755  51.554  1.00  0.00     0.132 A 
HETATM   14  C   UNL     1     -41.657  11.567  51.069  1.00  0.00     0.102 A 
HETATM   15  C   UNL     1     -41.244  12.677  51.785  1.00  0.00     0.057 A 
BRANCH  12  16
HETATM   16  O   UNL     1     -44.183  10.117  53.270  1.00  0.00    -0.358 OA
HETATM   17  H   UNL     1     -44.012   9.954  54.217  1.00  0.00     0.217 HD
ENDBRANCH  12  16
BRANCH  13  18
HETATM   18  O   UNL     1     -43.195   9.790  50.734  1.00  0.00    -0.356 OA
HETATM   19  H   UNL     1     -43.658   9.185  51.351  1.00  0.00     0.218 HD
ENDBRANCH  13  18
BRANCH  14  20
HETATM   20  O   UNL     1     -41.102  11.296  49.853  1.00  0.00    -0.358 OA
HETATM   21  H   UNL     1     -40.196  11.000  50.071  1.00  0.00     0.217 HD
ENDBRANCH  14  20
ENDBRANCH   8  10
ENDBRANCH   7   8
ENDBRANCH   4   7
BRANCH   5  22
HETATM   22  O   UNL     1     -39.695  16.720  52.123  1.00  0.00    -0.306 OA
BRANCH  22  23
HETATM   23  C   UNL     1     -40.749  17.545  51.962  1.00  0.00     0.294 C 
HETATM   24  O   UNL     1     -41.689  17.846  52.688  1.00  0.00    -0.259 OA
BRANCH  23  25
HETATM   25  C   UNL     1     -40.686  18.111  50.676  1.00  0.00     0.045 C 
HETATM   26  C   UNL     1     -41.296  17.267  49.784  1.00  0.00     0.058 C 
HETATM   27  C   UNL     1     -40.557  17.017  48.672  1.00  0.00     0.116 C 
HETATM   28  C   UNL     1     -39.567  17.930  48.263  1.00  0.00     0.133 C 
HETATM   29  C   UNL     1     -39.125  18.917  49.141  1.00  0.00     0.102 C 
HETATM   30  C   UNL     1     -39.585  18.911  50.422  1.00  0.00     0.057 C 
BRANCH  27  31
HETATM   31  O   UNL     1     -40.663  15.757  48.064  1.00  0.00    -0.272 OA
BRANCH  31  32
HETATM   32  C   UNL     1     -41.248  15.621  46.787  1.00  0.00     0.298 C 
HETATM   33  O   UNL     1     -40.806  15.728  45.678  1.00  0.00    -0.259 OA
BRANCH  32  34
HETATM   34  C   UNL     1     -42.495  14.958  47.170  1.00  0.00     0.045 C 
HETATM   35  C   UNL     1     -42.413  13.744  47.851  1.00  0.00     0.057 C 
HETATM   36  C   UNL     1     -43.339  12.781  47.497  1.00  0.00     0.102 C 
HETATM   37  C   UNL     1     -44.189  12.988  46.410  1.00  0.00     0.132 C 
HETATM   38  C   UNL     1     -44.261  14.226  45.794  1.00  0.00     0.102 C 
HETATM   39  C   UNL     1     -43.535  15.279  46.283  1.00  0.00     0.057 C 
BRANCH  36  40
HETATM   40  O   UNL     1     -43.371  11.564  48.109  1.00  0.00    -0.358 OA
HETATM   41  H   UNL     1     -44.201  11.140  47.817  1.00  0.00     0.217 HD
ENDBRANCH  36  40
BRANCH  37  42
HETATM   42  O   UNL     1     -44.904  11.952  45.884  1.00  0.00    -0.356 OA
HETATM   43  H   UNL     1     -45.001  12.184  44.937  1.00  0.00     0.218 HD
ENDBRANCH  37  42
BRANCH  38  44
HETATM   44  O   UNL     1     -44.866  14.377  44.583  1.00  0.00    -0.358 OA
HETATM   45  H   UNL     1     -44.266  14.953  44.068  1.00  0.00     0.217 HD
ENDBRANCH  38  44
ENDBRANCH  32  34
ENDBRANCH  31  32
ENDBRANCH  27  31
BRANCH  28  46
HETATM   46  O   UNL     1     -38.997  17.882  47.026  1.00  0.00    -0.356 OA
HETATM   47  H   UNL     1     -39.645  18.259  46.404  1.00  0.00     0.218 HD
ENDBRANCH  28  46
BRANCH  29  48
HETATM   48  O   UNL     1     -38.197  19.852  48.816  1.00  0.00    -0.358 OA
HETATM   49  H   UNL     1     -38.502  20.226  47.972  1.00  0.00     0.217 HD
ENDBRANCH  29  48
ENDBRANCH  23  25
ENDBRANCH  22  23
ENDBRANCH   5  22
BRANCH   6  50
HETATM   50  O   UNL     1     -36.929  17.111  53.079  1.00  0.00    -0.304 OA
BRANCH  50  51
HETATM   51  C   UNL     1     -35.751  17.544  53.610  1.00  0.00     0.294 C 
HETATM   52  O   UNL     1     -35.258  18.654  53.619  1.00  0.00    -0.259 OA
BRANCH  51  53
HETATM   53  C   UNL     1     -35.141  16.352  54.194  1.00  0.00     0.045 A 
HETATM   54  C   UNL     1     -34.415  15.545  53.318  1.00  0.00     0.057 A 
HETATM   55  C   UNL     1     -33.839  14.386  53.789  1.00  0.00     0.102 A 
HETATM   56  C   UNL     1     -33.948  14.056  55.130  1.00  0.00     0.132 A 
HETATM   57  C   UNL     1     -34.636  14.889  56.011  1.00  0.00     0.102 A 
HETATM   58  C   UNL     1     -35.259  16.044  55.554  1.00  0.00     0.057 A 
BRANCH  55  59
HETATM   59  O   UNL     1     -33.138  13.606  52.925  1.00  0.00    -0.358 OA
HETATM   60  H   UNL     1     -32.676  12.958  53.492  1.00  0.00     0.217 HD
ENDBRANCH  55  59
BRANCH  56  61
HETATM   61  O   UNL     1     -33.317  12.933  55.588  1.00  0.00    -0.356 OA
HETATM   62  H   UNL     1     -33.805  12.199  55.164  1.00  0.00     0.218 HD
ENDBRANCH  56  61
BRANCH  57  63
HETATM   63  O   UNL     1     -34.623  14.549  57.335  1.00  0.00    -0.358 OA
HETATM   64  H   UNL     1     -35.448  14.888  57.730  1.00  0.00     0.217 HD
ENDBRANCH  57  63
ENDBRANCH  51  53
ENDBRANCH  50  51
ENDBRANCH   6  50
ENDBRANCH   2   4
BRANCH   2  65
HETATM   65  C   UNL     1     -39.721  15.792  55.375  1.00  0.00     0.216 C 
BRANCH  65  66
HETATM   66  O   UNL     1     -39.266  15.740  56.726  1.00  0.00    -0.315 OA
BRANCH  66  67
HETATM   67  C   UNL     1     -39.946  14.860  57.469  1.00  0.00     0.293 C 
HETATM   68  O   UNL     1     -41.102  14.521  57.305  1.00  0.00    -0.259 OA
BRANCH  67  69
HETATM   69  C   UNL     1     -39.061  14.448  58.569  1.00  0.00     0.045 C 
HETATM   70  C   UNL     1     -39.084  13.152  59.120  1.00  0.00     0.057 C 
HETATM   71  C   UNL     1     -38.160  12.808  60.091  1.00  0.00     0.102 C 
HETATM   72  C   UNL     1     -37.122  13.675  60.390  1.00  0.00     0.133 C 
HETATM   73  C   UNL     1     -37.050  14.904  59.728  1.00  0.00     0.116 C 
HETATM   74  C   UNL     1     -38.097  15.368  58.946  1.00  0.00     0.058 C 
BRANCH  71  75
HETATM   75  O   UNL     1     -38.206  11.575  60.675  1.00  0.00    -0.358 OA
HETATM   76  H   UNL     1     -37.294  11.230  60.584  1.00  0.00     0.217 HD
ENDBRANCH  71  75
BRANCH  72  77
HETATM   77  O   UNL     1     -36.155  13.229  61.243  1.00  0.00    -0.356 OA
HETATM   78  H   UNL     1     -35.885  13.981  61.805  1.00  0.00     0.218 HD
ENDBRANCH  72  77
BRANCH  73  79
HETATM   79  O   UNL     1     -35.842  15.585  59.598  1.00  0.00    -0.272 OA
BRANCH  79  80
HETATM   80  C   UNL     1     -36.010  16.756  60.322  1.00  0.00     0.298 C 
HETATM   81  O   UNL     1     -36.009  16.784  61.544  1.00  0.00    -0.259 OA
BRANCH  80  82
HETATM   82  C   UNL     1     -36.208  17.982  59.494  1.00  0.00     0.045 A 
HETATM   83  C   UNL     1     -37.192  18.904  59.879  1.00  0.00     0.057 A 
HETATM   84  C   UNL     1     -37.422  20.031  59.096  1.00  0.00     0.102 A 
HETATM   85  C   UNL     1     -36.699  20.232  57.929  1.00  0.00     0.132 A 
HETATM   86  C   UNL     1     -35.728  19.311  57.547  1.00  0.00     0.102 A 
HETATM   87  C   UNL     1     -35.454  18.190  58.332  1.00  0.00     0.057 A 
BRANCH  84  88
HETATM   88  O   UNL     1     -38.384  20.897  59.509  1.00  0.00    -0.358 OA
HETATM   89  H   UNL     1     -38.236  21.134  60.449  1.00  0.00     0.217 HD
ENDBRANCH  84  88
BRANCH  85  90
HETATM   90  O   UNL     1     -36.952  21.327  57.151  1.00  0.00    -0.356 OA
HETATM   91  H   UNL     1     -37.446  21.952  57.718  1.00  0.00     0.218 HD
ENDBRANCH  85  90
BRANCH  86  92
HETATM   92  O   UNL     1     -35.081  19.538  56.364  1.00  0.00    -0.358 OA
HETATM   93  H   UNL     1     -35.431  20.367  55.988  1.00  0.00     0.217 HD
ENDBRANCH  86  92
ENDBRANCH  80  82
ENDBRANCH  79  80
ENDBRANCH  73  79
ENDBRANCH  67  69
ENDBRANCH  66  67
ENDBRANCH  65  66
ENDBRANCH   2  65
BRANCH   3  94
HETATM   94  O   UNL     1     -38.517  12.071  55.131  1.00  0.00    -0.285 OA
BRANCH  94  95
HETATM   95  C   UNL     1     -38.949  10.916  54.554  1.00  0.00     0.295 C 
HETATM   96  O   UNL     1     -39.178  10.713  53.374  1.00  0.00    -0.259 OA
BRANCH  95  97
HETATM   97  C   UNL     1     -39.114   9.917  55.601  1.00  0.00     0.045 A 
HETATM   98  C   UNL     1     -39.448  10.330  56.893  1.00  0.00     0.057 A 
HETATM   99  C   UNL     1     -39.708   9.365  57.845  1.00  0.00     0.102 A 
HETATM  100  C   UNL     1     -39.575   8.017  57.527  1.00  0.00     0.132 A 
HETATM  101  C   UNL     1     -39.185   7.620  56.250  1.00  0.00     0.102 A 
HETATM  102  C   UNL     1     -38.955   8.569  55.268  1.00  0.00     0.057 A 
BRANCH  99 103
HETATM  103  O   UNL     1     -40.128   9.748  59.084  1.00  0.00    -0.358 OA
HETATM  104  H   UNL     1     -40.152  10.726  59.031  1.00  0.00     0.217 HD
ENDBRANCH  99 103
BRANCH 100 105
HETATM  105  O   UNL     1     -39.840   7.084  58.491  1.00  0.00    -0.356 OA
HETATM  106  H   UNL     1     -39.006   6.575  58.560  1.00  0.00     0.218 HD
ENDBRANCH 100 105
BRANCH 101 107
HETATM  107  O   UNL     1     -39.059   6.285  55.998  1.00  0.00    -0.358 OA
HETATM  108  H   UNL     1     -38.113   6.058  56.061  1.00  0.00     0.217 HD
ENDBRANCH 101 107
ENDBRANCH  95  97
ENDBRANCH  94  95
ENDBRANCH   3  94
TORSDOF 43
ENDMDL
MODEL 7
REMARK VINA RESULT:    -8.877      1.861      3.794
REMARK INTER + INTRA:         -25.454
REMARK INTER:                 -23.777
REMARK INTRA:                  -1.677
REMARK UNBOUND:                -1.268
REMARK WARNING: 32 MAX_TORS EXCEEDED!!!
REMARK  43 active torsions:
REMARK  status: ('A' for Active; 'I' for Inactive)
REMARK    1  A    between atoms: O_2  and  C_27 
REMARK    2  A    between atoms: O_2  and  C_33 
REMARK    3  A    between atoms: O_3  and  C_28 
REMARK    4  A    between atoms: O_3  and  C_34 
REMARK    5  A    between atoms: O_4  and  C_29 
REMARK    6  A    between atoms: O_4  and  C_35 
REMARK    7  A    between atoms: O_5  and  C_31 
REMARK    8  A    between atoms: O_5  and  C_36 
REMARK    9  A    between atoms: O_6  and  C_32 
REMARK   10  A    between atoms: O_6  and  C_39 
REMARK   11  A    between atoms: O_12  and  C_51 
REMARK   12  A    between atoms: O_13  and  C_52 
REMARK   13  A    between atoms: O_13  and  C_99 
REMARK   14  A    between atoms: O_14  and  C_53 
REMARK   15  A    between atoms: O_15  and  C_54 
REMARK   16  A    between atoms: O_16  and  C_55 
REMARK   17  A    between atoms: O_17  and  C_56 
REMARK   18  A    between atoms: O_18  and  C_59 
REMARK   19  A    between atoms: O_19  and  C_60 
REMARK   20  A    between atoms: O_20  and  C_61 
REMARK   21  A    between atoms: O_21  and  C_62 
REMARK   22  A    between atoms: O_22  and  C_63 
REMARK   23  A    between atoms: O_23  and  C_64 
REMARK   24  A    between atoms: O_24  and  C_65 
REMARK   25  A    between atoms: O_24  and  C_85 
REMARK   26  A    between atoms: O_25  and  C_66 
REMARK   27  A    between atoms: O_26  and  C_67 
REMARK   28  A    between atoms: C_28  and  C_30 
REMARK   29  A    between atoms: C_29  and  C_31 
REMARK   30  A    between atoms: C_30  and  C_32 
REMARK   31  A    between atoms: C_33  and  C_37 
REMARK   32  A    between atoms: C_34  and  C_38 
REMARK   33  A    between atoms: C_35  and  C_40 
REMARK   34  A    between atoms: C_36  and  C_41 
REMARK   35  A    between atoms: C_39  and  C_42 
REMARK   36  A    between atoms: O_82  and  C_89 
REMARK   37  A    between atoms: O_83  and  C_90 
REMARK   38  A    between atoms: O_84  and  C_91 
REMARK   39  A    between atoms: C_85  and  C_86 
REMARK   40  A    between atoms: O_96  and  C_103 
REMARK   41  A    between atoms: O_97  and  C_104 
REMARK   42  A    between atoms: O_98  and  C_105 
REMARK   43  A    between atoms: C_99  and  C_100 
ROOT
HETATM    1  O   UNL     1     -37.767  14.004  54.404  1.00  0.00    -0.348 OA
HETATM    2  C   UNL     1     -38.741  14.940  54.215  1.00  0.00     0.201 A 
HETATM    3  C   UNL     1     -38.928  13.569  53.858  1.00  0.00     0.282 A 
ENDROOT
BRANCH   2   4
HETATM    4  C   UNL     1     -38.957  15.169  53.452  1.00  0.00     0.199 A 
HETATM    5  C   UNL     1     -39.162  16.770  53.423  1.00  0.00     0.198 A 
HETATM    6  C   UNL     1     -37.859  16.083  53.416  1.00  0.00     0.215 A 
BRANCH   4   7
HETATM    7  O   UNL     1     -40.659  15.170  53.794  1.00  0.00    -0.306 OA
BRANCH   7   8
HETATM    8  C   UNL     1     -41.881  14.865  53.387  1.00  0.00     0.294 C 
HETATM    9  O   UNL     1     -42.818  14.708  54.162  1.00  0.00    -0.259 OA
BRANCH   8  10
HETATM   10  C   UNL     1     -42.152  14.838  51.961  1.00  0.00     0.045 A 
HETATM   11  C   UNL     1     -41.279  14.093  51.158  1.00  0.00     0.057 A 
HETATM   12  C   UNL     1     -41.725  13.643  49.929  1.00  0.00     0.102 A 
HETATM   13  C   UNL     1     -43.006  13.971  49.501  1.00  0.00     0.132 A 
HETATM   14  C   UNL     1     -43.812  14.820  50.254  1.00  0.00     0.102 A 
HETATM   15  C   UNL     1     -43.405  15.244  51.507  1.00  0.00     0.057 A 
BRANCH  12  16
HETATM   16  O   UNL     1     -40.958  12.837  49.138  1.00  0.00    -0.358 OA
HETATM   17  H   UNL     1     -40.354  13.416  48.634  1.00  0.00     0.217 HD
ENDBRANCH  12  16
BRANCH  13  18
HETATM   18  O   UNL     1     -43.523  13.416  48.362  1.00  0.00    -0.356 OA
HETATM   19  H   UNL     1     -43.352  14.094  47.676  1.00  0.00     0.218 HD
ENDBRANCH  13  18
BRANCH  14  20
HETATM   20  O   UNL     1     -45.036  15.188  49.776  1.00  0.00    -0.358 OA
HETATM   21  H   UNL     1     -45.626  14.463  50.062  1.00  0.00     0.217 HD
ENDBRANCH  14  20
ENDBRANCH   8  10
ENDBRANCH   7   8
ENDBRANCH   4   7
BRANCH   5  22
HETATM   22  O   UNL     1     -39.561  17.283  52.127  1.00  0.00    -0.306 OA
BRANCH  22  23
HETATM   23  C   UNL     1     -40.488  18.263  52.133  1.00  0.00     0.294 C 
HETATM   24  O   UNL     1     -40.831  19.077  52.980  1.00  0.00    -0.259 OA
BRANCH  23  25
HETATM   25  C   UNL     1     -41.153  18.261  50.894  1.00  0.00     0.045 C 
HETATM   26  C   UNL     1     -40.256  17.955  49.904  1.00  0.00     0.058 C 
HETATM   27  C   UNL     1     -40.295  18.806  48.846  1.00  0.00     0.116 C 
HETATM   28  C   UNL     1     -41.460  19.548  48.579  1.00  0.00     0.133 C 
HETATM   29  C   UNL     1     -42.454  19.657  49.551  1.00  0.00     0.102 C 
HETATM   30  C   UNL     1     -42.227  19.130  50.785  1.00  0.00     0.057 C 
BRANCH  27  31
HETATM   31  O   UNL     1     -39.103  19.074  48.156  1.00  0.00    -0.272 OA
BRANCH  31  32
HETATM   32  C   UNL     1     -38.828  18.446  46.922  1.00  0.00     0.298 C 
HETATM   33  O   UNL     1     -39.469  18.321  45.917  1.00  0.00    -0.259 OA
BRANCH  32  34
HETATM   34  C   UNL     1     -37.382  18.272  47.064  1.00  0.00     0.045 C 
HETATM   35  C   UNL     1     -36.683  19.187  47.850  1.00  0.00     0.057 C 
HETATM   36  C   UNL     1     -35.443  19.576  47.379  1.00  0.00     0.102 C 
HETATM   37  C   UNL     1     -35.017  19.179  46.111  1.00  0.00     0.132 C 
HETATM   38  C   UNL     1     -35.728  18.236  45.388  1.00  0.00     0.102 C 
HETATM   39  C   UNL     1     -36.834  17.641  45.937  1.00  0.00     0.057 C 
BRANCH  36  40
HETATM   40  O   UNL     1     -34.659  20.448  48.072  1.00  0.00    -0.358 OA
HETATM   41  H   UNL     1     -35.254  21.161  48.373  1.00  0.00     0.217 HD
ENDBRANCH  36  40
BRANCH  37  42
HETATM   42  O   UNL     1     -33.936  19.772  45.528  1.00  0.00    -0.356 OA
HETATM   43  H   UNL     1     -34.153  20.727  45.533  1.00  0.00     0.218 HD
ENDBRANCH  37  42
BRANCH  38  44
HETATM   44  O   UNL     1     -35.490  18.038  44.062  1.00  0.00    -0.358 OA
HETATM   45  H   UNL     1     -35.544  17.069  43.935  1.00  0.00     0.217 HD
ENDBRANCH  38  44
ENDBRANCH  32  34
ENDBRANCH  31  32
ENDBRANCH  27  31
BRANCH  28  46
HETATM   46  O   UNL     1     -41.660  20.193  47.395  1.00  0.00    -0.356 OA
HETATM   47  H   UNL     1     -40.963  19.887  46.788  1.00  0.00     0.218 HD
ENDBRANCH  28  46
BRANCH  29  48
HETATM   48  O   UNL     1     -43.618  20.327  49.363  1.00  0.00    -0.358 OA
HETATM   49  H   UNL     1     -43.355  21.250  49.207  1.00  0.00     0.217 HD
ENDBRANCH  29  48
ENDBRANCH  23  25
ENDBRANCH  22  23
ENDBRANCH   5  22
BRANCH   6  50
HETATM   50  O   UNL     1     -36.732  17.208  52.969  1.00  0.00    -0.304 OA
BRANCH  50  51
HETATM   51  C   UNL     1     -35.612  17.607  53.636  1.00  0.00     0.294 C 
HETATM   52  O   UNL     1     -35.138  18.716  53.777  1.00  0.00    -0.259 OA
BRANCH  51  53
HETATM   53  C   UNL     1     -35.040  16.377  54.179  1.00  0.00     0.045 A 
HETATM   54  C   UNL     1     -34.304  15.599  53.284  1.00  0.00     0.057 A 
HETATM   55  C   UNL     1     -33.762  14.409  53.714  1.00  0.00     0.102 A 
HETATM   56  C   UNL     1     -33.914  14.016  55.033  1.00  0.00     0.132 A 
HETATM   57  C   UNL     1     -34.613  14.817  55.935  1.00  0.00     0.102 A 
HETATM   58  C   UNL     1     -35.203  16.005  55.517  1.00  0.00     0.057 A 
BRANCH  55  59
HETATM   59  O   UNL     1     -33.050  13.658  52.832  1.00  0.00    -0.358 OA
HETATM   60  H   UNL     1     -32.267  14.201  52.617  1.00  0.00     0.217 HD
ENDBRANCH  55  59
BRANCH  56  61
HETATM   61  O   UNL     1     -33.316  12.861  55.453  1.00  0.00    -0.356 OA
HETATM   62  H   UNL     1     -33.468  12.234  54.716  1.00  0.00     0.218 HD
ENDBRANCH  56  61
BRANCH  57  63
HETATM   63  O   UNL     1     -34.643  14.414  57.240  1.00  0.00    -0.358 OA
HETATM   64  H   UNL     1     -33.983  13.702  57.339  1.00  0.00     0.217 HD
ENDBRANCH  57  63
ENDBRANCH  51  53
ENDBRANCH  50  51
ENDBRANCH   6  50
ENDBRANCH   2   4
BRANCH   2  65
HETATM   65  C   UNL     1     -39.578  15.936  55.230  1.00  0.00     0.216 C 
BRANCH  65  66
HETATM   66  O   UNL     1     -39.016  15.716  56.522  1.00  0.00    -0.315 OA
BRANCH  66  67
HETATM   67  C   UNL     1     -39.748  14.886  57.272  1.00  0.00     0.293 C 
HETATM   68  O   UNL     1     -40.895  14.543  57.056  1.00  0.00    -0.259 OA
BRANCH  67  69
HETATM   69  C   UNL     1     -38.938  14.535  58.447  1.00  0.00     0.045 C 
HETATM   70  C   UNL     1     -39.084  13.317  59.138  1.00  0.00     0.057 C 
HETATM   71  C   UNL     1     -38.224  13.017  60.180  1.00  0.00     0.102 C 
HETATM   72  C   UNL     1     -37.130  13.830  60.424  1.00  0.00     0.133 C 
HETATM   73  C   UNL     1     -36.936  14.965  59.633  1.00  0.00     0.116 C 
HETATM   74  C   UNL     1     -37.915  15.415  58.760  1.00  0.00     0.058 C 
BRANCH  71  75
HETATM   75  O   UNL     1     -38.389  11.865  60.895  1.00  0.00    -0.358 OA
HETATM   76  H   UNL     1     -39.019  11.338  60.362  1.00  0.00     0.217 HD
ENDBRANCH  71  75
BRANCH  72  77
HETATM   77  O   UNL     1     -36.231  13.411  61.363  1.00  0.00    -0.356 OA
HETATM   78  H   UNL     1     -35.962  14.192  61.885  1.00  0.00     0.218 HD
ENDBRANCH  72  77
BRANCH  73  79
HETATM   79  O   UNL     1     -35.673  15.532  59.479  1.00  0.00    -0.272 OA
BRANCH  79  80
HETATM   80  C   UNL     1     -35.709  16.697  60.231  1.00  0.00     0.298 C 
HETATM   81  O   UNL     1     -35.522  16.712  61.438  1.00  0.00    -0.259 OA
BRANCH  80  82
HETATM   82  C   UNL     1     -36.008  17.936  59.454  1.00  0.00     0.045 A 
HETATM   83  C   UNL     1     -37.023  18.790  59.910  1.00  0.00     0.057 A 
HETATM   84  C   UNL     1     -37.347  19.926  59.176  1.00  0.00     0.102 A 
HETATM   85  C   UNL     1     -36.688  20.203  57.987  1.00  0.00     0.132 A 
HETATM   86  C   UNL     1     -35.686  19.350  57.534  1.00  0.00     0.102 A 
HETATM   87  C   UNL     1     -35.318  18.221  58.269  1.00  0.00     0.057 A 
BRANCH  84  88
HETATM   88  O   UNL     1     -38.336  20.724  59.657  1.00  0.00    -0.358 OA
HETATM   89  H   UNL     1     -37.989  21.276  60.391  1.00  0.00     0.217 HD
ENDBRANCH  84  88
BRANCH  85  90
HETATM   90  O   UNL     1     -37.034  21.306  57.257  1.00  0.00    -0.356 OA
HETATM   91  H   UNL     1     -36.851  22.077  57.831  1.00  0.00     0.218 HD
ENDBRANCH  85  90
BRANCH  86  92
HETATM   92  O   UNL     1     -35.105  19.649  56.332  1.00  0.00    -0.358 OA
HETATM   93  H   UNL     1     -35.648  20.335  55.902  1.00  0.00     0.217 HD
ENDBRANCH  86  92
ENDBRANCH  80  82
ENDBRANCH  79  80
ENDBRANCH  73  79
ENDBRANCH  67  69
ENDBRANCH  66  67
ENDBRANCH  65  66
ENDBRANCH   2  65
BRANCH   3  94
HETATM   94  O   UNL     1     -38.855  12.165  54.442  1.00  0.00    -0.285 OA
BRANCH  94  95
HETATM   95  C   UNL     1     -39.964  11.678  55.061  1.00  0.00     0.295 C 
HETATM   96  O   UNL     1     -40.158  11.558  56.258  1.00  0.00    -0.259 OA
BRANCH  95  97
HETATM   97  C   UNL     1     -40.926  11.294  54.037  1.00  0.00     0.045 A 
HETATM   98  C   UNL     1     -40.472  10.989  52.752  1.00  0.00     0.057 A 
HETATM   99  C   UNL     1     -41.382  10.521  51.826  1.00  0.00     0.102 A 
HETATM  100  C   UNL     1     -42.728  10.421  52.160  1.00  0.00     0.132 A 
HETATM  101  C   UNL     1     -43.178  10.783  53.427  1.00  0.00     0.102 A 
HETATM  102  C   UNL     1     -42.278  11.220  54.385  1.00  0.00     0.057 A 
BRANCH  99 103
HETATM  103  O   UNL     1     -40.940  10.128  50.597  1.00  0.00    -0.358 OA
HETATM  104  H   UNL     1     -40.096  10.615  50.485  1.00  0.00     0.217 HD
ENDBRANCH  99 103
BRANCH 100 105
HETATM  105  O   UNL     1     -43.606   9.953  51.221  1.00  0.00    -0.356 OA
HETATM  106  H   UNL     1     -43.415   8.993  51.178  1.00  0.00     0.218 HD
ENDBRANCH 100 105
BRANCH 101 107
HETATM  107  O   UNL     1     -44.512  10.676  53.696  1.00  0.00    -0.358 OA
HETATM  108  H   UNL     1     -44.980  11.332  53.148  1.00  0.00     0.217 HD
ENDBRANCH 101 107
ENDBRANCH  95  97
ENDBRANCH  94  95
ENDBRANCH   3  94
TORSDOF 43
ENDMDL
MODEL 8
REMARK VINA RESULT:    -8.860      1.366      3.230
REMARK INTER + INTRA:         -25.408
REMARK INTER:                 -22.917
REMARK INTRA:                  -2.491
REMARK UNBOUND:                -1.268
REMARK WARNING: 32 MAX_TORS EXCEEDED!!!
REMARK  43 active torsions:
REMARK  status: ('A' for Active; 'I' for Inactive)
REMARK    1  A    between atoms: O_2  and  C_27 
REMARK    2  A    between atoms: O_2  and  C_33 
REMARK    3  A    between atoms: O_3  and  C_28 
REMARK    4  A    between atoms: O_3  and  C_34 
REMARK    5  A    between atoms: O_4  and  C_29 
REMARK    6  A    between atoms: O_4  and  C_35 
REMARK    7  A    between atoms: O_5  and  C_31 
REMARK    8  A    between atoms: O_5  and  C_36 
REMARK    9  A    between atoms: O_6  and  C_32 
REMARK   10  A    between atoms: O_6  and  C_39 
REMARK   11  A    between atoms: O_12  and  C_51 
REMARK   12  A    between atoms: O_13  and  C_52 
REMARK   13  A    between atoms: O_13  and  C_99 
REMARK   14  A    between atoms: O_14  and  C_53 
REMARK   15  A    between atoms: O_15  and  C_54 
REMARK   16  A    between atoms: O_16  and  C_55 
REMARK   17  A    between atoms: O_17  and  C_56 
REMARK   18  A    between atoms: O_18  and  C_59 
REMARK   19  A    between atoms: O_19  and  C_60 
REMARK   20  A    between atoms: O_20  and  C_61 
REMARK   21  A    between atoms: O_21  and  C_62 
REMARK   22  A    between atoms: O_22  and  C_63 
REMARK   23  A    between atoms: O_23  and  C_64 
REMARK   24  A    between atoms: O_24  and  C_65 
REMARK   25  A    between atoms: O_24  and  C_85 
REMARK   26  A    between atoms: O_25  and  C_66 
REMARK   27  A    between atoms: O_26  and  C_67 
REMARK   28  A    between atoms: C_28  and  C_30 
REMARK   29  A    between atoms: C_29  and  C_31 
REMARK   30  A    between atoms: C_30  and  C_32 
REMARK   31  A    between atoms: C_33  and  C_37 
REMARK   32  A    between atoms: C_34  and  C_38 
REMARK   33  A    between atoms: C_35  and  C_40 
REMARK   34  A    between atoms: C_36  and  C_41 
REMARK   35  A    between atoms: C_39  and  C_42 
REMARK   36  A    between atoms: O_82  and  C_89 
REMARK   37  A    between atoms: O_83  and  C_90 
REMARK   38  A    between atoms: O_84  and  C_91 
REMARK   39  A    between atoms: C_85  and  C_86 
REMARK   40  A    between atoms: O_96  and  C_103 
REMARK   41  A    between atoms: O_97  and  C_104 
REMARK   42  A    between atoms: O_98  and  C_105 
REMARK   43  A    between atoms: C_99  and  C_100 
ROOT
HETATM    1  O   UNL     1     -37.837  13.415  54.748  1.00  0.00    -0.348 OA
HETATM    2  C   UNL     1     -39.039  13.962  54.404  1.00  0.00     0.201 A 
HETATM    3  C   UNL     1     -38.672  12.636  54.016  1.00  0.00     0.282 A 
ENDROOT
BRANCH   2   4
HETATM    4  C   UNL     1     -39.202  14.147  53.616  1.00  0.00     0.199 A 
HETATM    5  C   UNL     1     -39.988  15.556  53.561  1.00  0.00     0.198 A 
HETATM    6  C   UNL     1     -38.538  15.402  53.774  1.00  0.00     0.215 A 
BRANCH   4   7
HETATM    7  O   UNL     1     -40.810  13.495  53.661  1.00  0.00    -0.306 OA
BRANCH   7   8
HETATM    8  C   UNL     1     -41.722  12.729  53.082  1.00  0.00     0.294 C 
HETATM    9  O   UNL     1     -41.639  12.366  51.914  1.00  0.00    -0.259 OA
BRANCH   8  10
HETATM   10  C   UNL     1     -42.800  12.196  53.896  1.00  0.00     0.045 A 
HETATM   11  C   UNL     1     -42.441  11.497  55.055  1.00  0.00     0.057 A 
HETATM   12  C   UNL     1     -43.363  11.387  56.080  1.00  0.00     0.102 A 
HETATM   13  C   UNL     1     -44.632  11.934  55.924  1.00  0.00     0.132 A 
HETATM   14  C   UNL     1     -45.013  12.512  54.716  1.00  0.00     0.102 A 
HETATM   15  C   UNL     1     -44.094  12.674  53.695  1.00  0.00     0.057 A 
BRANCH  12  16
HETATM   16  O   UNL     1     -43.047  10.798  57.270  1.00  0.00    -0.358 OA
HETATM   17  H   UNL     1     -43.730  10.125  57.450  1.00  0.00     0.217 HD
ENDBRANCH  12  16
BRANCH  13  18
HETATM   18  O   UNL     1     -45.507  11.972  56.975  1.00  0.00    -0.356 OA
HETATM   19  H   UNL     1     -44.949  11.748  57.748  1.00  0.00     0.218 HD
ENDBRANCH  13  18
BRANCH  14  20
HETATM   20  O   UNL     1     -46.288  12.973  54.563  1.00  0.00    -0.358 OA
HETATM   21  H   UNL     1     -46.245  13.892  54.894  1.00  0.00     0.217 HD
ENDBRANCH  14  20
ENDBRANCH   8  10
ENDBRANCH   7   8
ENDBRANCH   4   7
BRANCH   5  22
HETATM   22  O   UNL     1     -40.341  15.975  52.218  1.00  0.00    -0.306 OA
BRANCH  22  23
HETATM   23  C   UNL     1     -41.370  16.841  52.115  1.00  0.00     0.294 C 
HETATM   24  O   UNL     1     -41.941  17.554  52.931  1.00  0.00    -0.259 OA
BRANCH  23  25
HETATM   25  C   UNL     1     -41.822  16.847  50.784  1.00  0.00     0.045 C 
HETATM   26  C   UNL     1     -42.841  15.940  50.652  1.00  0.00     0.058 C 
HETATM   27  C   UNL     1     -42.694  15.100  49.595  1.00  0.00     0.116 C 
HETATM   28  C   UNL     1     -41.899  15.478  48.497  1.00  0.00     0.133 C 
HETATM   29  C   UNL     1     -41.021  16.554  48.612  1.00  0.00     0.102 C 
HETATM   30  C   UNL     1     -40.870  17.153  49.825  1.00  0.00     0.057 C 
BRANCH  27  31
HETATM   31  O   UNL     1     -43.180  13.788  49.707  1.00  0.00    -0.272 OA
BRANCH  31  32
HETATM   32  C   UNL     1     -44.263  13.352  48.914  1.00  0.00     0.298 C 
HETATM   33  O   UNL     1     -44.949  13.909  48.103  1.00  0.00    -0.259 OA
BRANCH  32  34
HETATM   34  C   UNL     1     -44.114  11.907  49.088  1.00  0.00     0.045 C 
HETATM   35  C   UNL     1     -44.816  11.292  50.124  1.00  0.00     0.057 C 
HETATM   36  C   UNL     1     -44.146  10.296  50.810  1.00  0.00     0.102 C 
HETATM   37  C   UNL     1     -42.795  10.055  50.557  1.00  0.00     0.132 C 
HETATM   38  C   UNL     1     -42.156  10.662  49.489  1.00  0.00     0.102 C 
HETATM   39  C   UNL     1     -42.861  11.467  48.634  1.00  0.00     0.057 C 
BRANCH  36  40
HETATM   40  O   UNL     1     -44.737   9.609  51.827  1.00  0.00    -0.358 OA
HETATM   41  H   UNL     1     -45.325  10.248  52.274  1.00  0.00     0.217 HD
ENDBRANCH  36  40
BRANCH  37  42
HETATM   42  O   UNL     1     -42.060   9.280  51.406  1.00  0.00    -0.356 OA
HETATM   43  H   UNL     1     -41.174   9.697  51.405  1.00  0.00     0.218 HD
ENDBRANCH  37  42
BRANCH  38  44
HETATM   44  O   UNL     1     -40.797  10.658  49.386  1.00  0.00    -0.358 OA
HETATM   45  H   UNL     1     -40.607  10.196  48.545  1.00  0.00     0.217 HD
ENDBRANCH  38  44
ENDBRANCH  32  34
ENDBRANCH  31  32
ENDBRANCH  27  31
BRANCH  28  46
HETATM   46  O   UNL     1     -41.938  14.817  47.306  1.00  0.00    -0.356 OA
HETATM   47  H   UNL     1     -41.696  15.464  46.618  1.00  0.00     0.218 HD
ENDBRANCH  28  46
BRANCH  29  48
HETATM   48  O   UNL     1     -40.243  17.001  47.594  1.00  0.00    -0.358 OA
HETATM   49  H   UNL     1     -39.573  16.308  47.467  1.00  0.00     0.217 HD
ENDBRANCH  29  48
ENDBRANCH  23  25
ENDBRANCH  22  23
ENDBRANCH   5  22
BRANCH   6  50
HETATM   50  O   UNL     1     -37.863  16.893  53.534  1.00  0.00    -0.304 OA
BRANCH  50  51
HETATM   51  C   UNL     1     -36.904  17.525  54.269  1.00  0.00     0.294 C 
HETATM   52  O   UNL     1     -36.762  18.704  54.521  1.00  0.00    -0.259 OA
BRANCH  51  53
HETATM   53  C   UNL     1     -36.012  16.458  54.719  1.00  0.00     0.045 A 
HETATM   54  C   UNL     1     -35.091  15.995  53.778  1.00  0.00     0.057 A 
HETATM   55  C   UNL     1     -34.239  14.968  54.119  1.00  0.00     0.102 A 
HETATM   56  C   UNL     1     -34.274  14.436  55.397  1.00  0.00     0.132 A 
HETATM   57  C   UNL     1     -35.166  14.932  56.347  1.00  0.00     0.102 A 
HETATM   58  C   UNL     1     -36.063  15.941  56.017  1.00  0.00     0.057 A 
BRANCH  55  59
HETATM   59  O   UNL     1     -33.349  14.523  53.194  1.00  0.00    -0.358 OA
HETATM   60  H   UNL     1     -33.722  13.679  52.874  1.00  0.00     0.217 HD
ENDBRANCH  55  59
BRANCH  56  61
HETATM   61  O   UNL     1     -33.379  13.459  55.732  1.00  0.00    -0.356 OA
HETATM   62  H   UNL     1     -33.897  12.631  55.668  1.00  0.00     0.218 HD
ENDBRANCH  56  61
BRANCH  57  63
HETATM   63  O   UNL     1     -35.081  14.424  57.613  1.00  0.00    -0.358 OA
HETATM   64  H   UNL     1     -35.980  14.435  57.991  1.00  0.00     0.217 HD
ENDBRANCH  57  63
ENDBRANCH  51  53
ENDBRANCH  50  51
ENDBRANCH   6  50
ENDBRANCH   2   4
BRANCH   2  65
HETATM   65  C   UNL     1     -40.319  14.539  55.269  1.00  0.00     0.216 C 
BRANCH  65  66
HETATM   66  O   UNL     1     -40.021  14.238  56.630  1.00  0.00    -0.315 OA
BRANCH  66  67
HETATM   67  C   UNL     1     -39.541  15.291  57.302  1.00  0.00     0.293 C 
HETATM   68  O   UNL     1     -39.633  16.457  56.972  1.00  0.00    -0.259 OA
BRANCH  67  69
HETATM   69  C   UNL     1     -38.810  14.766  58.465  1.00  0.00     0.045 C 
HETATM   70  C   UNL     1     -38.846  13.409  58.839  1.00  0.00     0.057 C 
HETATM   71  C   UNL     1     -38.060  12.971  59.890  1.00  0.00     0.102 C 
HETATM   72  C   UNL     1     -37.125  13.825  60.452  1.00  0.00     0.133 C 
HETATM   73  C   UNL     1     -37.021  15.132  59.969  1.00  0.00     0.116 C 
HETATM   74  C   UNL     1     -37.962  15.660  59.098  1.00  0.00     0.058 C 
BRANCH  71  75
HETATM   75  O   UNL     1     -38.127  11.671  60.301  1.00  0.00    -0.358 OA
HETATM   76  H   UNL     1     -37.576  11.184  59.653  1.00  0.00     0.217 HD
ENDBRANCH  71  75
BRANCH  72  77
HETATM   77  O   UNL     1     -36.273  13.303  61.382  1.00  0.00    -0.356 OA
HETATM   78  H   UNL     1     -35.456  13.035  60.918  1.00  0.00     0.218 HD
ENDBRANCH  72  77
BRANCH  73  79
HETATM   79  O   UNL     1     -35.845  15.864  60.113  1.00  0.00    -0.272 OA
BRANCH  79  80
HETATM   80  C   UNL     1     -36.242  17.079  60.651  1.00  0.00     0.298 C 
HETATM   81  O   UNL     1     -36.535  17.217  61.829  1.00  0.00    -0.259 OA
BRANCH  80  82
HETATM   82  C   UNL     1     -36.298  18.208  59.676  1.00  0.00     0.045 A 
HETATM   83  C   UNL     1     -37.262  19.210  59.861  1.00  0.00     0.057 A 
HETATM   84  C   UNL     1     -37.361  20.247  58.938  1.00  0.00     0.102 A 
HETATM   85  C   UNL     1     -36.527  20.280  57.830  1.00  0.00     0.132 A 
HETATM   86  C   UNL     1     -35.576  19.280  57.647  1.00  0.00     0.102 A 
HETATM   87  C   UNL     1     -35.434  18.247  58.575  1.00  0.00     0.057 A 
BRANCH  84  88
HETATM   88  O   UNL     1     -38.308  21.196  59.158  1.00  0.00    -0.358 OA
HETATM   89  H   UNL     1     -39.188  20.853  58.894  1.00  0.00     0.217 HD
ENDBRANCH  84  88
BRANCH  85  90
HETATM   90  O   UNL     1     -36.650  21.286  56.913  1.00  0.00    -0.356 OA
HETATM   91  H   UNL     1     -35.738  21.551  56.680  1.00  0.00     0.218 HD
ENDBRANCH  85  90
BRANCH  86  92
HETATM   92  O   UNL     1     -34.815  19.339  56.512  1.00  0.00    -0.358 OA
HETATM   93  H   UNL     1     -35.418  19.467  55.757  1.00  0.00     0.217 HD
ENDBRANCH  86  92
ENDBRANCH  80  82
ENDBRANCH  79  80
ENDBRANCH  73  79
ENDBRANCH  67  69
ENDBRANCH  66  67
ENDBRANCH  65  66
ENDBRANCH   2  65
BRANCH   3  94
HETATM   94  O   UNL     1     -38.197  11.313  54.601  1.00  0.00    -0.285 OA
BRANCH  94  95
HETATM   95  C   UNL     1     -38.969  10.213  54.389  1.00  0.00     0.295 C 
HETATM   96  O   UNL     1     -39.429   9.818  53.331  1.00  0.00    -0.259 OA
BRANCH  95  97
HETATM   97  C   UNL     1     -39.184   9.552  55.669  1.00  0.00     0.045 A 
HETATM   98  C   UNL     1     -39.595  10.309  56.768  1.00  0.00     0.057 A 
HETATM   99  C   UNL     1     -39.900   9.651  57.942  1.00  0.00     0.102 A 
HETATM  100  C   UNL     1     -39.736   8.273  58.033  1.00  0.00     0.132 A 
HETATM  101  C   UNL     1     -39.270   7.537  56.947  1.00  0.00     0.102 A 
HETATM  102  C   UNL     1     -38.993   8.170  55.746  1.00  0.00     0.057 A 
BRANCH  99 103
HETATM  103  O   UNL     1     -40.393  10.363  58.996  1.00  0.00    -0.358 OA
HETATM  104  H   UNL     1     -39.904  11.211  58.955  1.00  0.00     0.217 HD
ENDBRANCH  99 103
BRANCH 100 105
HETATM  105  O   UNL     1     -40.046   7.649  59.210  1.00  0.00    -0.356 OA
HETATM  106  H   UNL     1     -40.419   8.367  59.765  1.00  0.00     0.218 HD
ENDBRANCH 100 105
BRANCH 101 107
HETATM  107  O   UNL     1     -39.116   6.189  57.096  1.00  0.00    -0.358 OA
HETATM  108  H   UNL     1     -39.120   5.992  58.051  1.00  0.00     0.217 HD
ENDBRANCH 101 107
ENDBRANCH  95  97
ENDBRANCH  94  95
ENDBRANCH   3  94
TORSDOF 43
ENDMDL
MODEL 9
REMARK VINA RESULT:    -8.790      1.051      2.129
REMARK INTER + INTRA:         -25.216
REMARK INTER:                 -22.755
REMARK INTRA:                  -2.462
REMARK UNBOUND:                -1.268
REMARK WARNING: 32 MAX_TORS EXCEEDED!!!
REMARK  43 active torsions:
REMARK  status: ('A' for Active; 'I' for Inactive)
REMARK    1  A    between atoms: O_2  and  C_27 
REMARK    2  A    between atoms: O_2  and  C_33 
REMARK    3  A    between atoms: O_3  and  C_28 
REMARK    4  A    between atoms: O_3  and  C_34 
REMARK    5  A    between atoms: O_4  and  C_29 
REMARK    6  A    between atoms: O_4  and  C_35 
REMARK    7  A    between atoms: O_5  and  C_31 
REMARK    8  A    between atoms: O_5  and  C_36 
REMARK    9  A    between atoms: O_6  and  C_32 
REMARK   10  A    between atoms: O_6  and  C_39 
REMARK   11  A    between atoms: O_12  and  C_51 
REMARK   12  A    between atoms: O_13  and  C_52 
REMARK   13  A    between atoms: O_13  and  C_99 
REMARK   14  A    between atoms: O_14  and  C_53 
REMARK   15  A    between atoms: O_15  and  C_54 
REMARK   16  A    between atoms: O_16  and  C_55 
REMARK   17  A    between atoms: O_17  and  C_56 
REMARK   18  A    between atoms: O_18  and  C_59 
REMARK   19  A    between atoms: O_19  and  C_60 
REMARK   20  A    between atoms: O_20  and  C_61 
REMARK   21  A    between atoms: O_21  and  C_62 
REMARK   22  A    between atoms: O_22  and  C_63 
REMARK   23  A    between atoms: O_23  and  C_64 
REMARK   24  A    between atoms: O_24  and  C_65 
REMARK   25  A    between atoms: O_24  and  C_85 
REMARK   26  A    between atoms: O_25  and  C_66 
REMARK   27  A    between atoms: O_26  and  C_67 
REMARK   28  A    between atoms: C_28  and  C_30 
REMARK   29  A    between atoms: C_29  and  C_31 
REMARK   30  A    between atoms: C_30  and  C_32 
REMARK   31  A    between atoms: C_33  and  C_37 
REMARK   32  A    between atoms: C_34  and  C_38 
REMARK   33  A    between atoms: C_35  and  C_40 
REMARK   34  A    between atoms: C_36  and  C_41 
REMARK   35  A    between atoms: C_39  and  C_42 
REMARK   36  A    between atoms: O_82  and  C_89 
REMARK   37  A    between atoms: O_83  and  C_90 
REMARK   38  A    between atoms: O_84  and  C_91 
REMARK   39  A    between atoms: C_85  and  C_86 
REMARK   40  A    between atoms: O_96  and  C_103 
REMARK   41  A    between atoms: O_97  and  C_104 
REMARK   42  A    between atoms: O_98  and  C_105 
REMARK   43  A    between atoms: C_99  and  C_100 
ROOT
HETATM    1  O   UNL     1     -37.840  13.494  54.757  1.00  0.00    -0.348 OA
HETATM    2  C   UNL     1     -39.062  14.035  54.486  1.00  0.00     0.201 A 
HETATM    3  C   UNL     1     -38.710  12.714  54.071  1.00  0.00     0.282 A 
ENDROOT
BRANCH   2   4
HETATM    4  C   UNL     1     -39.271  14.223  53.710  1.00  0.00     0.199 A 
HETATM    5  C   UNL     1     -39.873  15.721  53.678  1.00  0.00     0.198 A 
HETATM    6  C   UNL     1     -38.441  15.385  53.768  1.00  0.00     0.215 A 
BRANCH   4   7
HETATM    7  O   UNL     1     -40.939  13.787  53.917  1.00  0.00    -0.306 OA
BRANCH   7   8
HETATM    8  C   UNL     1     -42.040  13.291  53.374  1.00  0.00     0.294 C 
HETATM    9  O   UNL     1     -43.157  13.730  53.622  1.00  0.00    -0.259 OA
BRANCH   8  10
HETATM   10  C   UNL     1     -41.911  12.269  52.350  1.00  0.00     0.045 A 
HETATM   11  C   UNL     1     -42.804  11.191  52.406  1.00  0.00     0.057 A 
HETATM   12  C   UNL     1     -43.050  10.470  51.253  1.00  0.00     0.102 A 
HETATM   13  C   UNL     1     -42.382  10.801  50.080  1.00  0.00     0.132 A 
HETATM   14  C   UNL     1     -41.404  11.791  50.074  1.00  0.00     0.102 A 
HETATM   15  C   UNL     1     -41.174  12.556  51.204  1.00  0.00     0.057 A 
BRANCH  12  16
HETATM   16  O   UNL     1     -43.975   9.466  51.218  1.00  0.00    -0.358 OA
HETATM   17  H   UNL     1     -44.844   9.866  51.411  1.00  0.00     0.217 HD
ENDBRANCH  12  16
BRANCH  13  18
HETATM   18  O   UNL     1     -42.718  10.204  48.895  1.00  0.00    -0.356 OA
HETATM   19  H   UNL     1     -43.685  10.066  48.972  1.00  0.00     0.218 HD
ENDBRANCH  13  18
BRANCH  14  20
HETATM   20  O   UNL     1     -40.709  12.044  48.927  1.00  0.00    -0.358 OA
HETATM   21  H   UNL     1     -41.383  11.967  48.224  1.00  0.00     0.217 HD
ENDBRANCH  14  20
ENDBRANCH   8  10
ENDBRANCH   7   8
ENDBRANCH   4   7
BRANCH   5  22
HETATM   22  O   UNL     1     -40.291  16.154  52.358  1.00  0.00    -0.306 OA
BRANCH  22  23
HETATM   23  C   UNL     1     -41.365  16.967  52.310  1.00  0.00     0.294 C 
HETATM   24  O   UNL     1     -42.450  16.946  52.878  1.00  0.00    -0.259 OA
BRANCH  23  25
HETATM   25  C   UNL     1     -41.108  18.001  51.392  1.00  0.00     0.045 C 
HETATM   26  C   UNL     1     -41.933  17.853  50.307  1.00  0.00     0.058 C 
HETATM   27  C   UNL     1     -41.289  17.923  49.114  1.00  0.00     0.116 C 
HETATM   28  C   UNL     1     -40.058  18.597  49.015  1.00  0.00     0.133 C 
HETATM   29  C   UNL     1     -39.347  18.921  50.169  1.00  0.00     0.102 C 
HETATM   30  C   UNL     1     -39.808  18.479  51.371  1.00  0.00     0.057 C 
BRANCH  27  31
HETATM   31  O   UNL     1     -41.769  17.152  48.044  1.00  0.00    -0.272 OA
BRANCH  31  32
HETATM   32  C   UNL     1     -41.627  15.748  48.049  1.00  0.00     0.298 C 
HETATM   33  O   UNL     1     -40.680  15.031  48.213  1.00  0.00    -0.259 OA
BRANCH  32  34
HETATM   34  C   UNL     1     -43.037  15.369  48.144  1.00  0.00     0.045 C 
HETATM   35  C   UNL     1     -43.970  16.118  47.428  1.00  0.00     0.057 C 
HETATM   36  C   UNL     1     -45.171  16.370  48.065  1.00  0.00     0.102 C 
HETATM   37  C   UNL     1     -45.344  16.016  49.403  1.00  0.00     0.132 C 
HETATM   38  C   UNL     1     -44.404  15.236  50.057  1.00  0.00     0.102 C 
HETATM   39  C   UNL     1     -43.316  14.757  49.375  1.00  0.00     0.057 C 
BRANCH  36  40
HETATM   40  O   UNL     1     -46.167  17.072  47.457  1.00  0.00    -0.358 OA
HETATM   41  H   UNL     1     -46.993  16.596  47.664  1.00  0.00     0.217 HD
ENDBRANCH  36  40
BRANCH  37  42
HETATM   42  O   UNL     1     -46.402  16.499  50.116  1.00  0.00    -0.356 OA
HETATM   43  H   UNL     1     -46.091  16.491  51.044  1.00  0.00     0.218 HD
ENDBRANCH  37  42
BRANCH  38  44
HETATM   44  O   UNL     1     -44.414  15.108  51.413  1.00  0.00    -0.358 OA
HETATM   45  H   UNL     1     -45.339  14.892  51.643  1.00  0.00     0.217 HD
ENDBRANCH  38  44
ENDBRANCH  32  34
ENDBRANCH  31  32
ENDBRANCH  27  31
BRANCH  28  46
HETATM   46  O   UNL     1     -39.509  18.943  47.816  1.00  0.00    -0.356 OA
HETATM   47  H   UNL     1     -40.222  18.888  47.155  1.00  0.00     0.218 HD
ENDBRANCH  28  46
BRANCH  29  48
HETATM   48  O   UNL     1     -38.169  19.596  50.162  1.00  0.00    -0.358 OA
HETATM   49  H   UNL     1     -37.957  19.721  49.222  1.00  0.00     0.217 HD
ENDBRANCH  29  48
ENDBRANCH  23  25
ENDBRANCH  22  23
ENDBRANCH   5  22
BRANCH   6  50
HETATM   50  O   UNL     1     -37.606  16.770  53.421  1.00  0.00    -0.304 OA
BRANCH  50  51
HETATM   51  C   UNL     1     -36.646  17.396  54.159  1.00  0.00     0.294 C 
HETATM   52  O   UNL     1     -36.506  18.572  54.426  1.00  0.00    -0.259 OA
BRANCH  51  53
HETATM   53  C   UNL     1     -35.748  16.327  54.591  1.00  0.00     0.045 A 
HETATM   54  C   UNL     1     -35.896  15.900  55.911  1.00  0.00     0.057 A 
HETATM   55  C   UNL     1     -35.062  14.920  56.399  1.00  0.00     0.102 A 
HETATM   56  C   UNL     1     -34.118  14.338  55.569  1.00  0.00     0.132 A 
HETATM   57  C   UNL     1     -34.003  14.736  54.239  1.00  0.00     0.102 A 
HETATM   58  C   UNL     1     -34.806  15.751  53.731  1.00  0.00     0.057 A 
BRANCH  55  59
HETATM   59  O   UNL     1     -35.213  14.515  57.688  1.00  0.00    -0.358 OA
HETATM   60  H   UNL     1     -34.318  14.246  57.973  1.00  0.00     0.217 HD
ENDBRANCH  55  59
BRANCH  56  61
HETATM   61  O   UNL     1     -33.342  13.324  56.058  1.00  0.00    -0.356 OA
HETATM   62  H   UNL     1     -32.703  13.147  55.338  1.00  0.00     0.218 HD
ENDBRANCH  56  61
BRANCH  57  63
HETATM   63  O   UNL     1     -33.116  14.054  53.454  1.00  0.00    -0.358 OA
HETATM   64  H   UNL     1     -32.266  14.532  53.494  1.00  0.00     0.217 HD
ENDBRANCH  57  63
ENDBRANCH  51  53
ENDBRANCH  50  51
ENDBRANCH   6  50
ENDBRANCH   2   4
BRANCH   2  65
HETATM   65  C   UNL     1     -40.294  14.600  55.427  1.00  0.00     0.216 C 
BRANCH  65  66
HETATM   66  O   UNL     1     -39.908  14.309  56.768  1.00  0.00    -0.315 OA
BRANCH  66  67
HETATM   67  C   UNL     1     -39.400  15.370  57.404  1.00  0.00     0.293 C 
HETATM   68  O   UNL     1     -39.439  16.524  57.023  1.00  0.00    -0.259 OA
BRANCH  67  69
HETATM   69  C   UNL     1     -38.710  14.867  58.601  1.00  0.00     0.045 C 
HETATM   70  C   UNL     1     -38.725  13.510  58.977  1.00  0.00     0.057 C 
HETATM   71  C   UNL     1     -37.978  13.096  60.065  1.00  0.00     0.102 C 
HETATM   72  C   UNL     1     -37.096  13.977  60.669  1.00  0.00     0.133 C 
HETATM   73  C   UNL     1     -37.006  15.286  60.189  1.00  0.00     0.116 C 
HETATM   74  C   UNL     1     -37.919  15.786  59.273  1.00  0.00     0.058 C 
BRANCH  71  75
HETATM   75  O   UNL     1     -38.027  11.795  60.475  1.00  0.00    -0.358 OA
HETATM   76  H   UNL     1     -37.643  11.810  61.376  1.00  0.00     0.217 HD
ENDBRANCH  71  75
BRANCH  72  77
HETATM   77  O   UNL     1     -36.275  13.480  61.640  1.00  0.00    -0.356 OA
HETATM   78  H   UNL     1     -35.393  13.344  61.242  1.00  0.00     0.218 HD
ENDBRANCH  72  77
BRANCH  73  79
HETATM   79  O   UNL     1     -35.860  16.051  60.387  1.00  0.00    -0.272 OA
BRANCH  79  80
HETATM   80  C   UNL     1     -36.324  17.307  60.749  1.00  0.00     0.298 C 
HETATM   81  O   UNL     1     -36.655  17.587  61.892  1.00  0.00    -0.259 OA
BRANCH  80  82
HETATM   82  C   UNL     1     -36.405  18.292  59.631  1.00  0.00     0.045 A 
HETATM   83  C   UNL     1     -35.466  18.213  58.593  1.00  0.00     0.057 A 
HETATM   84  C   UNL     1     -35.497  19.149  57.564  1.00  0.00     0.102 A 
HETATM   85  C   UNL     1     -36.436  20.170  57.574  1.00  0.00     0.132 A 
HETATM   86  C   UNL     1     -37.363  20.249  58.610  1.00  0.00     0.102 A 
HETATM   87  C   UNL     1     -37.375  19.303  59.636  1.00  0.00     0.057 A 
BRANCH  84  88
HETATM   88  O   UNL     1     -34.568  19.033  56.580  1.00  0.00    -0.358 OA
HETATM   89  H   UNL     1     -34.039  19.857  56.523  1.00  0.00     0.217 HD
ENDBRANCH  84  88
BRANCH  85  90
HETATM   90  O   UNL     1     -36.441  21.103  56.575  1.00  0.00    -0.356 OA
HETATM   91  H   UNL     1     -36.074  20.655  55.787  1.00  0.00     0.218 HD
ENDBRANCH  85  90
BRANCH  86  92
HETATM   92  O   UNL     1     -38.234  21.303  58.591  1.00  0.00    -0.358 OA
HETATM   93  H   UNL     1     -37.712  22.122  58.678  1.00  0.00     0.217 HD
ENDBRANCH  86  92
ENDBRANCH  80  82
ENDBRANCH  79  80
ENDBRANCH  73  79
ENDBRANCH  67  69
ENDBRANCH  66  67
ENDBRANCH  65  66
ENDBRANCH   2  65
BRANCH   3  94
HETATM   94  O   UNL     1     -38.193  11.391  54.620  1.00  0.00    -0.285 OA
BRANCH  94  95
HETATM   95  C   UNL     1     -38.936  10.275  54.386  1.00  0.00     0.295 C 
HETATM   96  O   UNL     1     -39.366   9.876  53.318  1.00  0.00    -0.259 OA
BRANCH  95  97
HETATM   97  C   UNL     1     -39.160   9.602  55.658  1.00  0.00     0.045 A 
HETATM   98  C   UNL     1     -39.515  10.357  56.778  1.00  0.00     0.057 A 
HETATM   99  C   UNL     1     -39.832   9.693  57.946  1.00  0.00     0.102 A 
HETATM  100  C   UNL     1     -39.733   8.308  58.010  1.00  0.00     0.132 A 
HETATM  101  C   UNL     1     -39.322   7.570  56.902  1.00  0.00     0.102 A 
HETATM  102  C   UNL     1     -39.036   8.211  55.708  1.00  0.00     0.057 A 
BRANCH  99 103
HETATM  103  O   UNL     1     -40.272  10.408  59.021  1.00  0.00    -0.358 OA
HETATM  104  H   UNL     1     -41.194  10.641  58.785  1.00  0.00     0.217 HD
ENDBRANCH  99 103
BRANCH 100 105
HETATM  105  O   UNL     1     -40.053   7.678  59.181  1.00  0.00    -0.356 OA
HETATM  106  H   UNL     1     -40.567   6.895  58.893  1.00  0.00     0.218 HD
ENDBRANCH 100 105
BRANCH 101 107
HETATM  107  O   UNL     1     -39.231   6.213  57.025  1.00  0.00    -0.358 OA
HETATM  108  H   UNL     1     -40.137   5.859  57.096  1.00  0.00     0.217 HD
ENDBRANCH 101 107
ENDBRANCH  95  97
ENDBRANCH  94  95
ENDBRANCH   3  94
TORSDOF 43
ENDMDL
MODEL 10
REMARK VINA RESULT:    -8.777      1.907      3.937
REMARK INTER + INTRA:         -25.182
REMARK INTER:                 -20.725
REMARK INTRA:                  -4.456
REMARK UNBOUND:                -1.268
REMARK WARNING: 32 MAX_TORS EXCEEDED!!!
REMARK  43 active torsions:
REMARK  status: ('A' for Active; 'I' for Inactive)
REMARK    1  A    between atoms: O_2  and  C_27 
REMARK    2  A    between atoms: O_2  and  C_33 
REMARK    3  A    between atoms: O_3  and  C_28 
REMARK    4  A    between atoms: O_3  and  C_34 
REMARK    5  A    between atoms: O_4  and  C_29 
REMARK    6  A    between atoms: O_4  and  C_35 
REMARK    7  A    between atoms: O_5  and  C_31 
REMARK    8  A    between atoms: O_5  and  C_36 
REMARK    9  A    between atoms: O_6  and  C_32 
REMARK   10  A    between atoms: O_6  and  C_39 
REMARK   11  A    between atoms: O_12  and  C_51 
REMARK   12  A    between atoms: O_13  and  C_52 
REMARK   13  A    between atoms: O_13  and  C_99 
REMARK   14  A    between atoms: O_14  and  C_53 
REMARK   15  A    between atoms: O_15  and  C_54 
REMARK   16  A    between atoms: O_16  and  C_55 
REMARK   17  A    between atoms: O_17  and  C_56 
REMARK   18  A    between atoms: O_18  and  C_59 
REMARK   19  A    between atoms: O_19  and  C_60 
REMARK   20  A    between atoms: O_20  and  C_61 
REMARK   21  A    between atoms: O_21  and  C_62 
REMARK   22  A    between atoms: O_22  and  C_63 
REMARK   23  A    between atoms: O_23  and  C_64 
REMARK   24  A    between atoms: O_24  and  C_65 
REMARK   25  A    between atoms: O_24  and  C_85 
REMARK   26  A    between atoms: O_25  and  C_66 
REMARK   27  A    between atoms: O_26  and  C_67 
REMARK   28  A    between atoms: C_28  and  C_30 
REMARK   29  A    between atoms: C_29  and  C_31 
REMARK   30  A    between atoms: C_30  and  C_32 
REMARK   31  A    between atoms: C_33  and  C_37 
REMARK   32  A    between atoms: C_34  and  C_38 
REMARK   33  A    between atoms: C_35  and  C_40 
REMARK   34  A    between atoms: C_36  and  C_41 
REMARK   35  A    between atoms: C_39  and  C_42 
REMARK   36  A    between atoms: O_82  and  C_89 
REMARK   37  A    between atoms: O_83  and  C_90 
REMARK   38  A    between atoms: O_84  and  C_91 
REMARK   39  A    between atoms: C_85  and  C_86 
REMARK   40  A    between atoms: O_96  and  C_103 
REMARK   41  A    between atoms: O_97  and  C_104 
REMARK   42  A    between atoms: O_98  and  C_105 
REMARK   43  A    between atoms: C_99  and  C_100 
ROOT
HETATM    1  O   UNL     1     -38.038  13.049  55.090  1.00  0.00    -0.348 OA
HETATM    2  C   UNL     1     -39.247  13.571  54.733  1.00  0.00     0.201 A 
HETATM    3  C   UNL     1     -38.933  12.190  54.545  1.00  0.00     0.282 A 
ENDROOT
BRANCH   2   4
HETATM    4  C   UNL     1     -39.455  13.632  53.937  1.00  0.00     0.199 A 
HETATM    5  C   UNL     1     -40.040  15.112  53.661  1.00  0.00     0.198 A 
HETATM    6  C   UNL     1     -38.612  14.778  53.804  1.00  0.00     0.215 A 
BRANCH   4   7
HETATM    7  O   UNL     1     -41.127  13.255  54.213  1.00  0.00    -0.306 OA
BRANCH   7   8
HETATM    8  C   UNL     1     -42.269  12.807  53.714  1.00  0.00     0.294 C 
HETATM    9  O   UNL     1     -43.340  13.372  53.898  1.00  0.00    -0.259 OA
BRANCH   8  10
HETATM   10  C   UNL     1     -42.234  11.671  52.810  1.00  0.00     0.045 A 
HETATM   11  C   UNL     1     -43.375  10.859  52.758  1.00  0.00     0.057 A 
HETATM   12  C   UNL     1     -43.593  10.089  51.630  1.00  0.00     0.102 A 
HETATM   13  C   UNL     1     -42.664  10.105  50.596  1.00  0.00     0.132 A 
HETATM   14  C   UNL     1     -41.475  10.817  50.721  1.00  0.00     0.102 A 
HETATM   15  C   UNL     1     -41.256  11.630  51.819  1.00  0.00     0.057 A 
BRANCH  12  16
HETATM   16  O   UNL     1     -44.728   9.346  51.477  1.00  0.00    -0.358 OA
HETATM   17  H   UNL     1     -45.421   9.942  51.134  1.00  0.00     0.217 HD
ENDBRANCH  12  16
BRANCH  13  18
HETATM   18  O   UNL     1     -42.930   9.473  49.412  1.00  0.00    -0.356 OA
HETATM   19  H   UNL     1     -43.658   8.858  49.637  1.00  0.00     0.218 HD
ENDBRANCH  13  18
BRANCH  14  20
HETATM   20  O   UNL     1     -40.545  10.755  49.724  1.00  0.00    -0.358 OA
HETATM   21  H   UNL     1     -40.532   9.810  49.475  1.00  0.00     0.217 HD
ENDBRANCH  14  20
ENDBRANCH   8  10
ENDBRANCH   7   8
ENDBRANCH   4   7
BRANCH   5  22
HETATM   22  O   UNL     1     -40.456  15.328  52.288  1.00  0.00    -0.306 OA
BRANCH  22  23
HETATM   23  C   UNL     1     -41.641  15.948  52.115  1.00  0.00     0.294 C 
HETATM   24  O   UNL     1     -42.295  16.704  52.823  1.00  0.00    -0.259 OA
BRANCH  23  25
HETATM   25  C   UNL     1     -42.162  15.582  50.861  1.00  0.00     0.045 C 
HETATM   26  C   UNL     1     -43.507  15.348  50.985  1.00  0.00     0.058 C 
HETATM   27  C   UNL     1     -43.914  14.177  50.431  1.00  0.00     0.116 C 
HETATM   28  C   UNL     1     -43.154  13.578  49.410  1.00  0.00     0.133 C 
HETATM   29  C   UNL     1     -41.847  13.999  49.176  1.00  0.00     0.102 C 
HETATM   30  C   UNL     1     -41.291  14.913  50.018  1.00  0.00     0.057 C 
BRANCH  27  31
HETATM   31  O   UNL     1     -44.981  13.487  51.027  1.00  0.00    -0.272 OA
BRANCH  31  32
HETATM   32  C   UNL     1     -46.315  13.783  50.674  1.00  0.00     0.298 C 
HETATM   33  O   UNL     1     -46.822  14.134  49.645  1.00  0.00    -0.259 OA
BRANCH  32  34
HETATM   34  C   UNL     1     -46.999  13.203  51.830  1.00  0.00     0.045 C 
HETATM   35  C   UNL     1     -46.448  13.413  53.094  1.00  0.00     0.057 C 
HETATM   36  C   UNL     1     -46.489  12.340  53.965  1.00  0.00     0.102 C 
HETATM   37  C   UNL     1     -46.920  11.090  53.521  1.00  0.00     0.132 C 
HETATM   38  C   UNL     1     -47.497  10.943  52.271  1.00  0.00     0.102 C 
HETATM   39  C   UNL     1     -47.701  12.040  51.476  1.00  0.00     0.057 C 
BRANCH  36  40
HETATM   40  O   UNL     1     -46.003  12.434  55.234  1.00  0.00    -0.358 OA
HETATM   41  H   UNL     1     -45.984  13.387  55.443  1.00  0.00     0.217 HD
ENDBRANCH  36  40
BRANCH  37  42
HETATM   42  O   UNL     1     -46.707   9.975  54.278  1.00  0.00    -0.356 OA
HETATM   43  H   UNL     1     -45.735   9.942  54.389  1.00  0.00     0.218 HD
ENDBRANCH  37  42
BRANCH  38  44
HETATM   44  O   UNL     1     -47.672   9.712  51.714  1.00  0.00    -0.358 OA
HETATM   45  H   UNL     1     -48.428   9.813  51.103  1.00  0.00     0.217 HD
ENDBRANCH  38  44
ENDBRANCH  32  34
ENDBRANCH  31  32
ENDBRANCH  27  31
BRANCH  28  46
HETATM   46  O   UNL     1     -43.644  12.572  48.631  1.00  0.00    -0.356 OA
HETATM   47  H   UNL     1     -43.851  12.964  47.763  1.00  0.00     0.218 HD
ENDBRANCH  28  46
BRANCH  29  48
HETATM   48  O   UNL     1     -41.059  13.496  48.193  1.00  0.00    -0.358 OA
HETATM   49  H   UNL     1     -41.063  12.534  48.336  1.00  0.00     0.217 HD
ENDBRANCH  29  48
ENDBRANCH  23  25
ENDBRANCH  22  23
ENDBRANCH   5  22
BRANCH   6  50
HETATM   50  O   UNL     1     -37.762  16.079  53.235  1.00  0.00    -0.304 OA
BRANCH  50  51
HETATM   51  C   UNL     1     -36.923  16.912  53.912  1.00  0.00     0.294 C 
HETATM   52  O   UNL     1     -36.866  18.125  53.924  1.00  0.00    -0.259 OA
BRANCH  51  53
HETATM   53  C   UNL     1     -36.037  16.025  54.663  1.00  0.00     0.045 A 
HETATM   54  C   UNL     1     -34.949  15.509  53.957  1.00  0.00     0.057 A 
HETATM   55  C   UNL     1     -34.088  14.639  54.589  1.00  0.00     0.102 A 
HETATM   56  C   UNL     1     -34.283  14.319  55.922  1.00  0.00     0.132 A 
HETATM   57  C   UNL     1     -35.346  14.872  56.635  1.00  0.00     0.102 A 
HETATM   58  C   UNL     1     -36.252  15.722  56.011  1.00  0.00     0.057 A 
BRANCH  55  59
HETATM   59  O   UNL     1     -33.034  14.140  53.891  1.00  0.00    -0.358 OA
HETATM   60  H   UNL     1     -32.302  14.764  54.063  1.00  0.00     0.217 HD
ENDBRANCH  55  59
BRANCH  56  61
HETATM   61  O   UNL     1     -33.382  13.501  56.545  1.00  0.00    -0.356 OA
HETATM   62  H   UNL     1     -32.664  14.107  56.820  1.00  0.00     0.218 HD
ENDBRANCH  56  61
BRANCH  57  63
HETATM   63  O   UNL     1     -35.423  14.585  57.969  1.00  0.00    -0.358 OA
HETATM   64  H   UNL     1     -35.791  13.686  58.052  1.00  0.00     0.217 HD
ENDBRANCH  57  63
ENDBRANCH  51  53
ENDBRANCH  50  51
ENDBRANCH   6  50
ENDBRANCH   2   4
BRANCH   2  65
HETATM   65  C   UNL     1     -40.457  14.320  55.568  1.00  0.00     0.216 C 
BRANCH  65  66
HETATM   66  O   UNL     1     -40.112  14.175  56.944  1.00  0.00    -0.315 OA
BRANCH  66  67
HETATM   67  C   UNL     1     -39.606  15.295  57.472  1.00  0.00     0.293 C 
HETATM   68  O   UNL     1     -39.562  16.387  56.939  1.00  0.00    -0.259 OA
BRANCH  67  69
HETATM   69  C   UNL     1     -39.035  14.937  58.779  1.00  0.00     0.045 C 
HETATM   70  C   UNL     1     -38.581  13.639  59.083  1.00  0.00     0.057 C 
HETATM   71  C   UNL     1     -37.972  13.399  60.302  1.00  0.00     0.102 C 
HETATM   72  C   UNL     1     -37.663  14.459  61.138  1.00  0.00     0.133 C 
HETATM   73  C   UNL     1     -38.009  15.756  60.748  1.00  0.00     0.116 C 
HETATM   74  C   UNL     1     -38.836  15.988  59.660  1.00  0.00     0.058 C 
BRANCH  71  75
HETATM   75  O   UNL     1     -37.578  12.134  60.634  1.00  0.00    -0.358 OA
HETATM   76  H   UNL     1     -37.701  12.089  61.605  1.00  0.00     0.217 HD
ENDBRANCH  71  75
BRANCH  72  77
HETATM   77  O   UNL     1     -36.930  14.186  62.257  1.00  0.00    -0.356 OA
HETATM   78  H   UNL     1     -37.042  14.936  62.875  1.00  0.00     0.218 HD
ENDBRANCH  72  77
BRANCH  73  79
HETATM   79  O   UNL     1     -37.334  16.866  61.249  1.00  0.00    -0.272 OA
BRANCH  79  80
HETATM   80  C   UNL     1     -36.215  17.001  60.441  1.00  0.00     0.298 C 
HETATM   81  O   UNL     1     -35.251  16.253  60.514  1.00  0.00    -0.259 OA
BRANCH  80  82
HETATM   82  C   UNL     1     -36.268  18.142  59.482  1.00  0.00     0.045 A 
HETATM   83  C   UNL     1     -37.111  19.226  59.769  1.00  0.00     0.057 A 
HETATM   84  C   UNL     1     -37.209  20.279  58.865  1.00  0.00     0.102 A 
HETATM   85  C   UNL     1     -36.496  20.250  57.676  1.00  0.00     0.132 A 
HETATM   86  C   UNL     1     -35.666  19.170  57.391  1.00  0.00     0.102 A 
HETATM   87  C   UNL     1     -35.523  18.116  58.295  1.00  0.00     0.057 A 
BRANCH  84  88
HETATM   88  O   UNL     1     -38.037  21.308  59.186  1.00  0.00    -0.358 OA
HETATM   89  H   UNL     1     -38.925  20.960  59.413  1.00  0.00     0.217 HD
ENDBRANCH  84  88
BRANCH  85  90
HETATM   90  O   UNL     1     -36.621  21.275  56.780  1.00  0.00    -0.356 OA
HETATM   91  H   UNL     1     -35.950  21.940  57.036  1.00  0.00     0.218 HD
ENDBRANCH  85  90
BRANCH  86  92
HETATM   92  O   UNL     1     -35.025  19.174  56.183  1.00  0.00    -0.358 OA
HETATM   93  H   UNL     1     -34.071  19.281  56.352  1.00  0.00     0.217 HD
ENDBRANCH  86  92
ENDBRANCH  80  82
ENDBRANCH  79  80
ENDBRANCH  73  79
ENDBRANCH  67  69
ENDBRANCH  66  67
ENDBRANCH  65  66
ENDBRANCH   2  65
BRANCH   3  94
HETATM   94  O   UNL     1     -38.450  10.964  55.307  1.00  0.00    -0.285 OA
BRANCH  94  95
HETATM   95  C   UNL     1     -39.313   9.920  55.441  1.00  0.00     0.295 C 
HETATM   96  O   UNL     1     -39.341   8.888  54.792  1.00  0.00    -0.259 OA
BRANCH  95  97
HETATM   97  C   UNL     1     -40.246  10.235  56.514  1.00  0.00     0.045 A 
HETATM   98  C   UNL     1     -39.797  10.220  57.837  1.00  0.00     0.057 A 
HETATM   99  C   UNL     1     -40.664  10.628  58.830  1.00  0.00     0.102 A 
HETATM  100  C   UNL     1     -41.971  10.981  58.514  1.00  0.00     0.132 A 
HETATM  101  C   UNL     1     -42.424  10.936  57.198  1.00  0.00     0.102 A 
HETATM  102  C   UNL     1     -41.561  10.566  56.179  1.00  0.00     0.057 A 
BRANCH  99 103
HETATM  103  O   UNL     1     -40.213  10.711  60.115  1.00  0.00    -0.358 OA
HETATM  104  H   UNL     1     -40.640  11.522  60.460  1.00  0.00     0.217 HD
ENDBRANCH  99 103
BRANCH 100 105
HETATM  105  O   UNL     1     -42.807  11.380  59.520  1.00  0.00    -0.356 OA
HETATM  106  H   UNL     1     -42.207  11.516  60.283  1.00  0.00     0.218 HD
ENDBRANCH 100 105
BRANCH 101 107
HETATM  107  O   UNL     1     -43.721  11.281  56.947  1.00  0.00    -0.358 OA
HETATM  108  H   UNL     1     -43.765  11.634  56.039  1.00  0.00     0.217 HD
ENDBRANCH 101 107
ENDBRANCH  95  97
ENDBRANCH  94  95
ENDBRANCH   3  94
TORSDOF 43
ENDMDL
