MODEL 1
REMARK VINA RESULT:      -6.6      0.000      0.000
REMARK  4 active torsions:
REMARK  status: ('A' for Active; 'I' for Inactive)
REMARK    1  A    between atoms: O_1  and  C_10 
REMARK    2  A    between atoms: O_1  and  C_11 
REMARK    3  A    between atoms: N_3  and  C_7 
REMARK    4  A    between atoms: C_4  and  C_10 
ROOT
HETATM    1  O   UNK     0      10.607  41.851  83.046  0.00  0.00    -0.318 OA
ENDROOT
BRANCH   1   2
HETATM    2  C   UNK     0      11.247  42.970  82.586  0.00  0.00     0.293 C 
HETATM    3  O   UNK     0      12.264  42.945  81.880  0.00  0.00    -0.259 OA
BRANCH   2   4
HETATM    4  C   UNK     0      10.584  44.185  83.031  0.00  0.00     0.039 A 
HETATM    5  C   UNK     0      10.806  45.387  82.358  0.00  0.00     0.020 A 
HETATM    6  C   UNK     0      10.170  46.553  82.786  0.00  0.00     0.030 A 
HETATM    7  C   UNK     0       9.313  46.518  83.885  0.00  0.00     0.025 A 
HETATM    8  C   UNK     0       9.092  45.316  84.558  0.00  0.00     0.030 A 
HETATM    9  C   UNK     0       9.728  44.150  84.132  0.00  0.00     0.020 A 
BRANCH   7  10
HETATM   10  N   UNK     0       8.671  47.696  84.317  0.00  0.00    -0.399 N 
HETATM   11  H   UNK     0       8.926  48.588  83.914  0.00  0.00     0.156 HD
HETATM   12  H   UNK     0       7.956  47.651  85.032  0.00  0.00     0.156 HD
ENDBRANCH   7  10
ENDBRANCH   2   4
ENDBRANCH   1   2
BRANCH   1  13
HETATM   13  C   UNK     0      10.451  40.769  82.121  0.00  0.00     0.174 C 
HETATM   14  C   UNK     0      10.283  39.480  82.895  0.00  0.00     0.034 C 
ENDBRANCH   1  13
TORSDOF 4
ENDMDL
MODEL 2
REMARK VINA RESULT:      -6.5      7.916      9.469
REMARK  4 active torsions:
REMARK  status: ('A' for Active; 'I' for Inactive)
REMARK    1  A    between atoms: O_1  and  C_10 
REMARK    2  A    between atoms: O_1  and  C_11 
REMARK    3  A    between atoms: N_3  and  C_7 
REMARK    4  A    between atoms: C_4  and  C_10 
ROOT
HETATM    1  O   UNK     0       7.817  37.067  84.496  0.00  0.00    -0.318 OA
ENDROOT
BRANCH   1   2
HETATM    2  C   UNK     0       6.924  36.104  84.882  0.00  0.00     0.293 C 
HETATM    3  O   UNK     0       6.528  35.191  84.145  0.00  0.00    -0.259 OA
BRANCH   2   4
HETATM    4  C   UNK     0       6.501  36.290  86.260  0.00  0.00     0.039 A 
HETATM    5  C   UNK     0       6.408  37.576  86.793  0.00  0.00     0.020 A 
HETATM    6  C   UNK     0       6.002  37.754  88.117  0.00  0.00     0.030 A 
HETATM    7  C   UNK     0       5.689  36.648  88.906  0.00  0.00     0.025 A 
HETATM    8  C   UNK     0       5.783  35.363  88.373  0.00  0.00     0.030 A 
HETATM    9  C   UNK     0       6.189  35.184  87.050  0.00  0.00     0.020 A 
BRANCH   7  10
HETATM   10  N   UNK     0       5.280  36.829  90.243  0.00  0.00    -0.399 N 
HETATM   11  H   UNK     0       4.606  36.198  90.656  0.00  0.00     0.156 HD
HETATM   12  H   UNK     0       5.659  37.591  90.790  0.00  0.00     0.156 HD
ENDBRANCH   7  10
ENDBRANCH   2   4
ENDBRANCH   1   2
BRANCH   1  13
HETATM   13  C   UNK     0       9.189  36.671  84.393  0.00  0.00     0.174 C 
HETATM   14  C   UNK     0       9.986  37.374  85.471  0.00  0.00     0.034 C 
ENDBRANCH   1  13
TORSDOF 4
ENDMDL
MODEL 3
REMARK VINA RESULT:      -6.2      8.252      9.063
REMARK  4 active torsions:
REMARK  status: ('A' for Active; 'I' for Inactive)
REMARK    1  A    between atoms: O_1  and  C_10 
REMARK    2  A    between atoms: O_1  and  C_11 
REMARK    3  A    between atoms: N_3  and  C_7 
REMARK    4  A    between atoms: C_4  and  C_10 
ROOT
HETATM    1  O   UNK     0       6.083  35.502  87.073  0.00  0.00    -0.318 OA
ENDROOT
BRANCH   1   2
HETATM    2  C   UNK     0       6.833  36.086  88.058  0.00  0.00     0.293 C 
HETATM    3  O   UNK     0       7.793  35.537  88.614  0.00  0.00    -0.259 OA
BRANCH   2   4
HETATM    4  C   UNK     0       6.358  37.425  88.368  0.00  0.00     0.039 A 
HETATM    5  C   UNK     0       7.029  38.538  87.859  0.00  0.00     0.020 A 
HETATM    6  C   UNK     0       6.574  39.823  88.158  0.00  0.00     0.030 A 
HETATM    7  C   UNK     0       5.448  39.995  88.963  0.00  0.00     0.025 A 
HETATM    8  C   UNK     0       4.778  38.883  89.471  0.00  0.00     0.030 A 
HETATM    9  C   UNK     0       5.233  37.598  89.175  0.00  0.00     0.020 A 
BRANCH   7  10
HETATM   10  N   UNK     0       4.989  41.293  89.264  0.00  0.00    -0.399 N 
HETATM   11  H   UNK     0       5.130  41.679  90.188  0.00  0.00     0.156 HD
HETATM   12  H   UNK     0       4.516  41.840  88.556  0.00  0.00     0.156 HD
ENDBRANCH   7  10
ENDBRANCH   2   4
ENDBRANCH   1   2
BRANCH   1  13
HETATM   13  C   UNK     0       6.296  35.970  85.736  0.00  0.00     0.174 C 
HETATM   14  C   UNK     0       7.336  35.097  85.069  0.00  0.00     0.034 C 
ENDBRANCH   1  13
TORSDOF 4
ENDMDL
MODEL 4
REMARK VINA RESULT:      -6.2      3.140      5.065
REMARK  4 active torsions:
REMARK  status: ('A' for Active; 'I' for Inactive)
REMARK    1  A    between atoms: O_1  and  C_10 
REMARK    2  A    between atoms: O_1  and  C_11 
REMARK    3  A    between atoms: N_3  and  C_7 
REMARK    4  A    between atoms: C_4  and  C_10 
ROOT
HETATM    1  O   UNK     0      10.234  46.033  83.602  0.00  0.00    -0.318 OA
ENDROOT
BRANCH   1   2
HETATM    2  C   UNK     0       9.715  44.793  83.860  0.00  0.00     0.293 C 
HETATM    3  O   UNK     0       8.669  44.598  84.493  0.00  0.00    -0.259 OA
BRANCH   2   4
HETATM    4  C   UNK     0      10.545  43.739  83.298  0.00  0.00     0.039 A 
HETATM    5  C   UNK     0      11.500  44.046  82.329  0.00  0.00     0.020 A 
HETATM    6  C   UNK     0      12.296  43.035  81.790  0.00  0.00     0.030 A 
HETATM    7  C   UNK     0      12.137  41.717  82.220  0.00  0.00     0.025 A 
HETATM    8  C   UNK     0      11.182  41.411  83.188  0.00  0.00     0.030 A 
HETATM    9  C   UNK     0      10.385  42.422  83.727  0.00  0.00     0.020 A 
BRANCH   7  10
HETATM   10  N   UNK     0      12.941  40.696  81.675  0.00  0.00    -0.399 N 
HETATM   11  H   UNK     0      13.902  40.593  81.975  0.00  0.00     0.156 HD
HETATM   12  H   UNK     0      12.559  40.066  80.982  0.00  0.00     0.156 HD
ENDBRANCH   7  10
ENDBRANCH   2   4
ENDBRANCH   1   2
BRANCH   1  13
HETATM   13  C   UNK     0       9.317  47.038  83.156  0.00  0.00     0.174 C 
HETATM   14  C   UNK     0       9.668  47.431  81.738  0.00  0.00     0.034 C 
ENDBRANCH   1  13
TORSDOF 4
ENDMDL
MODEL 5
REMARK VINA RESULT:      -6.1     16.128     17.005
REMARK  4 active torsions:
REMARK  status: ('A' for Active; 'I' for Inactive)
REMARK    1  A    between atoms: O_1  and  C_10 
REMARK    2  A    between atoms: O_1  and  C_11 
REMARK    3  A    between atoms: N_3  and  C_7 
REMARK    4  A    between atoms: C_4  and  C_10 
ROOT
HETATM    1  O   UNK     0      23.676  40.649  89.401  0.00  0.00    -0.318 OA
ENDROOT
BRANCH   1   2
HETATM    2  C   UNK     0      24.011  40.518  88.080  0.00  0.00     0.293 C 
HETATM    3  O   UNK     0      23.190  40.341  87.171  0.00  0.00    -0.259 OA
BRANCH   2   4
HETATM    4  C   UNK     0      25.449  40.611  87.882  0.00  0.00     0.039 A 
HETATM    5  C   UNK     0      25.989  41.697  87.192  0.00  0.00     0.020 A 
HETATM    6  C   UNK     0      27.368  41.786  87.001  0.00  0.00     0.030 A 
HETATM    7  C   UNK     0      28.208  40.790  87.502  0.00  0.00     0.025 A 
HETATM    8  C   UNK     0      27.668  39.706  88.192  0.00  0.00     0.030 A 
HETATM    9  C   UNK     0      26.289  39.616  88.382  0.00  0.00     0.020 A 
BRANCH   7  10
HETATM   10  N   UNK     0      29.601  40.881  87.309  0.00  0.00    -0.399 N 
HETATM   11  H   UNK     0      30.219  40.951  88.107  0.00  0.00     0.156 HD
HETATM   12  H   UNK     0      29.984  40.877  86.373  0.00  0.00     0.156 HD
ENDBRANCH   7  10
ENDBRANCH   2   4
ENDBRANCH   1   2
BRANCH   1  13
HETATM   13  C   UNK     0      22.743  39.700  89.928  0.00  0.00     0.174 C 
HETATM   14  C   UNK     0      23.491  38.448  90.333  0.00  0.00     0.034 C 
ENDBRANCH   1  13
TORSDOF 4
ENDMDL
MODEL 6
REMARK VINA RESULT:      -6.0      8.040      9.394
REMARK  4 active torsions:
REMARK  status: ('A' for Active; 'I' for Inactive)
REMARK    1  A    between atoms: O_1  and  C_10 
REMARK    2  A    between atoms: O_1  and  C_11 
REMARK    3  A    between atoms: N_3  and  C_7 
REMARK    4  A    between atoms: C_4  and  C_10 
ROOT
HETATM    1  O   UNK     0       5.904  36.782  88.200  0.00  0.00    -0.318 OA
ENDROOT
BRANCH   1   2
HETATM    2  C   UNK     0       7.130  36.197  88.029  0.00  0.00     0.293 C 
HETATM    3  O   UNK     0       7.669  35.463  88.866  0.00  0.00    -0.259 OA
BRANCH   2   4
HETATM    4  C   UNK     0       7.714  36.549  86.744  0.00  0.00     0.039 A 
HETATM    5  C   UNK     0       7.016  36.285  85.565  0.00  0.00     0.020 A 
HETATM    6  C   UNK     0       7.577  36.621  84.333  0.00  0.00     0.030 A 
HETATM    7  C   UNK     0       8.835  37.222  84.279  0.00  0.00     0.025 A 
HETATM    8  C   UNK     0       9.532  37.486  85.458  0.00  0.00     0.030 A 
HETATM    9  C   UNK     0       8.972  37.149  86.690  0.00  0.00     0.020 A 
BRANCH   7  10
HETATM   10  N   UNK     0       9.401  37.562  83.034  0.00  0.00    -0.399 N 
HETATM   11  H   UNK     0      10.107  38.284  82.979  0.00  0.00     0.156 HD
HETATM   12  H   UNK     0       9.101  37.085  82.194  0.00  0.00     0.156 HD
ENDBRANCH   7  10
ENDBRANCH   2   4
ENDBRANCH   1   2
BRANCH   1  13
HETATM   13  C   UNK     0       5.628  37.337  89.491  0.00  0.00     0.174 C 
HETATM   14  C   UNK     0       4.869  38.635  89.317  0.00  0.00     0.034 C 
ENDBRANCH   1  13
TORSDOF 4
ENDMDL
MODEL 7
REMARK VINA RESULT:      -5.9     23.065     26.340
REMARK  4 active torsions:
REMARK  status: ('A' for Active; 'I' for Inactive)
REMARK    1  A    between atoms: O_1  and  C_10 
REMARK    2  A    between atoms: O_1  and  C_11 
REMARK    3  A    between atoms: N_3  and  C_7 
REMARK    4  A    between atoms: C_4  and  C_10 
ROOT
HETATM    1  O   UNK     0      11.768  21.696  91.142  0.00  0.00    -0.318 OA
ENDROOT
BRANCH   1   2
HETATM    2  C   UNK     0      11.729  20.870  92.233  0.00  0.00     0.293 C 
HETATM    3  O   UNK     0      11.124  21.134  93.280  0.00  0.00    -0.259 OA
BRANCH   2   4
HETATM    4  C   UNK     0      12.487  19.649  92.006  0.00  0.00     0.039 A 
HETATM    5  C   UNK     0      13.656  19.411  92.729  0.00  0.00     0.020 A 
HETATM    6  C   UNK     0      14.384  18.240  92.510  0.00  0.00     0.030 A 
HETATM    7  C   UNK     0      13.941  17.308  91.571  0.00  0.00     0.025 A 
HETATM    8  C   UNK     0      12.772  17.547  90.850  0.00  0.00     0.030 A 
HETATM    9  C   UNK     0      12.045  18.718  91.067  0.00  0.00     0.020 A 
BRANCH   7  10
HETATM   10  N   UNK     0      14.676  16.126  91.351  0.00  0.00    -0.399 N 
HETATM   11  H   UNK     0      14.701  15.405  92.060  0.00  0.00     0.156 HD
HETATM   12  H   UNK     0      15.182  15.998  90.484  0.00  0.00     0.156 HD
ENDBRANCH   7  10
ENDBRANCH   2   4
ENDBRANCH   1   2
BRANCH   1  13
HETATM   13  C   UNK     0      13.017  22.338  90.862  0.00  0.00     0.174 C 
HETATM   14  C   UNK     0      12.751  23.760  90.420  0.00  0.00     0.034 C 
ENDBRANCH   1  13
TORSDOF 4
ENDMDL
MODEL 8
REMARK VINA RESULT:      -5.9     17.182     18.017
REMARK  4 active torsions:
REMARK  status: ('A' for Active; 'I' for Inactive)
REMARK    1  A    between atoms: O_1  and  C_10 
REMARK    2  A    between atoms: O_1  and  C_11 
REMARK    3  A    between atoms: N_3  and  C_7 
REMARK    4  A    between atoms: C_4  and  C_10 
ROOT
HETATM    1  O   UNK     0      25.339  38.354  88.319  0.00  0.00    -0.318 OA
ENDROOT
BRANCH   1   2
HETATM    2  C   UNK     0      25.956  39.337  89.045  0.00  0.00     0.293 C 
HETATM    3  O   UNK     0      25.870  39.446  90.275  0.00  0.00    -0.259 OA
BRANCH   2   4
HETATM    4  C   UNK     0      26.721  40.231  88.191  0.00  0.00     0.039 A 
HETATM    5  C   UNK     0      28.106  40.093  88.098  0.00  0.00     0.020 A 
HETATM    6  C   UNK     0      28.839  40.952  87.279  0.00  0.00     0.030 A 
HETATM    7  C   UNK     0      28.188  41.949  86.552  0.00  0.00     0.025 A 
HETATM    8  C   UNK     0      26.803  42.087  86.645  0.00  0.00     0.030 A 
HETATM    9  C   UNK     0      26.069  41.229  87.464  0.00  0.00     0.020 A 
BRANCH   7  10
HETATM   10  N   UNK     0      28.929  42.816  85.725  0.00  0.00    -0.399 N 
HETATM   11  H   UNK     0      28.952  42.666  84.725  0.00  0.00     0.156 HD
HETATM   12  H   UNK     0      29.440  43.589  86.131  0.00  0.00     0.156 HD
ENDBRANCH   7  10
ENDBRANCH   2   4
ENDBRANCH   1   2
BRANCH   1  13
HETATM   13  C   UNK     0      25.473  37.013  88.803  0.00  0.00     0.174 C 
HETATM   14  C   UNK     0      26.881  36.530  88.532  0.00  0.00     0.034 C 
ENDBRANCH   1  13
TORSDOF 4
ENDMDL
MODEL 9
REMARK VINA RESULT:      -5.9     36.227     36.879
REMARK  4 active torsions:
REMARK  status: ('A' for Active; 'I' for Inactive)
REMARK    1  A    between atoms: O_1  and  C_10 
REMARK    2  A    between atoms: O_1  and  C_11 
REMARK    3  A    between atoms: N_3  and  C_7 
REMARK    4  A    between atoms: C_4  and  C_10 
ROOT
HETATM    1  O   UNK     0      39.266  25.960  68.033  0.00  0.00    -0.318 OA
ENDROOT
BRANCH   1   2
HETATM    2  C   UNK     0      40.249  26.778  68.520  0.00  0.00     0.293 C 
HETATM    3  O   UNK     0      40.979  27.482  67.810  0.00  0.00    -0.259 OA
BRANCH   2   4
HETATM    4  C   UNK     0      40.326  26.714  69.971  0.00  0.00     0.039 A 
HETATM    5  C   UNK     0      39.719  25.662  70.656  0.00  0.00     0.020 A 
HETATM    6  C   UNK     0      39.793  25.601  72.048  0.00  0.00     0.030 A 
HETATM    7  C   UNK     0      40.474  26.593  72.755  0.00  0.00     0.025 A 
HETATM    8  C   UNK     0      41.081  27.644  72.069  0.00  0.00     0.030 A 
HETATM    9  C   UNK     0      41.007  27.706  70.678  0.00  0.00     0.020 A 
BRANCH   7  10
HETATM   10  N   UNK     0      40.549  26.531  74.161  0.00  0.00    -0.399 N 
HETATM   11  H   UNK     0      41.276  27.034  74.652  0.00  0.00     0.156 HD
HETATM   12  H   UNK     0      39.875  25.982  74.680  0.00  0.00     0.156 HD
ENDBRANCH   7  10
ENDBRANCH   2   4
ENDBRANCH   1   2
BRANCH   1  13
HETATM   13  C   UNK     0      38.183  26.591  67.341  0.00  0.00     0.174 C 
HETATM   14  C   UNK     0      36.936  25.751  67.507  0.00  0.00     0.034 C 
ENDBRANCH   1  13
TORSDOF 4
ENDMDL
