REMARK VINA RESULT:      -7.1     12.648     14.196
REMARK  6 active torsions:
REMARK  status: ('A' for Active; 'I' for Inactive)
REMARK    1  A    between atoms: O_2  and  C_12 
REMARK    2  A    between atoms: O_3  and  C_14 
REMARK    3  A    between atoms: O_5  and  C_16 
REMARK    4  A    between atoms: O_6  and  C_20 
REMARK    5  A    between atoms: O_7  and  C_22 
REMARK    6  A    between atoms: C_10  and  C_11 
ROOT
HETATM    1  O   UNK     0      18.226  45.378  13.302  0.00  0.00    -0.306 OA
HETATM    2  O   UNK     0      19.869  43.070  16.231  0.00  0.00    -0.284 OA
HETATM    3  C   UNK     0      19.037  45.179  15.580  0.00  0.00     0.084 A 
HETATM    4  C   UNK     0      18.478  45.915  14.537  0.00  0.00     0.096 A 
HETATM    5  C   UNK     0      18.527  44.042  13.086  0.00  0.00     0.123 A 
HETATM    6  C   UNK     0      19.076  43.226  14.005  0.00  0.00     0.152 A 
HETATM    7  C   UNK     0      19.372  43.765  15.354  0.00  0.00     0.223 A 
HETATM    8  C   UNK     0      19.274  45.781  16.819  0.00  0.00     0.085 A 
HETATM    9  C   UNK     0      18.155  47.259  14.726  0.00  0.00     0.075 A 
HETATM   10  C   UNK     0      18.390  47.862  15.962  0.00  0.00     0.071 A 
HETATM   11  C   UNK     0      18.948  47.124  17.005  0.00  0.00     0.074 A 
ENDROOT
BRANCH   5  12
HETATM   12  C   UNK     0      18.207  43.593  11.720  0.00  0.00     0.004 A 
HETATM   13  C   UNK     0      17.275  42.575  11.520  0.00  0.00     0.053 A 
HETATM   14  C   UNK     0      16.971  42.150  10.227  0.00  0.00     0.099 A 
HETATM   15  C   UNK     0      17.600  42.745   9.132  0.00  0.00     0.098 A 
HETATM   16  C   UNK     0      18.532  43.763   9.331  0.00  0.00     0.040 A 
HETATM   17  C   UNK     0      18.835  44.188  10.625  0.00  0.00     0.017 A 
BRANCH  14  18
HETATM   18  O   UNK     0      16.061  41.154  10.044  0.00  0.00    -0.358 OA
HETATM   19  H   UNK     0      16.374  40.341  10.473  0.00  0.00     0.217 HD
ENDBRANCH  14  18
BRANCH  15  20
HETATM   20  O   UNK     0      17.310  42.340   7.864  0.00  0.00    -0.358 OA
HETATM   21  H   UNK     0      18.039  41.802   7.517  0.00  0.00     0.217 HD
ENDBRANCH  15  20
ENDBRANCH   5  12
BRANCH   6  22
HETATM   22  O   UNK     0      19.394  41.910  13.748  0.00  0.00    -0.355 OA
HETATM   23  H   UNK     0      18.962  41.619  12.929  0.00  0.00     0.218 HD
ENDBRANCH   6  22
BRANCH   8  24
HETATM   24  O   UNK     0      19.818  45.106  17.871  0.00  0.00    -0.360 OA
HETATM   25  H   UNK     0      20.565  45.600  18.242  0.00  0.00     0.217 HD
ENDBRANCH   8  24
BRANCH  10  26
HETATM   26  O   UNK     0      18.074  49.173  16.148  0.00  0.00    -0.361 OA
HETATM   27  H   UNK     0      18.886  49.667  16.356  0.00  0.00     0.217 HD
ENDBRANCH  10  26
TORSDOF 6
