REMARK VINA RESULT:      -7.4      3.341      6.111
REMARK  6 active torsions:
REMARK  status: ('A' for Active; 'I' for Inactive)
REMARK    1  A    between atoms: O_2  and  C_12 
REMARK    2  A    between atoms: O_3  and  C_14 
REMARK    3  A    between atoms: O_5  and  C_16 
REMARK    4  A    between atoms: O_6  and  C_20 
REMARK    5  A    between atoms: O_7  and  C_22 
REMARK    6  A    between atoms: C_10  and  C_11 
ROOT
HETATM    1  O   UNK     0      19.872  33.723  23.745  0.00  0.00    -0.306 OA
HETATM    2  O   UNK     0      23.131  36.150  23.443  0.00  0.00    -0.284 OA
HETATM    3  C   UNK     0      20.836  35.942  23.942  0.00  0.00     0.084 A 
HETATM    4  C   UNK     0      19.760  35.060  24.025  0.00  0.00     0.096 A 
HETATM    5  C   UNK     0      21.112  33.226  23.375  0.00  0.00     0.123 A 
HETATM    6  C   UNK     0      22.226  33.970  23.250  0.00  0.00     0.152 A 
HETATM    7  C   UNK     0      22.151  35.423  23.538  0.00  0.00     0.223 A 
HETATM    8  C   UNK     0      20.662  37.296  24.239  0.00  0.00     0.085 A 
HETATM    9  C   UNK     0      18.501  35.528  24.404  0.00  0.00     0.075 A 
HETATM   10  C   UNK     0      18.325  36.880  24.701  0.00  0.00     0.071 A 
HETATM   11  C   UNK     0      19.403  37.761  24.619  0.00  0.00     0.074 A 
ENDROOT
BRANCH   5  12
HETATM   12  C   UNK     0      21.093  31.778  23.103  0.00  0.00     0.004 A 
HETATM   13  C   UNK     0      22.093  30.957  23.624  0.00  0.00     0.053 A 
HETATM   14  C   UNK     0      22.075  29.586  23.366  0.00  0.00     0.099 A 
HETATM   15  C   UNK     0      21.056  29.036  22.588  0.00  0.00     0.098 A 
HETATM   16  C   UNK     0      20.055  29.857  22.068  0.00  0.00     0.040 A 
HETATM   17  C   UNK     0      20.073  31.228  22.326  0.00  0.00     0.017 A 
BRANCH  14  18
HETATM   18  O   UNK     0      23.058  28.794  23.877  0.00  0.00    -0.358 OA
HETATM   19  H   UNK     0      22.933  28.692  24.835  0.00  0.00     0.217 HD
ENDBRANCH  14  18
BRANCH  15  20
HETATM   20  O   UNK     0      21.026  27.698  22.331  0.00  0.00    -0.358 OA
HETATM   21  H   UNK     0      21.121  27.204  23.160  0.00  0.00     0.217 HD
ENDBRANCH  15  20
ENDBRANCH   5  12
BRANCH   6  22
HETATM   22  O   UNK     0      23.437  33.451  22.848  0.00  0.00    -0.355 OA
HETATM   23  H   UNK     0      24.078  33.507  23.576  0.00  0.00     0.218 HD
ENDBRANCH   6  22
BRANCH   8  24
HETATM   24  O   UNK     0      21.680  38.199  24.174  0.00  0.00    -0.360 OA
HETATM   25  H   UNK     0      22.317  37.944  23.490  0.00  0.00     0.217 HD
ENDBRANCH   8  24
BRANCH  10  26
HETATM   26  O   UNK     0      17.097  37.338  25.072  0.00  0.00    -0.361 OA
HETATM   27  H   UNK     0      17.046  38.291  24.883  0.00  0.00     0.217 HD
ENDBRANCH  10  26
TORSDOF 6
