MODEL 1
REMARK VINA RESULT:      -8.2      0.000      0.000
REMARK  13 active torsions:
REMARK  status: ('A' for Active; 'I' for Inactive)
REMARK    1  A    between atoms: O_2  and  C_16 
REMARK    2  A    between atoms: O_2  and  C_17 
REMARK    3  A    between atoms: O_4  and  C_12 
REMARK    4  A    between atoms: O_5  and  C_13 
REMARK    5  A    between atoms: O_6  and  C_15 
REMARK    6  A    between atoms: O_6  and  C_22 
REMARK    7  A    between atoms: O_7  and  C_14 
REMARK    8  A    between atoms: O_8  and  C_18 
REMARK    9  A    between atoms: O_9  and  C_19 
REMARK   10  A    between atoms: O_10  and  C_20 
REMARK   11  A    between atoms: C_11  and  C_16 
REMARK   12  A    between atoms: C_22  and  C_23 
REMARK   13  A    between atoms: C_24  and  C_25 
ROOT
HETATM    1  O   UNK     0     152.846 155.603 151.770  0.00  0.00    -0.348 OA
HETATM    2  C   UNK     0     153.688 156.507 152.488  0.00  0.00     0.180 C 
HETATM    3  C   UNK     0     155.150 156.281 152.096  0.00  0.00     0.180 C 
HETATM    4  C   UNK     0     155.555 154.825 152.324  0.00  0.00     0.183 C 
HETATM    5  C   UNK     0     154.540 153.865 151.702  0.00  0.00     0.204 C 
HETATM    6  C   UNK     0     153.110 154.239 152.089  0.00  0.00     0.291 C 
ENDROOT
BRANCH   2   7
HETATM    7  C   UNK     0     153.227 157.924 152.160  0.00  0.00     0.205 C 
BRANCH   7   8
HETATM    8  O   UNK     0     154.179 158.518 151.297  0.00  0.00    -0.356 OA
BRANCH   8   9
HETATM    9  C   UNK     0     153.622 158.809 150.019  0.00  0.00     0.290 C 
HETATM   10  O   UNK     0     153.928 157.794 149.056  0.00  0.00    -0.356 OA
HETATM   11  C   UNK     0     155.313 157.714 148.727  0.00  0.00     0.205 C 
HETATM   12  C   UNK     0     155.799 159.027 148.127  0.00  0.00     0.173 C 
HETATM   13  C   UNK     0     155.554 160.185 149.096  0.00  0.00     0.182 C 
HETATM   14  C   UNK     0     154.090 160.195 149.548  0.00  0.00     0.204 C 
BRANCH  12  15
HETATM   15  O   UNK     0     157.182 158.946 147.812  0.00  0.00    -0.391 OA
HETATM   16  H   UNK     0     157.558 159.839 147.908  0.00  0.00     0.210 HD
ENDBRANCH  12  15
BRANCH  13  17
HETATM   17  O   UNK     0     156.404 160.037 150.232  0.00  0.00    -0.390 OA
HETATM   18  H   UNK     0     157.295 160.326 149.971  0.00  0.00     0.210 HD
ENDBRANCH  13  17
BRANCH  14  19
HETATM   19  O   UNK     0     153.261 160.593 148.457  0.00  0.00    -0.388 OA
HETATM   20  H   UNK     0     153.581 161.449 148.126  0.00  0.00     0.210 HD
ENDBRANCH  14  19
ENDBRANCH   8   9
ENDBRANCH   7   8
ENDBRANCH   2   7
BRANCH   6  21
HETATM   21  O   UNK     0     152.222 153.393 151.361  0.00  0.00    -0.355 OA
BRANCH  21  22
HETATM   22  C   UNK     0     152.207 153.724 149.981  0.00  0.00     0.198 C 
BRANCH  22  23
HETATM   23  C   UNK     0     152.276 152.461 149.184  0.00  0.00     0.000 C 
HETATM   24  C   UNK     0     151.702 152.319 147.979  0.00  0.00     0.009 C 
BRANCH  24  25
HETATM   25  C   UNK     0     151.755 151.102 147.151  0.00  0.00    -0.036 A 
HETATM   26  C   UNK     0     152.978 150.492 146.918  0.00  0.00     0.011 A 
HETATM   27  C   UNK     0     153.029 149.339 146.134  0.00  0.00     0.001 A 
HETATM   28  C   UNK     0     151.856 148.811 145.594  0.00  0.00     0.000 A 
HETATM   29  C   UNK     0     150.633 149.435 145.837  0.00  0.00     0.001 A 
HETATM   30  C   UNK     0     150.582 150.588 146.621  0.00  0.00     0.011 A 
ENDBRANCH  24  25
ENDBRANCH  22  23
ENDBRANCH  21  22
ENDBRANCH   6  21
BRANCH   3  31
HETATM   31  O   UNK     0     155.984 157.131 152.880  0.00  0.00    -0.390 OA
HETATM   32  H   UNK     0     156.495 157.693 152.272  0.00  0.00     0.210 HD
ENDBRANCH   3  31
BRANCH   5  33
HETATM   33  O   UNK     0     154.798 152.539 152.165  0.00  0.00    -0.388 OA
HETATM   34  H   UNK     0     155.584 152.567 152.736  0.00  0.00     0.210 HD
ENDBRANCH   5  33
BRANCH   4  35
HETATM   35  O   UNK     0     156.834 154.623 151.722  0.00  0.00    -0.390 OA
HETATM   36  H   UNK     0     156.730 153.936 151.042  0.00  0.00     0.210 HD
ENDBRANCH   4  35
TORSDOF 13
ENDMDL
MODEL 2
REMARK VINA RESULT:      -8.1      1.670      2.364
REMARK  13 active torsions:
REMARK  status: ('A' for Active; 'I' for Inactive)
REMARK    1  A    between atoms: O_2  and  C_16 
REMARK    2  A    between atoms: O_2  and  C_17 
REMARK    3  A    between atoms: O_4  and  C_12 
REMARK    4  A    between atoms: O_5  and  C_13 
REMARK    5  A    between atoms: O_6  and  C_15 
REMARK    6  A    between atoms: O_6  and  C_22 
REMARK    7  A    between atoms: O_7  and  C_14 
REMARK    8  A    between atoms: O_8  and  C_18 
REMARK    9  A    between atoms: O_9  and  C_19 
REMARK   10  A    between atoms: O_10  and  C_20 
REMARK   11  A    between atoms: C_11  and  C_16 
REMARK   12  A    between atoms: C_22  and  C_23 
REMARK   13  A    between atoms: C_24  and  C_25 
ROOT
HETATM    1  O   UNK     0     153.661 155.536 150.316  0.00  0.00    -0.348 OA
HETATM    2  C   UNK     0     153.275 156.218 151.510  0.00  0.00     0.180 C 
HETATM    3  C   UNK     0     154.460 156.289 152.478  0.00  0.00     0.180 C 
HETATM    4  C   UNK     0     155.005 154.892 152.771  0.00  0.00     0.183 C 
HETATM    5  C   UNK     0     155.242 154.107 151.480  0.00  0.00     0.204 C 
HETATM    6  C   UNK     0     154.028 154.180 150.555  0.00  0.00     0.291 C 
ENDROOT
BRANCH   2   7
HETATM    7  C   UNK     0     152.788 157.608 151.111  0.00  0.00     0.205 C 
BRANCH   7   8
HETATM    8  O   UNK     0     153.611 158.089 150.064  0.00  0.00    -0.356 OA
BRANCH   8   9
HETATM    9  C   UNK     0     154.451 159.154 150.501  0.00  0.00     0.290 C 
HETATM   10  O   UNK     0     153.959 160.431 150.081  0.00  0.00    -0.356 OA
HETATM   11  C   UNK     0     154.001 160.627 148.669  0.00  0.00     0.205 C 
HETATM   12  C   UNK     0     155.432 160.534 148.156  0.00  0.00     0.173 C 
HETATM   13  C   UNK     0     156.047 159.181 148.518  0.00  0.00     0.182 C 
HETATM   14  C   UNK     0     155.890 158.915 150.019  0.00  0.00     0.204 C 
BRANCH  12  15
HETATM   15  O   UNK     0     155.466 160.717 146.748  0.00  0.00    -0.391 OA
HETATM   16  H   UNK     0     156.096 160.071 146.382  0.00  0.00     0.210 HD
ENDBRANCH  12  15
BRANCH  13  17
HETATM   17  O   UNK     0     155.391 158.152 147.780  0.00  0.00    -0.390 OA
HETATM   18  H   UNK     0     155.450 157.333 148.302  0.00  0.00     0.210 HD
ENDBRANCH  13  17
BRANCH  14  19
HETATM   19  O   UNK     0     156.749 159.791 150.747  0.00  0.00    -0.388 OA
HETATM   20  H   UNK     0     156.209 160.500 151.133  0.00  0.00     0.210 HD
ENDBRANCH  14  19
ENDBRANCH   8   9
ENDBRANCH   7   8
ENDBRANCH   2   7
BRANCH   6  21
HETATM   21  O   UNK     0     154.376 153.550 149.323  0.00  0.00    -0.355 OA
BRANCH  21  22
HETATM   22  C   UNK     0     153.265 152.870 148.759  0.00  0.00     0.198 C 
BRANCH  22  23
HETATM   23  C   UNK     0     153.705 152.196 147.498  0.00  0.00     0.000 C 
HETATM   24  C   UNK     0     153.241 151.001 147.102  0.00  0.00     0.009 C 
BRANCH  24  25
HETATM   25  C   UNK     0     153.632 150.306 145.863  0.00  0.00    -0.036 A 
HETATM   26  C   UNK     0     153.598 148.921 145.821  0.00  0.00     0.011 A 
HETATM   27  C   UNK     0     153.968 148.263 144.648  0.00  0.00     0.001 A 
HETATM   28  C   UNK     0     154.367 148.999 143.533  0.00  0.00     0.000 A 
HETATM   29  C   UNK     0     154.396 150.392 143.589  0.00  0.00     0.001 A 
HETATM   30  C   UNK     0     154.026 151.050 144.762  0.00  0.00     0.011 A 
ENDBRANCH  24  25
ENDBRANCH  22  23
ENDBRANCH  21  22
ENDBRANCH   6  21
BRANCH   3  31
HETATM   31  O   UNK     0     154.038 156.897 153.696  0.00  0.00    -0.390 OA
HETATM   32  H   UNK     0     153.599 157.737 153.475  0.00  0.00     0.210 HD
ENDBRANCH   3  31
BRANCH   5  33
HETATM   33  O   UNK     0     155.483 152.736 151.797  0.00  0.00    -0.388 OA
HETATM   34  H   UNK     0     155.082 152.191 151.100  0.00  0.00     0.210 HD
ENDBRANCH   5  33
BRANCH   4  35
HETATM   35  O   UNK     0     156.241 155.038 153.473  0.00  0.00    -0.390 OA
HETATM   36  H   UNK     0     156.423 155.991 153.545  0.00  0.00     0.210 HD
ENDBRANCH   4  35
TORSDOF 13
ENDMDL
MODEL 3
REMARK VINA RESULT:      -8.0      3.295      5.785
REMARK  13 active torsions:
REMARK  status: ('A' for Active; 'I' for Inactive)
REMARK    1  A    between atoms: O_2  and  C_16 
REMARK    2  A    between atoms: O_2  and  C_17 
REMARK    3  A    between atoms: O_4  and  C_12 
REMARK    4  A    between atoms: O_5  and  C_13 
REMARK    5  A    between atoms: O_6  and  C_15 
REMARK    6  A    between atoms: O_6  and  C_22 
REMARK    7  A    between atoms: O_7  and  C_14 
REMARK    8  A    between atoms: O_8  and  C_18 
REMARK    9  A    between atoms: O_9  and  C_19 
REMARK   10  A    between atoms: O_10  and  C_20 
REMARK   11  A    between atoms: C_11  and  C_16 
REMARK   12  A    between atoms: C_22  and  C_23 
REMARK   13  A    between atoms: C_24  and  C_25 
ROOT
HETATM    1  O   UNK     0     150.815 152.495 148.306  0.00  0.00    -0.348 OA
HETATM    2  C   UNK     0     151.953 152.772 149.123  0.00  0.00     0.180 C 
HETATM    3  C   UNK     0     153.216 152.825 148.259  0.00  0.00     0.180 C 
HETATM    4  C   UNK     0     153.387 151.529 147.468  0.00  0.00     0.183 C 
HETATM    5  C   UNK     0     152.096 151.150 146.742  0.00  0.00     0.204 C 
HETATM    6  C   UNK     0     150.891 151.217 147.679  0.00  0.00     0.291 C 
ENDROOT
BRANCH   2   7
HETATM    7  C   UNK     0     151.698 154.099 149.833  0.00  0.00     0.205 C 
BRANCH   7   8
HETATM    8  O   UNK     0     152.542 154.171 150.968  0.00  0.00    -0.356 OA
BRANCH   8   9
HETATM    9  C   UNK     0     152.930 155.512 151.252  0.00  0.00     0.290 C 
HETATM   10  O   UNK     0     154.240 155.808 150.756  0.00  0.00    -0.356 OA
HETATM   11  C   UNK     0     155.281 155.089 151.414  0.00  0.00     0.205 C 
HETATM   12  C   UNK     0     155.305 155.421 152.900  0.00  0.00     0.173 C 
HETATM   13  C   UNK     0     153.956 155.104 153.546  0.00  0.00     0.182 C 
HETATM   14  C   UNK     0     152.824 155.777 152.762  0.00  0.00     0.204 C 
BRANCH  12  15
HETATM   15  O   UNK     0     156.335 154.693 153.553  0.00  0.00    -0.391 OA
HETATM   16  H   UNK     0     156.032 153.773 153.645  0.00  0.00     0.210 HD
ENDBRANCH  12  15
BRANCH  13  17
HETATM   17  O   UNK     0     153.757 153.691 153.553  0.00  0.00    -0.390 OA
HETATM   18  H   UNK     0     153.059 153.497 154.202  0.00  0.00     0.210 HD
ENDBRANCH  13  17
BRANCH  14  19
HETATM   19  O   UNK     0     152.881 157.188 152.967  0.00  0.00    -0.388 OA
HETATM   20  H   UNK     0     151.972 157.522 153.050  0.00  0.00     0.210 HD
ENDBRANCH  14  19
ENDBRANCH   8   9
ENDBRANCH   7   8
ENDBRANCH   2   7
BRANCH   6  21
HETATM   21  O   UNK     0     149.716 150.991 146.901  0.00  0.00    -0.355 OA
BRANCH  21  22
HETATM   22  C   UNK     0     149.537 152.009 145.928  0.00  0.00     0.198 C 
BRANCH  22  23
HETATM   23  C   UNK     0     148.742 151.452 144.791  0.00  0.00     0.000 C 
HETATM   24  C   UNK     0     148.883 150.196 144.339  0.00  0.00     0.009 C 
BRANCH  24  25
HETATM   25  C   UNK     0     148.114 149.599 143.234  0.00  0.00    -0.036 A 
HETATM   26  C   UNK     0     148.743 148.722 142.364  0.00  0.00     0.011 A 
HETATM   27  C   UNK     0     148.015 148.157 141.317  0.00  0.00     0.001 A 
HETATM   28  C   UNK     0     146.667 148.476 141.155  0.00  0.00     0.000 A 
HETATM   29  C   UNK     0     146.047 149.359 142.038  0.00  0.00     0.001 A 
HETATM   30  C   UNK     0     146.775 149.925 143.085  0.00  0.00     0.011 A 
ENDBRANCH  24  25
ENDBRANCH  22  23
ENDBRANCH  21  22
ENDBRANCH   6  21
BRANCH   3  31
HETATM   31  O   UNK     0     154.353 153.020 149.097  0.00  0.00    -0.390 OA
HETATM   32  H   UNK     0     154.781 152.156 149.227  0.00  0.00     0.210 HD
ENDBRANCH   3  31
BRANCH   5  33
HETATM   33  O   UNK     0     152.206 149.815 146.248  0.00  0.00    -0.388 OA
HETATM   34  H   UNK     0     153.037 149.438 146.581  0.00  0.00     0.210 HD
ENDBRANCH   5  33
BRANCH   4  35
HETATM   35  O   UNK     0     154.430 151.729 146.512  0.00  0.00    -0.390 OA
HETATM   36  H   UNK     0     154.786 150.854 146.283  0.00  0.00     0.210 HD
ENDBRANCH   4  35
TORSDOF 13
ENDMDL
MODEL 4
REMARK VINA RESULT:      -8.0      2.910      4.254
REMARK  13 active torsions:
REMARK  status: ('A' for Active; 'I' for Inactive)
REMARK    1  A    between atoms: O_2  and  C_16 
REMARK    2  A    between atoms: O_2  and  C_17 
REMARK    3  A    between atoms: O_4  and  C_12 
REMARK    4  A    between atoms: O_5  and  C_13 
REMARK    5  A    between atoms: O_6  and  C_15 
REMARK    6  A    between atoms: O_6  and  C_22 
REMARK    7  A    between atoms: O_7  and  C_14 
REMARK    8  A    between atoms: O_8  and  C_18 
REMARK    9  A    between atoms: O_9  and  C_19 
REMARK   10  A    between atoms: O_10  and  C_20 
REMARK   11  A    between atoms: C_11  and  C_16 
REMARK   12  A    between atoms: C_22  and  C_23 
REMARK   13  A    between atoms: C_24  and  C_25 
ROOT
HETATM    1  O   UNK     0     152.991 156.029 151.193  0.00  0.00    -0.348 OA
HETATM    2  C   UNK     0     153.719 156.840 152.116  0.00  0.00     0.180 C 
HETATM    3  C   UNK     0     155.216 156.537 152.010  0.00  0.00     0.180 C 
HETATM    4  C   UNK     0     155.485 155.048 152.226  0.00  0.00     0.183 C 
HETATM    5  C   UNK     0     154.565 154.188 151.358  0.00  0.00     0.204 C 
HETATM    6  C   UNK     0     153.110 154.637 151.476  0.00  0.00     0.291 C 
ENDROOT
BRANCH   2   7
HETATM    7  C   UNK     0     153.413 158.299 151.789  0.00  0.00     0.205 C 
BRANCH   7   8
HETATM    8  O   UNK     0     154.346 158.748 150.823  0.00  0.00    -0.356 OA
BRANCH   8   9
HETATM    9  C   UNK     0     153.704 159.151 149.617  0.00  0.00     0.290 C 
HETATM   10  O   UNK     0     154.047 158.300 148.517  0.00  0.00    -0.356 OA
HETATM   11  C   UNK     0     155.415 158.388 148.128  0.00  0.00     0.205 C 
HETATM   12  C   UNK     0     155.759 159.806 147.690  0.00  0.00     0.173 C 
HETATM   13  C   UNK     0     155.466 160.803 148.813  0.00  0.00     0.182 C 
HETATM   14  C   UNK     0     154.031 160.622 149.317  0.00  0.00     0.204 C 
BRANCH  12  15
HETATM   15  O   UNK     0     157.127 159.891 147.315  0.00  0.00    -0.391 OA
HETATM   16  H   UNK     0     157.289 159.209 146.640  0.00  0.00     0.210 HD
ENDBRANCH  12  15
BRANCH  13  17
HETATM   17  O   UNK     0     156.380 160.585 149.886  0.00  0.00    -0.390 OA
HETATM   18  H   UNK     0     157.177 161.114 149.704  0.00  0.00     0.210 HD
ENDBRANCH  13  17
BRANCH  14  19
HETATM   19  O   UNK     0     153.118 161.082 148.322  0.00  0.00    -0.388 OA
HETATM   20  H   UNK     0     152.291 161.343 148.761  0.00  0.00     0.210 HD
ENDBRANCH  14  19
ENDBRANCH   8   9
ENDBRANCH   7   8
ENDBRANCH   2   7
BRANCH   6  21
HETATM   21  O   UNK     0     152.341 153.887 150.537  0.00  0.00    -0.355 OA
BRANCH  21  22
HETATM   22  C   UNK     0     151.092 153.497 151.086  0.00  0.00     0.198 C 
BRANCH  22  23
HETATM   23  C   UNK     0     150.009 154.297 150.435  0.00  0.00     0.000 C 
HETATM   24  C   UNK     0     148.935 154.756 151.095  0.00  0.00     0.009 C 
BRANCH  24  25
HETATM   25  C   UNK     0     147.853 155.560 150.500  0.00  0.00    -0.036 A 
HETATM   26  C   UNK     0     146.736 154.921 149.986  0.00  0.00     0.011 A 
HETATM   27  C   UNK     0     145.711 155.682 149.423  0.00  0.00     0.001 A 
HETATM   28  C   UNK     0     145.817 157.072 149.383  0.00  0.00     0.000 A 
HETATM   29  C   UNK     0     146.946 157.701 149.904  0.00  0.00     0.001 A 
HETATM   30  C   UNK     0     147.972 156.940 150.468  0.00  0.00     0.011 A 
ENDBRANCH  24  25
ENDBRANCH  22  23
ENDBRANCH  21  22
ENDBRANCH   6  21
BRANCH   3  31
HETATM   31  O   UNK     0     155.921 157.291 152.993  0.00  0.00    -0.390 OA
HETATM   32  H   UNK     0     155.374 158.061 153.228  0.00  0.00     0.210 HD
ENDBRANCH   3  31
BRANCH   5  33
HETATM   33  O   UNK     0     154.651 152.828 151.783  0.00  0.00    -0.388 OA
HETATM   34  H   UNK     0     154.865 152.821 152.731  0.00  0.00     0.210 HD
ENDBRANCH   5  33
BRANCH   4  35
HETATM   35  O   UNK     0     156.846 154.790 151.879  0.00  0.00    -0.390 OA
HETATM   36  H   UNK     0     156.946 153.827 151.787  0.00  0.00     0.210 HD
ENDBRANCH   4  35
TORSDOF 13
ENDMDL
MODEL 5
REMARK VINA RESULT:      -7.9      3.507      6.785
REMARK  13 active torsions:
REMARK  status: ('A' for Active; 'I' for Inactive)
REMARK    1  A    between atoms: O_2  and  C_16 
REMARK    2  A    between atoms: O_2  and  C_17 
REMARK    3  A    between atoms: O_4  and  C_12 
REMARK    4  A    between atoms: O_5  and  C_13 
REMARK    5  A    between atoms: O_6  and  C_15 
REMARK    6  A    between atoms: O_6  and  C_22 
REMARK    7  A    between atoms: O_7  and  C_14 
REMARK    8  A    between atoms: O_8  and  C_18 
REMARK    9  A    between atoms: O_9  and  C_19 
REMARK   10  A    between atoms: O_10  and  C_20 
REMARK   11  A    between atoms: C_11  and  C_16 
REMARK   12  A    between atoms: C_22  and  C_23 
REMARK   13  A    between atoms: C_24  and  C_25 
ROOT
HETATM    1  O   UNK     0     153.076 158.099 149.331  0.00  0.00    -0.348 OA
HETATM    2  C   UNK     0     154.282 157.629 148.727  0.00  0.00     0.180 C 
HETATM    3  C   UNK     0     155.494 158.257 149.421  0.00  0.00     0.180 C 
HETATM    4  C   UNK     0     155.402 159.782 149.396  0.00  0.00     0.183 C 
HETATM    5  C   UNK     0     154.033 160.263 149.877  0.00  0.00     0.204 C 
HETATM    6  C   UNK     0     152.903 159.506 149.182  0.00  0.00     0.291 C 
ENDROOT
BRANCH   2   7
HETATM    7  C   UNK     0     154.291 156.107 148.841  0.00  0.00     0.205 C 
BRANCH   7   8
HETATM    8  O   UNK     0     155.126 155.742 149.925  0.00  0.00    -0.356 OA
BRANCH   8   9
HETATM    9  C   UNK     0     154.727 154.504 150.504  0.00  0.00     0.290 C 
HETATM   10  O   UNK     0     153.375 154.543 150.976  0.00  0.00    -0.356 OA
HETATM   11  C   UNK     0     153.176 155.425 152.078  0.00  0.00     0.205 C 
HETATM   12  C   UNK     0     154.027 154.998 153.267  0.00  0.00     0.173 C 
HETATM   13  C   UNK     0     155.508 154.959 152.884  0.00  0.00     0.182 C 
HETATM   14  C   UNK     0     155.704 154.111 151.623  0.00  0.00     0.204 C 
BRANCH  12  15
HETATM   15  O   UNK     0     153.835 155.886 154.358  0.00  0.00    -0.391 OA
HETATM   16  H   UNK     0     153.192 156.561 154.078  0.00  0.00     0.210 HD
ENDBRANCH  12  15
BRANCH  13  17
HETATM   17  O   UNK     0     155.967 156.288 152.643  0.00  0.00    -0.390 OA
HETATM   18  H   UNK     0     156.801 156.224 152.147  0.00  0.00     0.210 HD
ENDBRANCH  13  17
BRANCH  14  19
HETATM   19  O   UNK     0     155.485 152.737 151.938  0.00  0.00    -0.388 OA
HETATM   20  H   UNK     0     154.628 152.470 151.565  0.00  0.00     0.210 HD
ENDBRANCH  14  19
ENDBRANCH   8   9
ENDBRANCH   7   8
ENDBRANCH   2   7
BRANCH   6  21
HETATM   21  O   UNK     0     151.671 159.906 149.781  0.00  0.00    -0.355 OA
BRANCH  21  22
HETATM   22  C   UNK     0     151.123 158.868 150.579  0.00  0.00     0.198 C 
BRANCH  22  23
HETATM   23  C   UNK     0     149.760 158.535 150.064  0.00  0.00     0.000 C 
HETATM   24  C   UNK     0     148.997 157.556 150.577  0.00  0.00     0.009 C 
BRANCH  24  25
HETATM   25  C   UNK     0     147.645 157.203 150.114  0.00  0.00    -0.036 A 
HETATM   26  C   UNK     0     146.768 158.210 149.743  0.00  0.00     0.011 A 
HETATM   27  C   UNK     0     145.487 157.876 149.304  0.00  0.00     0.001 A 
HETATM   28  C   UNK     0     145.100 156.537 149.241  0.00  0.00     0.000 A 
HETATM   29  C   UNK     0     145.992 155.534 149.617  0.00  0.00     0.001 A 
HETATM   30  C   UNK     0     147.274 155.868 150.056  0.00  0.00     0.011 A 
ENDBRANCH  24  25
ENDBRANCH  22  23
ENDBRANCH  21  22
ENDBRANCH   6  21
BRANCH   3  31
HETATM   31  O   UNK     0     156.685 157.844 148.756  0.00  0.00    -0.390 OA
HETATM   32  H   UNK     0     156.427 157.328 147.973  0.00  0.00     0.210 HD
ENDBRANCH   3  31
BRANCH   5  33
HETATM   33  O   UNK     0     153.889 161.652 149.583  0.00  0.00    -0.388 OA
HETATM   34  H   UNK     0     152.954 161.824 149.385  0.00  0.00     0.210 HD
ENDBRANCH   5  33
BRANCH   4  35
HETATM   35  O   UNK     0     156.418 160.299 150.258  0.00  0.00    -0.390 OA
HETATM   36  H   UNK     0     156.807 161.073 149.817  0.00  0.00     0.210 HD
ENDBRANCH   4  35
TORSDOF 13
ENDMDL
MODEL 6
REMARK VINA RESULT:      -7.9      3.595      6.687
REMARK  13 active torsions:
REMARK  status: ('A' for Active; 'I' for Inactive)
REMARK    1  A    between atoms: O_2  and  C_16 
REMARK    2  A    between atoms: O_2  and  C_17 
REMARK    3  A    between atoms: O_4  and  C_12 
REMARK    4  A    between atoms: O_5  and  C_13 
REMARK    5  A    between atoms: O_6  and  C_15 
REMARK    6  A    between atoms: O_6  and  C_22 
REMARK    7  A    between atoms: O_7  and  C_14 
REMARK    8  A    between atoms: O_8  and  C_18 
REMARK    9  A    between atoms: O_9  and  C_19 
REMARK   10  A    between atoms: O_10  and  C_20 
REMARK   11  A    between atoms: C_11  and  C_16 
REMARK   12  A    between atoms: C_22  and  C_23 
REMARK   13  A    between atoms: C_24  and  C_25 
ROOT
HETATM    1  O   UNK     0     153.267 156.352 150.736  0.00  0.00    -0.348 OA
HETATM    2  C   UNK     0     154.501 155.816 151.214  0.00  0.00     0.180 C 
HETATM    3  C   UNK     0     154.990 156.624 152.420  0.00  0.00     0.180 C 
HETATM    4  C   UNK     0     155.112 158.105 152.066  0.00  0.00     0.183 C 
HETATM    5  C   UNK     0     153.842 158.619 151.387  0.00  0.00     0.204 C 
HETATM    6  C   UNK     0     153.399 157.688 150.259  0.00  0.00     0.291 C 
ENDROOT
BRANCH   2   7
HETATM    7  C   UNK     0     154.260 154.353 151.574  0.00  0.00     0.205 C 
BRANCH   7   8
HETATM    8  O   UNK     0     153.923 153.648 150.393  0.00  0.00    -0.356 OA
BRANCH   8   9
HETATM    9  C   UNK     0     152.898 152.687 150.626  0.00  0.00     0.290 C 
HETATM   10  O   UNK     0     152.890 151.660 149.629  0.00  0.00    -0.356 OA
HETATM   11  C   UNK     0     152.526 152.121 148.331  0.00  0.00     0.205 C 
HETATM   12  C   UNK     0     151.121 152.710 148.345  0.00  0.00     0.173 C 
HETATM   13  C   UNK     0     151.025 153.853 149.357  0.00  0.00     0.182 C 
HETATM   14  C   UNK     0     151.535 153.390 150.725  0.00  0.00     0.204 C 
BRANCH  12  15
HETATM   15  O   UNK     0     150.768 153.180 147.052  0.00  0.00    -0.391 OA
HETATM   16  H   UNK     0     149.796 153.213 147.006  0.00  0.00     0.210 HD
ENDBRANCH  12  15
BRANCH  13  17
HETATM   17  O   UNK     0     151.810 154.953 148.901  0.00  0.00    -0.390 OA
HETATM   18  H   UNK     0     152.231 155.355 149.680  0.00  0.00     0.210 HD
ENDBRANCH  13  17
BRANCH  14  19
HETATM   19  O   UNK     0     150.604 152.469 151.290  0.00  0.00    -0.388 OA
HETATM   20  H   UNK     0     150.655 151.636 150.792  0.00  0.00     0.210 HD
ENDBRANCH  14  19
ENDBRANCH   8   9
ENDBRANCH   7   8
ENDBRANCH   2   7
BRANCH   6  21
HETATM   21  O   UNK     0     152.141 158.154 149.773  0.00  0.00    -0.355 OA
BRANCH  21  22
HETATM   22  C   UNK     0     151.180 158.228 150.815  0.00  0.00     0.198 C 
BRANCH  22  23
HETATM   23  C   UNK     0     149.946 157.501 150.384  0.00  0.00     0.000 C 
HETATM   24  C   UNK     0     148.710 158.008 150.511  0.00  0.00     0.009 C 
BRANCH  24  25
HETATM   25  C   UNK     0     147.469 157.337 150.087  0.00  0.00    -0.036 A 
HETATM   26  C   UNK     0     146.437 158.092 149.553  0.00  0.00     0.011 A 
HETATM   27  C   UNK     0     145.262 157.456 149.152  0.00  0.00     0.001 A 
HETATM   28  C   UNK     0     145.135 156.074 149.289  0.00  0.00     0.000 A 
HETATM   29  C   UNK     0     146.182 155.327 149.828  0.00  0.00     0.001 A 
HETATM   30  C   UNK     0     147.358 155.963 150.229  0.00  0.00     0.011 A 
ENDBRANCH  24  25
ENDBRANCH  22  23
ENDBRANCH  21  22
ENDBRANCH   6  21
BRANCH   3  31
HETATM   31  O   UNK     0     156.261 156.130 152.834  0.00  0.00    -0.390 OA
HETATM   32  H   UNK     0     156.635 156.764 153.471  0.00  0.00     0.210 HD
ENDBRANCH   3  31
BRANCH   5  33
HETATM   33  O   UNK     0     154.092 159.910 150.831  0.00  0.00    -0.388 OA
HETATM   34  H   UNK     0     153.239 160.297 150.571  0.00  0.00     0.210 HD
ENDBRANCH   5  33
BRANCH   4  35
HETATM   35  O   UNK     0     155.332 158.831 153.277  0.00  0.00    -0.390 OA
HETATM   36  H   UNK     0     154.496 159.268 153.510  0.00  0.00     0.210 HD
ENDBRANCH   4  35
TORSDOF 13
ENDMDL
MODEL 7
REMARK VINA RESULT:      -7.9      4.186      7.181
REMARK  13 active torsions:
REMARK  status: ('A' for Active; 'I' for Inactive)
REMARK    1  A    between atoms: O_2  and  C_16 
REMARK    2  A    between atoms: O_2  and  C_17 
REMARK    3  A    between atoms: O_4  and  C_12 
REMARK    4  A    between atoms: O_5  and  C_13 
REMARK    5  A    between atoms: O_6  and  C_15 
REMARK    6  A    between atoms: O_6  and  C_22 
REMARK    7  A    between atoms: O_7  and  C_14 
REMARK    8  A    between atoms: O_8  and  C_18 
REMARK    9  A    between atoms: O_9  and  C_19 
REMARK   10  A    between atoms: O_10  and  C_20 
REMARK   11  A    between atoms: C_11  and  C_16 
REMARK   12  A    between atoms: C_22  and  C_23 
REMARK   13  A    between atoms: C_24  and  C_25 
ROOT
HETATM    1  O   UNK     0     150.443 152.105 146.668  0.00  0.00    -0.348 OA
HETATM    2  C   UNK     0     151.272 151.785 147.786  0.00  0.00     0.180 C 
HETATM    3  C   UNK     0     152.713 151.560 147.321  0.00  0.00     0.180 C 
HETATM    4  C   UNK     0     152.772 150.480 146.241  0.00  0.00     0.183 C 
HETATM    5  C   UNK     0     151.746 150.744 145.138  0.00  0.00     0.204 C 
HETATM    6  C   UNK     0     150.366 151.043 145.722  0.00  0.00     0.291 C 
ENDROOT
BRANCH   2   7
HETATM    7  C   UNK     0     151.172 152.939 148.780  0.00  0.00     0.205 C 
BRANCH   7   8
HETATM    8  O   UNK     0     152.455 153.520 148.924  0.00  0.00    -0.356 OA
BRANCH   8   9
HETATM    9  C   UNK     0     152.475 154.507 149.950  0.00  0.00     0.290 C 
HETATM   10  O   UNK     0     153.701 155.247 149.960  0.00  0.00    -0.356 OA
HETATM   11  C   UNK     0     154.839 154.468 150.323  0.00  0.00     0.205 C 
HETATM   12  C   UNK     0     154.674 153.901 151.728  0.00  0.00     0.173 C 
HETATM   13  C   UNK     0     153.404 153.054 151.822  0.00  0.00     0.182 C 
HETATM   14  C   UNK     0     152.199 153.851 151.312  0.00  0.00     0.204 C 
BRANCH  12  15
HETATM   15  O   UNK     0     155.805 153.116 152.080  0.00  0.00    -0.391 OA
HETATM   16  H   UNK     0     155.482 152.236 152.340  0.00  0.00     0.210 HD
ENDBRANCH  12  15
BRANCH  13  17
HETATM   17  O   UNK     0     153.565 151.875 151.034  0.00  0.00    -0.390 OA
HETATM   18  H   UNK     0     154.493 151.840 150.746  0.00  0.00     0.210 HD
ENDBRANCH  13  17
BRANCH  14  19
HETATM   19  O   UNK     0     151.887 154.885 152.244  0.00  0.00    -0.388 OA
HETATM   20  H   UNK     0     151.802 155.721 151.758  0.00  0.00     0.210 HD
ENDBRANCH  14  19
ENDBRANCH   8   9
ENDBRANCH   7   8
ENDBRANCH   2   7
BRANCH   6  21
HETATM   21  O   UNK     0     149.505 151.415 144.647  0.00  0.00    -0.355 OA
BRANCH  21  22
HETATM   22  C   UNK     0     148.157 151.063 144.918  0.00  0.00     0.198 C 
BRANCH  22  23
HETATM   23  C   UNK     0     147.849 149.774 144.226  0.00  0.00     0.000 C 
HETATM   24  C   UNK     0     146.924 149.660 143.261  0.00  0.00     0.009 C 
BRANCH  24  25
HETATM   25  C   UNK     0     146.596 148.416 142.541  0.00  0.00    -0.036 A 
HETATM   26  C   UNK     0     146.249 148.479 141.201  0.00  0.00     0.011 A 
HETATM   27  C   UNK     0     145.939 147.302 140.519  0.00  0.00     0.001 A 
HETATM   28  C   UNK     0     145.981 146.078 141.187  0.00  0.00     0.000 A 
HETATM   29  C   UNK     0     146.333 146.031 142.536  0.00  0.00     0.001 A 
HETATM   30  C   UNK     0     146.643 147.208 143.218  0.00  0.00     0.011 A 
ENDBRANCH  24  25
ENDBRANCH  22  23
ENDBRANCH  21  22
ENDBRANCH   6  21
BRANCH   3  31
HETATM   31  O   UNK     0     153.511 151.161 148.432  0.00  0.00    -0.390 OA
HETATM   32  H   UNK     0     153.312 151.759 149.174  0.00  0.00     0.210 HD
ENDBRANCH   3  31
BRANCH   5  33
HETATM   33  O   UNK     0     151.640 149.589 144.305  0.00  0.00    -0.388 OA
HETATM   34  H   UNK     0     151.096 148.931 144.769  0.00  0.00     0.210 HD
ENDBRANCH   5  33
BRANCH   4  35
HETATM   35  O   UNK     0     154.086 150.488 145.681  0.00  0.00    -0.390 OA
HETATM   36  H   UNK     0     154.104 151.172 144.990  0.00  0.00     0.210 HD
ENDBRANCH   4  35
TORSDOF 13
ENDMDL
MODEL 8
REMARK VINA RESULT:      -7.8      3.369      4.565
REMARK  13 active torsions:
REMARK  status: ('A' for Active; 'I' for Inactive)
REMARK    1  A    between atoms: O_2  and  C_16 
REMARK    2  A    between atoms: O_2  and  C_17 
REMARK    3  A    between atoms: O_4  and  C_12 
REMARK    4  A    between atoms: O_5  and  C_13 
REMARK    5  A    between atoms: O_6  and  C_15 
REMARK    6  A    between atoms: O_6  and  C_22 
REMARK    7  A    between atoms: O_7  and  C_14 
REMARK    8  A    between atoms: O_8  and  C_18 
REMARK    9  A    between atoms: O_9  and  C_19 
REMARK   10  A    between atoms: O_10  and  C_20 
REMARK   11  A    between atoms: C_11  and  C_16 
REMARK   12  A    between atoms: C_22  and  C_23 
REMARK   13  A    between atoms: C_24  and  C_25 
ROOT
HETATM    1  O   UNK     0     153.475 156.655 151.520  0.00  0.00    -0.348 OA
HETATM    2  C   UNK     0     154.567 156.652 152.439  0.00  0.00     0.180 C 
HETATM    3  C   UNK     0     155.497 155.472 152.142  0.00  0.00     0.180 C 
HETATM    4  C   UNK     0     154.725 154.154 152.171  0.00  0.00     0.183 C 
HETATM    5  C   UNK     0     153.457 154.236 151.321  0.00  0.00     0.204 C 
HETATM    6  C   UNK     0     152.655 155.496 151.641  0.00  0.00     0.291 C 
ENDROOT
BRANCH   2   7
HETATM    7  C   UNK     0     155.290 157.989 152.302  0.00  0.00     0.205 C 
BRANCH   7   8
HETATM    8  O   UNK     0     154.641 158.750 151.299  0.00  0.00    -0.356 OA
BRANCH   8   9
HETATM    9  C   UNK     0     155.559 159.222 150.318  0.00  0.00     0.290 C 
HETATM   10  O   UNK     0     155.192 160.512 149.817  0.00  0.00    -0.356 OA
HETATM   11  C   UNK     0     153.981 160.513 149.065  0.00  0.00     0.205 C 
HETATM   12  C   UNK     0     154.104 159.605 147.848  0.00  0.00     0.173 C 
HETATM   13  C   UNK     0     154.459 158.179 148.273  0.00  0.00     0.182 C 
HETATM   14  C   UNK     0     155.690 158.192 149.186  0.00  0.00     0.204 C 
BRANCH  12  15
HETATM   15  O   UNK     0     152.891 159.599 147.109  0.00  0.00    -0.391 OA
HETATM   16  H   UNK     0     153.012 159.003 146.349  0.00  0.00     0.210 HD
ENDBRANCH  12  15
BRANCH  13  17
HETATM   17  O   UNK     0     153.354 157.606 148.970  0.00  0.00    -0.390 OA
HETATM   18  H   UNK     0     153.710 157.107 149.725  0.00  0.00     0.210 HD
ENDBRANCH  13  17
BRANCH  14  19
HETATM   19  O   UNK     0     156.845 158.525 148.418  0.00  0.00    -0.388 OA
HETATM   20  H   UNK     0     156.963 157.847 147.732  0.00  0.00     0.210 HD
ENDBRANCH  14  19
ENDBRANCH   8   9
ENDBRANCH   7   8
ENDBRANCH   2   7
BRANCH   6  21
HETATM   21  O   UNK     0     151.570 155.573 150.716  0.00  0.00    -0.355 OA
BRANCH  21  22
HETATM   22  C   UNK     0     150.318 155.544 151.384  0.00  0.00     0.198 C 
BRANCH  22  23
HETATM   23  C   UNK     0     149.237 155.347 150.370  0.00  0.00     0.000 C 
HETATM   24  C   UNK     0     148.016 155.893 150.480  0.00  0.00     0.009 C 
BRANCH  24  25
HETATM   25  C   UNK     0     146.927 155.739 149.501  0.00  0.00    -0.036 A 
HETATM   26  C   UNK     0     146.947 154.666 148.624  0.00  0.00     0.011 A 
HETATM   27  C   UNK     0     145.915 154.521 147.697  0.00  0.00     0.001 A 
HETATM   28  C   UNK     0     144.876 155.450 147.659  0.00  0.00     0.000 A 
HETATM   29  C   UNK     0     144.868 156.524 148.548  0.00  0.00     0.001 A 
HETATM   30  C   UNK     0     145.900 156.670 149.475  0.00  0.00     0.011 A 
ENDBRANCH  24  25
ENDBRANCH  22  23
ENDBRANCH  21  22
ENDBRANCH   6  21
BRANCH   3  31
HETATM   31  O   UNK     0     156.536 155.433 153.118  0.00  0.00    -0.390 OA
HETATM   32  H   UNK     0     156.902 154.532 153.129  0.00  0.00     0.210 HD
ENDBRANCH   3  31
BRANCH   5  33
HETATM   33  O   UNK     0     152.634 153.100 151.589  0.00  0.00    -0.388 OA
HETATM   34  H   UNK     0     151.920 153.379 152.187  0.00  0.00     0.210 HD
ENDBRANCH   5  33
BRANCH   4  35
HETATM   35  O   UNK     0     155.579 153.131 151.654  0.00  0.00    -0.390 OA
HETATM   36  H   UNK     0     155.298 152.289 152.051  0.00  0.00     0.210 HD
ENDBRANCH   4  35
TORSDOF 13
ENDMDL
MODEL 9
REMARK VINA RESULT:      -7.8      3.660      5.340
REMARK  13 active torsions:
REMARK  status: ('A' for Active; 'I' for Inactive)
REMARK    1  A    between atoms: O_2  and  C_16 
REMARK    2  A    between atoms: O_2  and  C_17 
REMARK    3  A    between atoms: O_4  and  C_12 
REMARK    4  A    between atoms: O_5  and  C_13 
REMARK    5  A    between atoms: O_6  and  C_15 
REMARK    6  A    between atoms: O_6  and  C_22 
REMARK    7  A    between atoms: O_7  and  C_14 
REMARK    8  A    between atoms: O_8  and  C_18 
REMARK    9  A    between atoms: O_9  and  C_19 
REMARK   10  A    between atoms: O_10  and  C_20 
REMARK   11  A    between atoms: C_11  and  C_16 
REMARK   12  A    between atoms: C_22  and  C_23 
REMARK   13  A    between atoms: C_24  and  C_25 
ROOT
HETATM    1  O   UNK     0     153.246 156.282 150.857  0.00  0.00    -0.348 OA
HETATM    2  C   UNK     0     153.964 157.214 151.669  0.00  0.00     0.180 C 
HETATM    3  C   UNK     0     155.296 156.604 152.111  0.00  0.00     0.180 C 
HETATM    4  C   UNK     0     155.071 155.276 152.833  0.00  0.00     0.183 C 
HETATM    5  C   UNK     0     154.149 154.357 152.030  0.00  0.00     0.204 C 
HETATM    6  C   UNK     0     152.895 155.097 151.566  0.00  0.00     0.291 C 
ENDROOT
BRANCH   2   7
HETATM    7  C   UNK     0     154.169 158.481 150.844  0.00  0.00     0.205 C 
BRANCH   7   8
HETATM    8  O   UNK     0     153.245 159.459 151.285  0.00  0.00    -0.356 OA
BRANCH   8   9
HETATM    9  C   UNK     0     152.362 159.859 150.241  0.00  0.00     0.290 C 
HETATM   10  O   UNK     0     152.483 161.255 149.942  0.00  0.00    -0.356 OA
HETATM   11  C   UNK     0     152.046 162.108 150.997  0.00  0.00     0.205 C 
HETATM   12  C   UNK     0     150.574 161.867 151.308  0.00  0.00     0.173 C 
HETATM   13  C   UNK     0     150.335 160.403 151.682  0.00  0.00     0.182 C 
HETATM   14  C   UNK     0     150.918 159.482 150.605  0.00  0.00     0.204 C 
BRANCH  12  15
HETATM   15  O   UNK     0     150.147 162.711 152.368  0.00  0.00    -0.391 OA
HETATM   16  H   UNK     0     149.181 162.626 152.441  0.00  0.00     0.210 HD
ENDBRANCH  12  15
BRANCH  13  17
HETATM   17  O   UNK     0     150.960 160.129 152.935  0.00  0.00    -0.390 OA
HETATM   18  H   UNK     0     151.677 159.492 152.771  0.00  0.00     0.210 HD
ENDBRANCH  13  17
BRANCH  14  19
HETATM   19  O   UNK     0     150.126 159.577 149.422  0.00  0.00    -0.388 OA
HETATM   20  H   UNK     0     150.418 158.889 148.801  0.00  0.00     0.210 HD
ENDBRANCH  14  19
ENDBRANCH   8   9
ENDBRANCH   7   8
ENDBRANCH   2   7
BRANCH   6  21
HETATM   21  O   UNK     0     152.161 154.223 150.710  0.00  0.00    -0.355 OA
BRANCH  21  22
HETATM   22  C   UNK     0     150.880 153.931 151.246  0.00  0.00     0.198 C 
BRANCH  22  23
HETATM   23  C   UNK     0     149.879 154.855 150.630  0.00  0.00     0.000 C 
HETATM   24  C   UNK     0     148.581 154.869 150.972  0.00  0.00     0.009 C 
BRANCH  24  25
HETATM   25  C   UNK     0     147.563 155.770 150.404  0.00  0.00    -0.036 A 
HETATM   26  C   UNK     0     147.789 157.137 150.407  0.00  0.00     0.011 A 
HETATM   27  C   UNK     0     146.825 157.991 149.869  0.00  0.00     0.001 A 
HETATM   28  C   UNK     0     145.649 157.465 149.336  0.00  0.00     0.000 A 
HETATM   29  C   UNK     0     145.435 156.087 149.340  0.00  0.00     0.001 A 
HETATM   30  C   UNK     0     146.399 155.233 149.878  0.00  0.00     0.011 A 
ENDBRANCH  24  25
ENDBRANCH  22  23
ENDBRANCH  21  22
ENDBRANCH   6  21
BRANCH   3  31
HETATM   31  O   UNK     0     155.962 157.510 152.986  0.00  0.00    -0.390 OA
HETATM   32  H   UNK     0     156.920 157.408 152.851  0.00  0.00     0.210 HD
ENDBRANCH   3  31
BRANCH   5  33
HETATM   33  O   UNK     0     153.746 153.259 152.847  0.00  0.00    -0.388 OA
HETATM   34  H   UNK     0     152.868 153.460 153.211  0.00  0.00     0.210 HD
ENDBRANCH   5  33
BRANCH   4  35
HETATM   35  O   UNK     0     156.342 154.645 153.003  0.00  0.00    -0.390 OA
HETATM   36  H   UNK     0     156.407 154.367 153.933  0.00  0.00     0.210 HD
ENDBRANCH   4  35
TORSDOF 13
ENDMDL
MODEL 10
REMARK VINA RESULT:      -7.8      3.774      5.824
REMARK  13 active torsions:
REMARK  status: ('A' for Active; 'I' for Inactive)
REMARK    1  A    between atoms: O_2  and  C_16 
REMARK    2  A    between atoms: O_2  and  C_17 
REMARK    3  A    between atoms: O_4  and  C_12 
REMARK    4  A    between atoms: O_5  and  C_13 
REMARK    5  A    between atoms: O_6  and  C_15 
REMARK    6  A    between atoms: O_6  and  C_22 
REMARK    7  A    between atoms: O_7  and  C_14 
REMARK    8  A    between atoms: O_8  and  C_18 
REMARK    9  A    between atoms: O_9  and  C_19 
REMARK   10  A    between atoms: O_10  and  C_20 
REMARK   11  A    between atoms: C_11  and  C_16 
REMARK   12  A    between atoms: C_22  and  C_23 
REMARK   13  A    between atoms: C_24  and  C_25 
ROOT
HETATM    1  O   UNK     0     152.322 153.557 149.570  0.00  0.00    -0.348 OA
HETATM    2  C   UNK     0     151.569 154.326 150.509  0.00  0.00     0.180 C 
HETATM    3  C   UNK     0     152.402 154.572 151.770  0.00  0.00     0.180 C 
HETATM    4  C   UNK     0     152.880 153.250 152.370  0.00  0.00     0.183 C 
HETATM    5  C   UNK     0     153.524 152.360 151.307  0.00  0.00     0.204 C 
HETATM    6  C   UNK     0     152.646 152.259 150.061  0.00  0.00     0.291 C 
ENDROOT
BRANCH   2   7
HETATM    7  C   UNK     0     151.179 155.633 149.827  0.00  0.00     0.205 C 
BRANCH   7   8
HETATM    8  O   UNK     0     149.792 155.846 150.021  0.00  0.00    -0.356 OA
BRANCH   8   9
HETATM    9  C   UNK     0     149.089 154.619 150.189  0.00  0.00     0.290 C 
HETATM   10  O   UNK     0     148.695 154.051 148.935  0.00  0.00    -0.356 OA
HETATM   11  C   UNK     0     147.717 154.820 148.238  0.00  0.00     0.205 C 
HETATM   12  C   UNK     0     146.444 154.947 149.064  0.00  0.00     0.173 C 
HETATM   13  C   UNK     0     146.745 155.584 150.422  0.00  0.00     0.182 C 
HETATM   14  C   UNK     0     147.884 154.830 151.118  0.00  0.00     0.204 C 
BRANCH  12  15
HETATM   15  O   UNK     0     145.479 155.725 148.371  0.00  0.00    -0.391 OA
HETATM   16  H   UNK     0     144.599 155.389 148.617  0.00  0.00     0.210 HD
ENDBRANCH  12  15
BRANCH  13  17
HETATM   17  O   UNK     0     147.121 156.947 150.231  0.00  0.00    -0.390 OA
HETATM   18  H   UNK     0     146.776 157.454 150.986  0.00  0.00     0.210 HD
ENDBRANCH  13  17
BRANCH  14  19
HETATM   19  O   UNK     0     147.417 153.548 151.534  0.00  0.00    -0.388 OA
HETATM   20  H   UNK     0     148.187 152.970 151.666  0.00  0.00     0.210 HD
ENDBRANCH  14  19
ENDBRANCH   8   9
ENDBRANCH   7   8
ENDBRANCH   2   7
BRANCH   6  21
HETATM   21  O   UNK     0     153.372 151.535 149.069  0.00  0.00    -0.355 OA
BRANCH  21  22
HETATM   22  C   UNK     0     152.666 151.495 147.838  0.00  0.00     0.198 C 
BRANCH  22  23
HETATM   23  C   UNK     0     153.229 150.394 146.997  0.00  0.00     0.000 C 
HETATM   24  C   UNK     0     152.557 149.825 145.984  0.00  0.00     0.009 C 
BRANCH  24  25
HETATM   25  C   UNK     0     153.075 148.750 145.120  0.00  0.00    -0.036 A 
HETATM   26  C   UNK     0     153.773 149.080 143.969  0.00  0.00     0.011 A 
HETATM   27  C   UNK     0     154.264 148.063 143.150  0.00  0.00     0.001 A 
HETATM   28  C   UNK     0     154.050 146.728 143.494  0.00  0.00     0.000 A 
HETATM   29  C   UNK     0     153.347 146.411 144.656  0.00  0.00     0.001 A 
HETATM   30  C   UNK     0     152.856 147.428 145.474  0.00  0.00     0.011 A 
ENDBRANCH  24  25
ENDBRANCH  22  23
ENDBRANCH  21  22
ENDBRANCH   6  21
BRANCH   3  31
HETATM   31  O   UNK     0     151.611 155.268 152.730  0.00  0.00    -0.390 OA
HETATM   32  H   UNK     0     150.786 154.767 152.858  0.00  0.00     0.210 HD
ENDBRANCH   3  31
BRANCH   5  33
HETATM   33  O   UNK     0     153.704 151.046 151.836  0.00  0.00    -0.388 OA
HETATM   34  H   UNK     0     154.177 151.124 152.682  0.00  0.00     0.210 HD
ENDBRANCH   5  33
BRANCH   4  35
HETATM   35  O   UNK     0     153.839 153.548 153.386  0.00  0.00    -0.390 OA
HETATM   36  H   UNK     0     153.348 153.732 154.205  0.00  0.00     0.210 HD
ENDBRANCH   4  35
TORSDOF 13
ENDMDL
