REMARK VINA RESULT:      -6.6      4.354      6.877
REMARK  6 active torsions:
REMARK  status: ('A' for Active; 'I' for Inactive)
REMARK    1  A    between atoms: O_2  and  C_9 
REMARK    2  A    between atoms: O_4  and  C_14 
REMARK    3  A    between atoms: O_5  and  C_19 
REMARK    4  A    between atoms: O_6  and  C_20 
REMARK    5  A    between atoms: O_7  and  C_22 
REMARK    6  A    between atoms: C_8  and  C_10 
ROOT
HETATM    1  O   UNK     0     185.554 187.544 171.673  0.00  0.00    -0.337 OA
HETATM    2  O   UNK     0     182.001 186.216 170.107  0.00  0.00    -0.289 OA
HETATM    3  C   UNK     0     184.696 186.663 172.414  0.00  0.00     0.198 C 
HETATM    4  C   UNK     0     183.923 185.729 171.483  0.00  0.00     0.227 C 
HETATM    5  C   UNK     0     183.096 186.565 170.532  0.00  0.00     0.196 C 
HETATM    6  C   UNK     0     183.710 187.837 170.103  0.00  0.00     0.079 A 
HETATM    7  C   UNK     0     184.912 188.245 170.687  0.00  0.00     0.089 A 
HETATM    8  C   UNK     0     183.112 188.611 169.105  0.00  0.00     0.085 A 
HETATM    9  C   UNK     0     185.534 189.413 170.245  0.00  0.00     0.074 A 
HETATM   10  C   UNK     0     183.729 189.787 168.681  0.00  0.00     0.074 A 
HETATM   11  C   UNK     0     184.941 190.185 169.245  0.00  0.00     0.071 A 
ENDROOT
BRANCH   3  12
HETATM   12  C   UNK     0     185.573 185.893 173.383  0.00  0.00    -0.023 A 
HETATM   13  C   UNK     0     185.578 186.233 174.734  0.00  0.00     0.049 A 
HETATM   14  C   UNK     0     186.384 185.525 175.627  0.00  0.00     0.099 A 
HETATM   15  C   UNK     0     187.183 184.480 175.165  0.00  0.00     0.098 A 
HETATM   16  C   UNK     0     187.176 184.141 173.812  0.00  0.00     0.040 A 
HETATM   17  C   UNK     0     186.371 184.849 172.920  0.00  0.00     0.013 A 
BRANCH  14  18
HETATM   18  O   UNK     0     186.382 185.864 176.946  0.00  0.00    -0.358 OA
HETATM   19  H   UNK     0     185.463 186.036 177.216  0.00  0.00     0.217 HD
ENDBRANCH  14  18
BRANCH  15  20
HETATM   20  O   UNK     0     187.974 183.780 176.027  0.00  0.00    -0.358 OA
HETATM   21  H   UNK     0     188.610 183.251 175.514  0.00  0.00     0.217 HD
ENDBRANCH  15  20
ENDBRANCH   3  12
BRANCH   4  22
HETATM   22  O   UNK     0     183.041 184.911 172.233  0.00  0.00    -0.385 OA
HETATM   23  H   UNK     0     183.583 184.349 172.812  0.00  0.00     0.210 HD
ENDBRANCH   4  22
BRANCH   8  24
HETATM   24  O   UNK     0     181.939 188.261 168.505  0.00  0.00    -0.360 OA
HETATM   25  H   UNK     0     181.891 187.301 168.382  0.00  0.00     0.217 HD
ENDBRANCH   8  24
BRANCH  11  26
HETATM   26  O   UNK     0     185.544 191.330 168.823  0.00  0.00    -0.361 OA
HETATM   27  H   UNK     0     186.379 191.446 169.310  0.00  0.00     0.217 HD
ENDBRANCH  11  26
TORSDOF 6
