REMARK VINA RESULT:      -6.5      4.237      6.969
REMARK  6 active torsions:
REMARK  status: ('A' for Active; 'I' for Inactive)
REMARK    1  A    between atoms: O_2  and  C_9 
REMARK    2  A    between atoms: O_4  and  C_14 
REMARK    3  A    between atoms: O_5  and  C_19 
REMARK    4  A    between atoms: O_6  and  C_20 
REMARK    5  A    between atoms: O_7  and  C_22 
REMARK    6  A    between atoms: C_8  and  C_10 
ROOT
HETATM    1  O   UNK     0     186.457 183.860 170.429  0.00  0.00    -0.337 OA
HETATM    2  O   UNK     0     189.707 186.329 170.865  0.00  0.00    -0.289 OA
HETATM    3  C   UNK     0     187.065 184.072 171.712  0.00  0.00     0.198 C 
HETATM    4  C   UNK     0     187.660 185.477 171.820  0.00  0.00     0.227 C 
HETATM    5  C   UNK     0     188.695 185.651 170.730  0.00  0.00     0.196 C 
HETATM    6  C   UNK     0     188.395 184.975 169.452  0.00  0.00     0.079 A 
HETATM    7  C   UNK     0     187.284 184.132 169.372  0.00  0.00     0.089 A 
HETATM    8  C   UNK     0     189.195 185.198 168.329  0.00  0.00     0.085 A 
HETATM    9  C   UNK     0     186.954 183.538 168.152  0.00  0.00     0.074 A 
HETATM   10  C   UNK     0     188.871 184.587 167.118  0.00  0.00     0.074 A 
HETATM   11  C   UNK     0     187.750 183.762 167.028  0.00  0.00     0.071 A 
ENDROOT
BRANCH   3  12
HETATM   12  C   UNK     0     185.996 183.832 172.761  0.00  0.00    -0.023 A 
HETATM   13  C   UNK     0     186.261 182.997 173.844  0.00  0.00     0.049 A 
HETATM   14  C   UNK     0     185.278 182.776 174.809  0.00  0.00     0.099 A 
HETATM   15  C   UNK     0     184.032 183.390 174.687  0.00  0.00     0.098 A 
HETATM   16  C   UNK     0     183.768 184.226 173.602  0.00  0.00     0.040 A 
HETATM   17  C   UNK     0     184.751 184.447 172.638  0.00  0.00     0.013 A 
BRANCH  14  18
HETATM   18  O   UNK     0     185.546 181.958 175.864  0.00  0.00    -0.358 OA
HETATM   19  H   UNK     0     185.587 181.042 175.539  0.00  0.00     0.217 HD
ENDBRANCH  14  18
BRANCH  15  20
HETATM   20  O   UNK     0     183.063 183.183 175.624  0.00  0.00    -0.358 OA
HETATM   21  H   UNK     0     182.855 182.233 175.659  0.00  0.00     0.217 HD
ENDBRANCH  15  20
ENDBRANCH   3  12
BRANCH   4  22
HETATM   22  O   UNK     0     188.305 185.641 173.071  0.00  0.00    -0.385 OA
HETATM   23  H   UNK     0     188.320 186.592 173.270  0.00  0.00     0.210 HD
ENDBRANCH   4  22
BRANCH   8  24
HETATM   24  O   UNK     0     190.291 186.008 168.354  0.00  0.00    -0.360 OA
HETATM   25  H   UNK     0     190.280 186.574 169.140  0.00  0.00     0.217 HD
ENDBRANCH   8  24
BRANCH  11  26
HETATM   26  O   UNK     0     187.432 183.173 165.843  0.00  0.00    -0.361 OA
HETATM   27  H   UNK     0     186.463 183.143 165.754  0.00  0.00     0.217 HD
ENDBRANCH  11  26
TORSDOF 6
