MODEL 1
REMARK VINA RESULT:      -8.2      0.000      0.000
REMARK  Name = 9823887
REMARK                            x       y       z     vdW  Elec       q    Type
REMARK                         _______ _______ _______ _____ _____    ______ ____
ROOT
ATOM      1  O   LIG    1      152.824 155.528 151.840  0.00  0.00    -0.341 OA
ATOM      2  C   LIG    1      153.124 154.167 152.142  0.00  0.00    +0.282 C 
ATOM      3  C   LIG    1      154.547 153.822 151.703  0.00  0.00    +0.201 C 
ATOM      4  C   LIG    1      155.564 154.798 152.294  0.00  0.00    +0.179 C 
ATOM      5  C   LIG    1      155.125 156.247 152.089  0.00  0.00    +0.177 C 
ATOM     22  C   LIG    1      153.673 156.443 152.533  0.00  0.00    +0.178 C 
ENDROOT
BRANCH   5   6
ATOM      6  O   LIG    1      155.971 157.108 152.848  0.00  0.00    -0.386 OA
ATOM      7  H   LIG    1      156.887 156.799 152.740  0.00  0.00    +0.210 HD
ENDBRANCH   5   6
BRANCH   4   8
ATOM      8  O   LIG    1      156.825 154.622 151.646  0.00  0.00    -0.386 OA
ATOM      9  H   LIG    1      157.480 155.144 152.138  0.00  0.00    +0.210 HD
ENDBRANCH   4   8
BRANCH   3  10
ATOM     10  O   LIG    1      154.844 152.499 152.148  0.00  0.00    -0.384 OA
ATOM     11  H   LIG    1      154.071 151.939 151.966  0.00  0.00    +0.210 HD
ENDBRANCH   3  10
BRANCH   2  12
ATOM     12  O   LIG    1      152.226 153.308 151.441  0.00  0.00    -0.345 OA
BRANCH  12  13
ATOM     13  C   LIG    1      152.152 153.650 150.066  0.00  0.00    +0.190 C 
BRANCH  13  14
ATOM     14  C   LIG    1      152.192 152.394 149.255  0.00  0.00    +0.001 C 
ATOM     15  C   LIG    1      151.746 152.319 147.992  0.00  0.00    +0.006 C 
BRANCH  15  16
ATOM     16  C   LIG    1      151.778 151.110 147.151  0.00  0.00    -0.025 A 
ATOM     17  C   LIG    1      152.990 150.482 146.910  0.00  0.00    +0.008 A 
ATOM     18  C   LIG    1      153.020 149.337 146.114  0.00  0.00    +0.001 A 
ATOM     19  C   LIG    1      151.839 148.836 145.568  0.00  0.00    +0.000 A 
ATOM     20  C   LIG    1      150.626 149.478 145.819  0.00  0.00    +0.001 A 
ATOM     21  C   LIG    1      150.596 150.623 146.615  0.00  0.00    +0.008 A 
ENDBRANCH  15  16
ENDBRANCH  13  14
ENDBRANCH  12  13
ENDBRANCH   2  12
BRANCH  22  23
ATOM     23  C   LIG    1      153.175 157.853 152.230  0.00  0.00    +0.197 C 
BRANCH  23  24
ATOM     24  O   LIG    1      154.119 158.494 151.391  0.00  0.00    -0.346 OA
BRANCH  24  25
ATOM     25  C   LIG    1      153.564 158.812 150.119  0.00  0.00    +0.281 C 
ATOM     26  C   LIG    1      154.068 160.188 149.658  0.00  0.00    +0.201 C 
ATOM     27  C   LIG    1      155.529 160.142 149.197  0.00  0.00    +0.178 C 
ATOM     28  C   LIG    1      155.736 158.987 148.216  0.00  0.00    +0.171 C 
ATOM     29  C   LIG    1      155.217 157.682 148.807  0.00  0.00    +0.197 C 
ATOM     36  O   LIG    1      153.837 157.798 149.145  0.00  0.00    -0.346 OA
BRANCH  28  30
ATOM     30  O   LIG    1      157.114 158.871 147.892  0.00  0.00    -0.387 OA
ATOM     31  H   LIG    1      157.339 159.608 147.299  0.00  0.00    +0.210 HD
ENDBRANCH  28  30
BRANCH  27  32
ATOM     32  O   LIG    1      156.380 159.960 150.327  0.00  0.00    -0.386 OA
ATOM     33  H   LIG    1      155.943 159.329 150.925  0.00  0.00    +0.210 HD
ENDBRANCH  27  32
BRANCH  26  34
ATOM     34  O   LIG    1      153.245 160.619 148.577  0.00  0.00    -0.384 OA
ATOM     35  H   LIG    1      152.656 161.322 148.899  0.00  0.00    +0.210 HD
ENDBRANCH  26  34
ENDBRANCH  24  25
ENDBRANCH  23  24
ENDBRANCH  22  23
TORSDOF 13
ENDMDL
MODEL 2
REMARK VINA RESULT:      -8.0      2.930      4.217
REMARK  Name = 9823887
REMARK                            x       y       z     vdW  Elec       q    Type
REMARK                         _______ _______ _______ _____ _____    ______ ____
ROOT
ATOM      1  O   LIG    1      152.991 156.060 151.183  0.00  0.00    -0.341 OA
ATOM      2  C   LIG    1      153.098 154.669 151.479  0.00  0.00    +0.282 C 
ATOM      3  C   LIG    1      154.554 154.211 151.380  0.00  0.00    +0.201 C 
ATOM      4  C   LIG    1      155.469 155.074 152.249  0.00  0.00    +0.179 C 
ATOM      5  C   LIG    1      155.211 156.562 152.017  0.00  0.00    +0.177 C 
ATOM     22  C   LIG    1      153.715 156.875 152.106  0.00  0.00    +0.178 C 
ENDROOT
BRANCH   5   6
ATOM      6  O   LIG    1      155.911 157.321 153.000  0.00  0.00    -0.386 OA
ATOM      7  H   LIG    1      155.259 157.657 153.639  0.00  0.00    +0.210 HD
ENDBRANCH   5   6
BRANCH   4   8
ATOM      8  O   LIG    1      156.832 154.805 151.916  0.00  0.00    -0.386 OA
ATOM      9  H   LIG    1      157.193 155.605 151.498  0.00  0.00    +0.210 HD
ENDBRANCH   4   8
BRANCH   3  10
ATOM     10  O   LIG    1      154.626 152.854 151.817  0.00  0.00    -0.384 OA
ATOM     11  H   LIG    1      155.281 152.395 151.264  0.00  0.00    +0.210 HD
ENDBRANCH   3  10
BRANCH   2  12
ATOM     12  O   LIG    1      152.334 153.916 150.540  0.00  0.00    -0.345 OA
BRANCH  12  13
ATOM     13  C   LIG    1      151.078 153.538 151.079  0.00  0.00    +0.190 C 
BRANCH  13  14
ATOM     14  C   LIG    1      150.011 154.372 150.446  0.00  0.00    +0.001 C 
ATOM     15  C   LIG    1      148.852 154.670 151.052  0.00  0.00    +0.006 C 
BRANCH  15  16
ATOM     16  C   LIG    1      147.780 155.499 150.473  0.00  0.00    -0.025 A 
ATOM     17  C   LIG    1      147.909 156.878 150.480  0.00  0.00    +0.008 A 
ATOM     18  C   LIG    1      146.894 157.662 149.932  0.00  0.00    +0.001 A 
ATOM     19  C   LIG    1      145.762 157.057 149.386  0.00  0.00    +0.000 A 
ATOM     20  C   LIG    1      145.646 155.667 149.386  0.00  0.00    +0.001 A 
ATOM     21  C   LIG    1      146.661 154.883 149.934  0.00  0.00    +0.008 A 
ENDBRANCH  15  16
ENDBRANCH  13  14
ENDBRANCH  12  13
ENDBRANCH   2  12
BRANCH  22  23
ATOM     23  C   LIG    1      153.421 158.332 151.764  0.00  0.00    +0.197 C 
BRANCH  23  24
ATOM     24  O   LIG    1      154.368 158.770 150.807  0.00  0.00    -0.346 OA
BRANCH  24  25
ATOM     25  C   LIG    1      153.746 159.163 149.589  0.00  0.00    +0.281 C 
ATOM     26  C   LIG    1      154.075 160.633 149.283  0.00  0.00    +0.201 C 
ATOM     27  C   LIG    1      155.518 160.811 148.800  0.00  0.00    +0.178 C 
ATOM     28  C   LIG    1      155.829 159.807 147.688  0.00  0.00    +0.171 C 
ATOM     29  C   LIG    1      155.480 158.392 148.131  0.00  0.00    +0.197 C 
ATOM     36  O   LIG    1      154.106 158.305 148.500  0.00  0.00    -0.346 OA
BRANCH  28  30
ATOM     30  O   LIG    1      157.202 159.891 147.333  0.00  0.00    -0.387 OA
ATOM     31  H   LIG    1      157.584 160.647 147.811  0.00  0.00    +0.210 HD
ENDBRANCH  28  30
BRANCH  27  32
ATOM     32  O   LIG    1      156.416 160.603 149.888  0.00  0.00    -0.386 OA
ATOM     33  H   LIG    1      156.000 160.972 150.686  0.00  0.00    +0.210 HD
ENDBRANCH  27  32
BRANCH  26  34
ATOM     34  O   LIG    1      153.178 161.084 148.271  0.00  0.00    -0.384 OA
ATOM     35  H   LIG    1      153.335 160.563 147.466  0.00  0.00    +0.210 HD
ENDBRANCH  26  34
ENDBRANCH  24  25
ENDBRANCH  23  24
ENDBRANCH  22  23
TORSDOF 13
ENDMDL
MODEL 3
REMARK VINA RESULT:      -8.0      1.506      1.863
REMARK  Name = 9823887
REMARK                            x       y       z     vdW  Elec       q    Type
REMARK                         _______ _______ _______ _____ _____    ______ ____
ROOT
ATOM      1  O   LIG    1      153.528 155.615 150.193  0.00  0.00    -0.341 OA
ATOM      2  C   LIG    1      154.022 154.315 150.508  0.00  0.00    +0.282 C 
ATOM      3  C   LIG    1      155.327 154.415 151.299  0.00  0.00    +0.201 C 
ATOM      4  C   LIG    1      155.163 155.302 152.533  0.00  0.00    +0.179 C 
ATOM      5  C   LIG    1      154.484 156.624 152.178  0.00  0.00    +0.177 C 
ATOM     22  C   LIG    1      153.215 156.380 151.357  0.00  0.00    +0.178 C 
ENDROOT
BRANCH   5   6
ATOM      6  O   LIG    1      154.144 157.316 153.377  0.00  0.00    -0.386 OA
ATOM      7  H   LIG    1      154.577 158.187 153.354  0.00  0.00    +0.210 HD
ENDBRANCH   5   6
BRANCH   4   8
ATOM      8  O   LIG    1      156.449 155.599 153.079  0.00  0.00    -0.386 OA
ATOM      9  H   LIG    1      156.407 155.425 154.035  0.00  0.00    +0.210 HD
ENDBRANCH   4   8
BRANCH   3  10
ATOM     10  O   LIG    1      155.705 153.101 151.706  0.00  0.00    -0.384 OA
ATOM     11  H   LIG    1      156.577 153.156 152.132  0.00  0.00    +0.210 HD
ENDBRANCH   3  10
BRANCH   2  12
ATOM     12  O   LIG    1      154.289 153.596 149.306  0.00  0.00    -0.345 OA
BRANCH  12  13
ATOM     13  C   LIG    1      153.124 152.950 148.819  0.00  0.00    +0.190 C 
BRANCH  13  14
ATOM     14  C   LIG    1      153.418 152.377 147.470  0.00  0.00    +0.001 C 
ATOM     15  C   LIG    1      153.386 151.061 147.206  0.00  0.00    +0.006 C 
BRANCH  15  16
ATOM     16  C   LIG    1      153.653 150.453 145.891  0.00  0.00    -0.025 A 
ATOM     17  C   LIG    1      153.961 151.269 144.815  0.00  0.00    +0.008 A 
ATOM     18  C   LIG    1      154.215 150.692 143.571  0.00  0.00    +0.001 A 
ATOM     19  C   LIG    1      154.156 149.307 143.418  0.00  0.00    +0.000 A 
ATOM     20  C   LIG    1      153.845 148.498 144.511  0.00  0.00    +0.001 A 
ATOM     21  C   LIG    1      153.592 149.075 145.755  0.00  0.00    +0.008 A 
ENDBRANCH  15  16
ENDBRANCH  13  14
ENDBRANCH  12  13
ENDBRANCH   2  12
BRANCH  22  23
ATOM     23  C   LIG    1      152.582 157.688 150.893  0.00  0.00    +0.197 C 
BRANCH  23  24
ATOM     24  O   LIG    1      153.617 158.606 150.588  0.00  0.00    -0.346 OA
BRANCH  24  25
ATOM     25  C   LIG    1      153.387 159.269 149.349  0.00  0.00    +0.281 C 
ATOM     26  C   LIG    1      154.196 160.574 149.297  0.00  0.00    +0.201 C 
ATOM     27  C   LIG    1      155.690 160.318 149.076  0.00  0.00    +0.178 C 
ATOM     28  C   LIG    1      155.892 159.355 147.905  0.00  0.00    +0.171 C 
ATOM     29  C   LIG    1      155.055 158.096 148.095  0.00  0.00    +0.197 C 
ATOM     36  O   LIG    1      153.674 158.426 148.228  0.00  0.00    -0.346 OA
BRANCH  28  30
ATOM     30  O   LIG    1      157.268 159.022 147.786  0.00  0.00    -0.387 OA
ATOM     31  H   LIG    1      157.611 159.470 146.994  0.00  0.00    +0.210 HD
ENDBRANCH  28  30
BRANCH  27  32
ATOM     32  O   LIG    1      156.257 159.751 150.256  0.00  0.00    -0.386 OA
ATOM     33  H   LIG    1      155.558 159.720 150.931  0.00  0.00    +0.210 HD
ENDBRANCH  27  32
BRANCH  26  34
ATOM     34  O   LIG    1      153.688 161.365 148.225  0.00  0.00    -0.384 OA
ATOM     35  H   LIG    1      152.719 161.299 148.225  0.00  0.00    +0.210 HD
ENDBRANCH  26  34
ENDBRANCH  24  25
ENDBRANCH  23  24
ENDBRANCH  22  23
TORSDOF 13
ENDMDL
MODEL 4
REMARK VINA RESULT:      -8.0      2.399      4.562
REMARK  Name = 9823887
REMARK                            x       y       z     vdW  Elec       q    Type
REMARK                         _______ _______ _______ _____ _____    ______ ____
ROOT
ATOM      1  O   LIG    1      152.378 154.813 148.361  0.00  0.00    -0.341 OA
ATOM      2  C   LIG    1      151.689 153.692 147.811  0.00  0.00    +0.282 C 
ATOM      3  C   LIG    1      151.413 152.650 148.895  0.00  0.00    +0.201 C 
ATOM      4  C   LIG    1      150.684 153.266 150.088  0.00  0.00    +0.179 C 
ATOM      5  C   LIG    1      151.364 154.555 150.548  0.00  0.00    +0.177 C 
ATOM     22  C   LIG    1      151.615 155.489 149.361  0.00  0.00    +0.178 C 
ENDROOT
BRANCH   5   6
ATOM      6  O   LIG    1      150.533 155.214 151.500  0.00  0.00    -0.386 OA
ATOM      7  H   LIG    1      150.002 154.537 151.954  0.00  0.00    +0.210 HD
ENDBRANCH   5   6
BRANCH   4   8
ATOM      8  O   LIG    1      150.697 152.346 151.181  0.00  0.00    -0.386 OA
ATOM      9  H   LIG    1      151.526 151.842 151.127  0.00  0.00    +0.210 HD
ENDBRANCH   4   8
BRANCH   3  10
ATOM     10  O   LIG    1      150.606 151.618 148.327  0.00  0.00    -0.384 OA
ATOM     11  H   LIG    1      149.697 151.953 148.253  0.00  0.00    +0.210 HD
ENDBRANCH   3  10
BRANCH   2  12
ATOM     12  O   LIG    1      152.491 153.080 146.804  0.00  0.00    -0.345 OA
BRANCH  12  13
ATOM     13  C   LIG    1      153.693 152.557 147.347  0.00  0.00    +0.190 C 
BRANCH  13  14
ATOM     14  C   LIG    1      154.058 151.314 146.602  0.00  0.00    +0.001 C 
ATOM     15  C   LIG    1      153.222 150.687 145.759  0.00  0.00    +0.006 C 
BRANCH  15  16
ATOM     16  C   LIG    1      153.542 149.470 144.993  0.00  0.00    -0.025 A 
ATOM     17  C   LIG    1      154.079 149.590 143.721  0.00  0.00    +0.008 A 
ATOM     18  C   LIG    1      154.382 148.437 142.997  0.00  0.00    +0.001 A 
ATOM     19  C   LIG    1      154.144 147.181 143.553  0.00  0.00    +0.000 A 
ATOM     20  C   LIG    1      153.603 147.076 144.834  0.00  0.00    +0.001 A 
ATOM     21  C   LIG    1      153.300 148.228 145.559  0.00  0.00    +0.008 A 
ENDBRANCH  15  16
ENDBRANCH  13  14
ENDBRANCH  12  13
ENDBRANCH   2  12
BRANCH  22  23
ATOM     23  C   LIG    1      152.398 156.732 149.776  0.00  0.00    +0.197 C 
BRANCH  23  24
ATOM     24  O   LIG    1      152.913 156.525 151.079  0.00  0.00    -0.346 OA
BRANCH  24  25
ATOM     25  C   LIG    1      154.297 156.850 151.157  0.00  0.00    +0.281 C 
ATOM     26  C   LIG    1      154.812 156.605 152.584  0.00  0.00    +0.201 C 
ATOM     27  C   LIG    1      154.973 155.112 152.890  0.00  0.00    +0.178 C 
ATOM     28  C   LIG    1      155.750 154.425 151.767  0.00  0.00    +0.171 C 
ATOM     29  C   LIG    1      155.121 154.729 150.414  0.00  0.00    +0.197 C 
ATOM     36  O   LIG    1      155.072 156.136 150.187  0.00  0.00    -0.346 OA
BRANCH  28  30
ATOM     30  O   LIG    1      155.786 153.022 151.993  0.00  0.00    -0.387 OA
ATOM     31  H   LIG    1      154.999 152.636 151.570  0.00  0.00    +0.210 HD
ENDBRANCH  28  30
BRANCH  27  32
ATOM     32  O   LIG    1      153.686 154.508 153.011  0.00  0.00    -0.386 OA
ATOM     33  H   LIG    1      153.557 153.937 152.234  0.00  0.00    +0.210 HD
ENDBRANCH  27  32
BRANCH  26  34
ATOM     34  O   LIG    1      156.076 157.252 152.713  0.00  0.00    -0.384 OA
ATOM     35  H   LIG    1      155.924 158.205 152.829  0.00  0.00    +0.210 HD
ENDBRANCH  26  34
ENDBRANCH  24  25
ENDBRANCH  23  24
ENDBRANCH  22  23
TORSDOF 13
ENDMDL
MODEL 5
REMARK VINA RESULT:      -8.0      3.572      6.689
REMARK  Name = 9823887
REMARK                            x       y       z     vdW  Elec       q    Type
REMARK                         _______ _______ _______ _____ _____    ______ ____
ROOT
ATOM      1  O   LIG    1      153.131 156.371 150.912  0.00  0.00    -0.341 OA
ATOM      2  C   LIG    1      153.306 157.682 150.380  0.00  0.00    +0.282 C 
ATOM      3  C   LIG    1      153.866 158.622 151.448  0.00  0.00    +0.201 C 
ATOM      4  C   LIG    1      155.144 158.060 152.070  0.00  0.00    +0.179 C 
ATOM      5  C   LIG    1      154.963 156.600 152.482  0.00  0.00    +0.177 C 
ATOM     22  C   LIG    1      154.362 155.782 151.337  0.00  0.00    +0.178 C 
ENDROOT
BRANCH   5   6
ATOM      6  O   LIG    1      156.229 156.051 152.840  0.00  0.00    -0.386 OA
ATOM      7  H   LIG    1      156.842 156.789 152.998  0.00  0.00    +0.210 HD
ENDBRANCH   5   6
BRANCH   4   8
ATOM      8  O   LIG    1      155.474 158.812 153.239  0.00  0.00    -0.386 OA
ATOM      9  H   LIG    1      155.987 159.587 152.952  0.00  0.00    +0.210 HD
ENDBRANCH   4   8
BRANCH   3  10
ATOM     10  O   LIG    1      154.151 159.878 150.832  0.00  0.00    -0.384 OA
ATOM     11  H   LIG    1      154.997 160.202 151.184  0.00  0.00    +0.210 HD
ENDBRANCH   3  10
BRANCH   2  12
ATOM     12  O   LIG    1      152.049 158.200 149.952  0.00  0.00    -0.345 OA
BRANCH  12  13
ATOM     13  C   LIG    1      151.124 158.267 151.026  0.00  0.00    +0.190 C 
BRANCH  13  14
ATOM     14  C   LIG    1      149.899 157.495 150.656  0.00  0.00    +0.001 C 
ATOM     15  C   LIG    1      148.714 158.070 150.400  0.00  0.00    +0.006 C 
BRANCH  15  16
ATOM     16  C   LIG    1      147.486 157.352 150.018  0.00  0.00    -0.025 A 
ATOM     17  C   LIG    1      146.407 158.067 149.524  0.00  0.00    +0.008 A 
ATOM     18  C   LIG    1      145.245 157.386 149.163  0.00  0.00    +0.001 A 
ATOM     19  C   LIG    1      145.175 156.000 149.301  0.00  0.00    +0.000 A 
ATOM     20  C   LIG    1      146.269 155.294 149.800  0.00  0.00    +0.001 A 
ATOM     21  C   LIG    1      147.432 155.975 150.162  0.00  0.00    +0.008 A 
ENDBRANCH  15  16
ENDBRANCH  13  14
ENDBRANCH  12  13
ENDBRANCH   2  12
BRANCH  22  23
ATOM     23  C   LIG    1      154.064 154.348 151.762  0.00  0.00    +0.197 C 
BRANCH  23  24
ATOM     24  O   LIG    1      153.881 153.561 150.599  0.00  0.00    -0.346 OA
BRANCH  24  25
ATOM     25  C   LIG    1      152.854 152.591 150.773  0.00  0.00    +0.281 C 
ATOM     26  C   LIG    1      151.480 153.279 150.782  0.00  0.00    +0.201 C 
ATOM     27  C   LIG    1      151.051 153.727 149.381  0.00  0.00    +0.178 C 
ATOM     28  C   LIG    1      151.222 152.578 148.385  0.00  0.00    +0.171 C 
ATOM     29  C   LIG    1      152.632 152.006 148.463  0.00  0.00    +0.197 C 
ATOM     36  O   LIG    1      152.919 151.557 149.785  0.00  0.00    -0.346 OA
BRANCH  28  30
ATOM     30  O   LIG    1      150.945 153.036 147.069  0.00  0.00    -0.387 OA
ATOM     31  H   LIG    1      151.771 153.397 146.703  0.00  0.00    +0.210 HD
ENDBRANCH  28  30
BRANCH  27  32
ATOM     32  O   LIG    1      151.852 154.833 148.967  0.00  0.00    -0.386 OA
ATOM     33  H   LIG    1      151.292 155.628 148.999  0.00  0.00    +0.210 HD
ENDBRANCH  27  32
BRANCH  26  34
ATOM     34  O   LIG    1      150.526 152.351 151.294  0.00  0.00    -0.384 OA
ATOM     35  H   LIG    1      150.654 152.276 152.254  0.00  0.00    +0.210 HD
ENDBRANCH  26  34
ENDBRANCH  24  25
ENDBRANCH  23  24
ENDBRANCH  22  23
TORSDOF 13
ENDMDL
MODEL 6
REMARK VINA RESULT:      -8.0      3.514      6.223
REMARK  Name = 9823887
REMARK                            x       y       z     vdW  Elec       q    Type
REMARK                         _______ _______ _______ _____ _____    ______ ____
ROOT
ATOM      1  O   LIG    1      150.852 152.285 147.776  0.00  0.00    -0.341 OA
ATOM      2  C   LIG    1      150.866 150.932 147.326  0.00  0.00    +0.282 C 
ATOM      3  C   LIG    1      152.055 150.689 146.396  0.00  0.00    +0.201 C 
ATOM      4  C   LIG    1      153.370 151.108 147.051  0.00  0.00    +0.179 C 
ATOM      5  C   LIG    1      153.264 152.505 147.662  0.00  0.00    +0.177 C 
ATOM     22  C   LIG    1      152.013 152.622 148.537  0.00  0.00    +0.178 C 
ENDROOT
BRANCH   5   6
ATOM      6  O   LIG    1      154.420 152.762 148.455  0.00  0.00    -0.386 OA
ATOM      7  H   LIG    1      155.134 153.048 147.859  0.00  0.00    +0.210 HD
ENDBRANCH   5   6
BRANCH   4   8
ATOM      8  O   LIG    1      154.405 151.134 146.067  0.00  0.00    -0.386 OA
ATOM      9  H   LIG    1      154.521 152.059 145.791  0.00  0.00    +0.210 HD
ENDBRANCH   4   8
BRANCH   3  10
ATOM     10  O   LIG    1      152.102 149.296 146.085  0.00  0.00    -0.384 OA
ATOM     11  H   LIG    1      152.978 149.100 145.714  0.00  0.00    +0.210 HD
ENDBRANCH   3  10
BRANCH   2  12
ATOM     12  O   LIG    1      149.672 150.654 146.598  0.00  0.00    -0.345 OA
BRANCH  12  13
ATOM     13  C   LIG    1      149.424 151.645 145.613  0.00  0.00    +0.190 C 
BRANCH  13  14
ATOM     14  C   LIG    1      149.040 150.969 144.336  0.00  0.00    +0.001 C 
ATOM     15  C   LIG    1      148.007 150.120 144.233  0.00  0.00    +0.006 C 
BRANCH  15  16
ATOM     16  C   LIG    1      147.583 149.443 142.995  0.00  0.00    -0.025 A 
ATOM     17  C   LIG    1      146.312 149.675 142.495  0.00  0.00    +0.008 A 
ATOM     18  C   LIG    1      145.911 149.035 141.323  0.00  0.00    +0.001 A 
ATOM     19  C   LIG    1      146.786 148.171 140.666  0.00  0.00    +0.000 A 
ATOM     20  C   LIG    1      148.063 147.947 141.180  0.00  0.00    +0.001 A 
ATOM     21  C   LIG    1      148.464 148.587 142.353  0.00  0.00    +0.008 A 
ENDBRANCH  15  16
ENDBRANCH  13  14
ENDBRANCH  12  13
ENDBRANCH   2  12
BRANCH  22  23
ATOM     23  C   LIG    1      151.823 154.041 149.064  0.00  0.00    +0.197 C 
BRANCH  23  24
ATOM     24  O   LIG    1      152.969 154.401 149.813  0.00  0.00    -0.346 OA
BRANCH  24  25
ATOM     25  C   LIG    1      152.790 154.158 151.204  0.00  0.00    +0.281 C 
ATOM     26  C   LIG    1      153.976 153.348 151.750  0.00  0.00    +0.201 C 
ATOM     27  C   LIG    1      155.241 154.201 151.891  0.00  0.00    +0.178 C 
ATOM     28  C   LIG    1      154.919 155.503 152.627  0.00  0.00    +0.171 C 
ATOM     29  C   LIG    1      153.744 156.216 151.969  0.00  0.00    +0.197 C 
ATOM     36  O   LIG    1      152.596 155.371 151.940  0.00  0.00    -0.346 OA
BRANCH  28  30
ATOM     30  O   LIG    1      156.063 156.345 152.642  0.00  0.00    -0.387 OA
ATOM     31  H   LIG    1      155.766 157.242 152.871  0.00  0.00    +0.210 HD
ENDBRANCH  28  30
BRANCH  27  32
ATOM     32  O   LIG    1      155.757 154.507 150.596  0.00  0.00    -0.386 OA
ATOM     33  H   LIG    1      156.542 155.069 150.719  0.00  0.00    +0.210 HD
ENDBRANCH  27  32
BRANCH  26  34
ATOM     34  O   LIG    1      153.608 152.835 153.028  0.00  0.00    -0.384 OA
ATOM     35  H   LIG    1      154.388 152.861 153.607  0.00  0.00    +0.210 HD
ENDBRANCH  26  34
ENDBRANCH  24  25
ENDBRANCH  23  24
ENDBRANCH  22  23
TORSDOF 13
ENDMDL
MODEL 7
REMARK VINA RESULT:      -7.9      3.851      5.534
REMARK  Name = 9823887
REMARK                            x       y       z     vdW  Elec       q    Type
REMARK                         _______ _______ _______ _____ _____    ______ ____
ROOT
ATOM      1  O   LIG    1      152.626 156.808 151.511  0.00  0.00    -0.341 OA
ATOM      2  C   LIG    1      152.179 155.686 152.269  0.00  0.00    +0.282 C 
ATOM      3  C   LIG    1      153.273 154.621 152.345  0.00  0.00    +0.201 C 
ATOM      4  C   LIG    1      154.584 155.206 152.871  0.00  0.00    +0.179 C 
ATOM      5  C   LIG    1      154.947 156.497 152.138  0.00  0.00    +0.177 C 
ATOM     22  C   LIG    1      153.754 157.455 152.102  0.00  0.00    +0.178 C 
ENDROOT
BRANCH   5   6
ATOM      6  O   LIG    1      156.038 157.127 152.805  0.00  0.00    -0.386 OA
ATOM      7  H   LIG    1      156.070 156.786 153.716  0.00  0.00    +0.210 HD
ENDBRANCH   5   6
BRANCH   4   8
ATOM      8  O   LIG    1      155.641 154.268 152.662  0.00  0.00    -0.386 OA
ATOM      9  H   LIG    1      155.578 153.958 151.742  0.00  0.00    +0.210 HD
ENDBRANCH   4   8
BRANCH   3  10
ATOM     10  O   LIG    1      152.830 153.586 153.223  0.00  0.00    -0.384 OA
ATOM     11  H   LIG    1      151.928 153.336 152.963  0.00  0.00    +0.210 HD
ENDBRANCH   3  10
BRANCH   2  12
ATOM     12  O   LIG    1      151.039 155.103 151.640  0.00  0.00    -0.345 OA
BRANCH  12  13
ATOM     13  C   LIG    1      151.102 155.237 150.230  0.00  0.00    +0.190 C 
BRANCH  13  14
ATOM     14  C   LIG    1      149.758 155.656 149.725  0.00  0.00    +0.001 C 
ATOM     15  C   LIG    1      148.748 156.017 150.532  0.00  0.00    +0.006 C 
BRANCH  15  16
ATOM     16  C   LIG    1      147.415 156.450 150.080  0.00  0.00    -0.025 A 
ATOM     17  C   LIG    1      146.448 155.496 149.803  0.00  0.00    +0.008 A 
ATOM     18  C   LIG    1      145.186 155.907 149.376  0.00  0.00    +0.001 A 
ATOM     19  C   LIG    1      144.906 157.266 149.231  0.00  0.00    +0.000 A 
ATOM     20  C   LIG    1      145.888 158.214 149.513  0.00  0.00    +0.001 A 
ATOM     21  C   LIG    1      147.151 157.803 149.941  0.00  0.00    +0.008 A 
ENDBRANCH  15  16
ENDBRANCH  13  14
ENDBRANCH  12  13
ENDBRANCH   2  12
BRANCH  22  23
ATOM     23  C   LIG    1      154.055 158.702 151.276  0.00  0.00    +0.197 C 
BRANCH  23  24
ATOM     24  O   LIG    1      153.150 159.723 151.656  0.00  0.00    -0.346 OA
BRANCH  24  25
ATOM     25  C   LIG    1      152.800 160.555 150.555  0.00  0.00    +0.281 C 
ATOM     26  C   LIG    1      151.796 159.826 149.648  0.00  0.00    +0.201 C 
ATOM     27  C   LIG    1      150.396 159.768 150.268  0.00  0.00    +0.178 C 
ATOM     28  C   LIG    1      149.978 161.157 150.754  0.00  0.00    +0.171 C 
ATOM     29  C   LIG    1      151.047 161.753 151.661  0.00  0.00    +0.197 C 
ATOM     36  O   LIG    1      152.298 161.827 150.981  0.00  0.00    -0.346 OA
BRANCH  28  30
ATOM     30  O   LIG    1      148.736 161.074 151.440  0.00  0.00    -0.387 OA
ATOM     31  H   LIG    1      148.163 161.780 151.095  0.00  0.00    +0.210 HD
ENDBRANCH  28  30
BRANCH  27  32
ATOM     32  O   LIG    1      150.399 158.863 151.371  0.00  0.00    -0.386 OA
ATOM     33  H   LIG    1      149.760 159.197 152.024  0.00  0.00    +0.210 HD
ENDBRANCH  27  32
BRANCH  26  34
ATOM     34  O   LIG    1      151.735 160.525 148.407  0.00  0.00    -0.384 OA
ATOM     35  H   LIG    1      150.944 161.089 148.410  0.00  0.00    +0.210 HD
ENDBRANCH  26  34
ENDBRANCH  24  25
ENDBRANCH  23  24
ENDBRANCH  22  23
TORSDOF 13
ENDMDL
MODEL 8
REMARK VINA RESULT:      -7.8      3.500      6.759
REMARK  Name = 9823887
REMARK                            x       y       z     vdW  Elec       q    Type
REMARK                         _______ _______ _______ _____ _____    ______ ____
ROOT
ATOM      1  O   LIG    1      153.064 158.091 149.324  0.00  0.00    -0.341 OA
ATOM      2  C   LIG    1      152.850 159.497 149.227  0.00  0.00    +0.282 C 
ATOM      3  C   LIG    1      153.963 160.259 149.947  0.00  0.00    +0.201 C 
ATOM      4  C   LIG    1      155.343 159.834 149.446  0.00  0.00    +0.179 C 
ATOM      5  C   LIG    1      155.476 158.313 149.414  0.00  0.00    +0.177 C 
ATOM     22  C   LIG    1      154.281 157.677 148.700  0.00  0.00    +0.178 C 
ENDROOT
BRANCH   5   6
ATOM      6  O   LIG    1      156.676 157.958 148.731  0.00  0.00    -0.386 OA
ATOM      7  H   LIG    1      157.307 157.618 149.390  0.00  0.00    +0.210 HD
ENDBRANCH   5   6
BRANCH   4   8
ATOM      8  O   LIG    1      156.346 160.347 150.324  0.00  0.00    -0.386 OA
ATOM      9  H   LIG    1      155.905 160.604 151.151  0.00  0.00    +0.210 HD
ENDBRANCH   4   8
BRANCH   3  10
ATOM     10  O   LIG    1      153.779 161.653 149.706  0.00  0.00    -0.384 OA
ATOM     11  H   LIG    1      153.875 162.121 150.552  0.00  0.00    +0.210 HD
ENDBRANCH   3  10
BRANCH   2  12
ATOM     12  O   LIG    1      151.611 159.839 149.844  0.00  0.00    -0.345 OA
BRANCH  12  13
ATOM     13  C   LIG    1      151.382 159.064 151.010  0.00  0.00    +0.190 C 
BRANCH  13  14
ATOM     14  C   LIG    1      150.194 158.186 150.779  0.00  0.00    +0.001 C 
ATOM     15  C   LIG    1      149.046 158.626 150.241  0.00  0.00    +0.006 C 
BRANCH  15  16
ATOM     16  C   LIG    1      147.857 157.796 149.982  0.00  0.00    -0.025 A 
ATOM     17  C   LIG    1      146.721 158.384 149.450  0.00  0.00    +0.008 A 
ATOM     18  C   LIG    1      145.596 157.598 149.205  0.00  0.00    +0.001 A 
ATOM     19  C   LIG    1      145.620 156.234 149.496  0.00  0.00    +0.000 A 
ATOM     20  C   LIG    1      146.770 155.656 150.031  0.00  0.00    +0.001 A 
ATOM     21  C   LIG    1      147.896 156.442 150.276  0.00  0.00    +0.008 A 
ENDBRANCH  15  16
ENDBRANCH  13  14
ENDBRANCH  12  13
ENDBRANCH   2  12
BRANCH  22  23
ATOM     23  C   LIG    1      154.333 156.153 148.757  0.00  0.00    +0.197 C 
BRANCH  23  24
ATOM     24  O   LIG    1      155.177 155.771 149.828  0.00  0.00    -0.346 OA
BRANCH  24  25
ATOM     25  C   LIG    1      154.760 154.544 150.418  0.00  0.00    +0.281 C 
ATOM     26  C   LIG    1      155.720 154.156 151.552  0.00  0.00    +0.201 C 
ATOM     27  C   LIG    1      155.517 155.021 152.801  0.00  0.00    +0.178 C 
ATOM     28  C   LIG    1      154.033 155.078 153.166  0.00  0.00    +0.171 C 
ATOM     29  C   LIG    1      153.199 155.498 151.962  0.00  0.00    +0.197 C 
ATOM     36  O   LIG    1      153.403 154.601 150.872  0.00  0.00    -0.346 OA
BRANCH  28  30
ATOM     30  O   LIG    1      153.835 155.981 154.245  0.00  0.00    -0.387 OA
ATOM     31  H   LIG    1      154.553 155.835 154.885  0.00  0.00    +0.210 HD
ENDBRANCH  28  30
BRANCH  27  32
ATOM     32  O   LIG    1      155.991 156.343 152.549  0.00  0.00    -0.386 OA
ATOM     33  H   LIG    1      156.147 156.767 153.410  0.00  0.00    +0.210 HD
ENDBRANCH  27  32
BRANCH  26  34
ATOM     34  O   LIG    1      155.485 152.790 151.881  0.00  0.00    -0.384 OA
ATOM     35  H   LIG    1      154.526 152.651 151.952  0.00  0.00    +0.210 HD
ENDBRANCH  26  34
ENDBRANCH  24  25
ENDBRANCH  23  24
ENDBRANCH  22  23
TORSDOF 13
ENDMDL
MODEL 9
REMARK VINA RESULT:      -7.8      5.271      7.721
REMARK  Name = 9823887
REMARK                            x       y       z     vdW  Elec       q    Type
REMARK                         _______ _______ _______ _____ _____    ______ ____
ROOT
ATOM      1  O   LIG    1      148.829 157.056 149.254  0.00  0.00    -0.341 OA
ATOM      2  C   LIG    1      147.420 157.252 149.348  0.00  0.00    +0.282 C 
ATOM      3  C   LIG    1      146.682 155.927 149.160  0.00  0.00    +0.201 C 
ATOM      4  C   LIG    1      147.197 154.860 150.126  0.00  0.00    +0.179 C 
ATOM      5  C   LIG    1      148.724 154.792 150.111  0.00  0.00    +0.177 C 
ATOM     22  C   LIG    1      149.332 156.188 150.270  0.00  0.00    +0.178 C 
ENDROOT
BRANCH   5   6
ATOM      6  O   LIG    1      149.169 153.959 151.179  0.00  0.00    -0.386 OA
ATOM      7  H   LIG    1      150.142 153.986 151.194  0.00  0.00    +0.210 HD
ENDBRANCH   5   6
BRANCH   4   8
ATOM      8  O   LIG    1      146.694 153.581 149.735  0.00  0.00    -0.386 OA
ATOM      9  H   LIG    1      146.975 153.426 148.817  0.00  0.00    +0.210 HD
ENDBRANCH   4   8
BRANCH   3  10
ATOM     10  O   LIG    1      145.292 156.151 149.399  0.00  0.00    -0.384 OA
ATOM     11  H   LIG    1      144.859 156.296 148.542  0.00  0.00    +0.210 HD
ENDBRANCH   3  10
BRANCH   2  12
ATOM     12  O   LIG    1      146.988 158.147 148.325  0.00  0.00    -0.345 OA
BRANCH  12  13
ATOM     13  C   LIG    1      147.029 157.530 147.048  0.00  0.00    +0.190 C 
BRANCH  13  14
ATOM     14  C   LIG    1      147.805 158.404 146.116  0.00  0.00    +0.001 C 
ATOM     15  C   LIG    1      148.425 157.945 145.018  0.00  0.00    +0.006 C 
BRANCH  15  16
ATOM     16  C   LIG    1      149.187 158.769 144.065  0.00  0.00    -0.025 A 
ATOM     17  C   LIG    1      149.885 158.152 143.039  0.00  0.00    +0.008 A 
ATOM     18  C   LIG    1      150.606 158.933 142.137  0.00  0.00    +0.001 A 
ATOM     19  C   LIG    1      150.622 160.321 142.272  0.00  0.00    +0.000 A 
ATOM     20  C   LIG    1      149.915 160.929 143.310  0.00  0.00    +0.001 A 
ATOM     21  C   LIG    1      149.194 160.147 144.212  0.00  0.00    +0.008 A 
ENDBRANCH  15  16
ENDBRANCH  13  14
ENDBRANCH  12  13
ENDBRANCH   2  12
BRANCH  22  23
ATOM     23  C   LIG    1      150.852 156.160 150.142  0.00  0.00    +0.197 C 
BRANCH  23  24
ATOM     24  O   LIG    1      151.393 155.587 151.318  0.00  0.00    -0.346 OA
BRANCH  24  25
ATOM     25  C   LIG    1      152.544 156.292 151.769  0.00  0.00    +0.281 C 
ATOM     26  C   LIG    1      152.953 155.792 153.163  0.00  0.00    +0.201 C 
ATOM     27  C   LIG    1      153.613 154.410 153.108  0.00  0.00    +0.178 C 
ATOM     28  C   LIG    1      154.707 154.391 152.039  0.00  0.00    +0.171 C 
ATOM     29  C   LIG    1      154.163 154.886 150.705  0.00  0.00    +0.197 C 
ATOM     36  O   LIG    1      153.628 156.201 150.837  0.00  0.00    -0.346 OA
BRANCH  28  30
ATOM     30  O   LIG    1      155.228 153.077 151.905  0.00  0.00    -0.387 OA
ATOM     31  H   LIG    1      155.036 152.599 152.730  0.00  0.00    +0.210 HD
ENDBRANCH  28  30
BRANCH  27  32
ATOM     32  O   LIG    1      152.632 153.423 152.795  0.00  0.00    -0.386 OA
ATOM     33  H   LIG    1      152.422 153.509 151.849  0.00  0.00    +0.210 HD
ENDBRANCH  27  32
BRANCH  26  34
ATOM     34  O   LIG    1      153.869 156.732 153.718  0.00  0.00    -0.384 OA
ATOM     35  H   LIG    1      154.199 157.300 153.002  0.00  0.00    +0.210 HD
ENDBRANCH  26  34
ENDBRANCH  24  25
ENDBRANCH  23  24
ENDBRANCH  22  23
TORSDOF 13
ENDMDL
MODEL 10
REMARK VINA RESULT:      -7.8      2.011      2.913
REMARK  Name = 9823887
REMARK                            x       y       z     vdW  Elec       q    Type
REMARK                         _______ _______ _______ _____ _____    ______ ____
ROOT
ATOM      1  O   LIG    1      152.879 155.265 150.721  0.00  0.00    -0.341 OA
ATOM      2  C   LIG    1      152.636 154.101 149.933  0.00  0.00    +0.282 C 
ATOM      3  C   LIG    1      153.518 152.944 150.403  0.00  0.00    +0.201 C 
ATOM      4  C   LIG    1      153.352 152.690 151.900  0.00  0.00    +0.179 C 
ATOM      5  C   LIG    1      153.461 153.989 152.698  0.00  0.00    +0.177 C 
ATOM     22  C   LIG    1      152.559 155.071 152.099  0.00  0.00    +0.178 C 
ENDROOT
BRANCH   5   6
ATOM      6  O   LIG    1      153.076 153.747 154.048  0.00  0.00    -0.386 OA
ATOM      7  H   LIG    1      152.286 154.284 154.235  0.00  0.00    +0.210 HD
ENDBRANCH   5   6
BRANCH   4   8
ATOM      8  O   LIG    1      154.383 151.808 152.350  0.00  0.00    -0.386 OA
ATOM      9  H   LIG    1      154.823 151.448 151.561  0.00  0.00    +0.210 HD
ENDBRANCH   4   8
BRANCH   3  10
ATOM     10  O   LIG    1      153.141 151.773 149.678  0.00  0.00    -0.384 OA
ATOM     11  H   LIG    1      153.823 151.601 149.008  0.00  0.00    +0.210 HD
ENDBRANCH   3  10
BRANCH   2  12
ATOM     12  O   LIG    1      152.950 154.369 148.568  0.00  0.00    -0.345 OA
BRANCH  12  13
ATOM     13  C   LIG    1      151.778 154.615 147.807  0.00  0.00    +0.190 C 
BRANCH  13  14
ATOM     14  C   LIG    1      151.705 153.614 146.698  0.00  0.00    +0.001 C 
ATOM     15  C   LIG    1      152.774 153.219 145.990  0.00  0.00    +0.006 C 
BRANCH  15  16
ATOM     16  C   LIG    1      152.753 152.227 144.901  0.00  0.00    -0.025 A 
ATOM     17  C   LIG    1      153.920 151.959 144.204  0.00  0.00    +0.008 A 
ATOM     18  C   LIG    1      153.898 151.019 143.174  0.00  0.00    +0.001 A 
ATOM     19  C   LIG    1      152.711 150.362 142.853  0.00  0.00    +0.000 A 
ATOM     20  C   LIG    1      151.544 150.643 143.563  0.00  0.00    +0.001 A 
ATOM     21  C   LIG    1      151.565 151.582 144.594  0.00  0.00    +0.008 A 
ENDBRANCH  15  16
ENDBRANCH  13  14
ENDBRANCH  12  13
ENDBRANCH   2  12
BRANCH  22  23
ATOM     23  C   LIG    1      152.737 156.411 152.807  0.00  0.00    +0.197 C 
BRANCH  23  24
ATOM     24  O   LIG    1      152.655 157.444 151.842  0.00  0.00    -0.346 OA
BRANCH  24  25
ATOM     25  C   LIG    1      153.626 158.459 152.072  0.00  0.00    +0.281 C 
ATOM     26  C   LIG    1      154.940 158.096 151.363  0.00  0.00    +0.201 C 
ATOM     27  C   LIG    1      154.849 158.290 149.845  0.00  0.00    +0.178 C 
ATOM     28  C   LIG    1      154.270 159.670 149.525  0.00  0.00    +0.171 C 
ATOM     29  C   LIG    1      152.961 159.889 150.271  0.00  0.00    +0.197 C 
ATOM     36  O   LIG    1      153.154 159.753 151.677  0.00  0.00    -0.346 OA
BRANCH  28  30
ATOM     30  O   LIG    1      154.070 159.795 148.124  0.00  0.00    -0.387 OA
ATOM     31  H   LIG    1      154.323 160.699 147.871  0.00  0.00    +0.210 HD
ENDBRANCH  28  30
BRANCH  27  32
ATOM     32  O   LIG    1      154.007 157.284 149.285  0.00  0.00    -0.386 OA
ATOM     33  H   LIG    1      153.328 157.734 148.753  0.00  0.00    +0.210 HD
ENDBRANCH  27  32
BRANCH  26  34
ATOM     34  O   LIG    1      155.969 158.933 151.885  0.00  0.00    -0.384 OA
ATOM     35  H   LIG    1      155.960 158.863 152.854  0.00  0.00    +0.210 HD
ENDBRANCH  26  34
ENDBRANCH  24  25
ENDBRANCH  23  24
ENDBRANCH  22  23
TORSDOF 13
ENDMDL
