MODEL 1
REMARK VINA RESULT:      -4.5      0.000      0.000
REMARK  12 active torsions:
REMARK  status: ('A' for Active; 'I' for Inactive)
REMARK    1  A    between atoms: O_1  and  C_10 
REMARK    2  A    between atoms: O_2  and  C_17 
REMARK    3  A    between atoms: O_3  and  C_20 
REMARK    4  A    between atoms: O_4  and  C_27 
REMARK    5  A    between atoms: O_6  and  C_29 
REMARK    6  A    between atoms: O_7  and  C_28 
REMARK    7  A    between atoms: O_8  and  C_33 
REMARK    8  A    between atoms: C_11  and  C_20 
REMARK    9  A    between atoms: C_20  and  C_28 
REMARK   10  A    between atoms: C_28  and  C_31 
REMARK   11  A    between atoms: C_31  and  C_32 
REMARK   12  A    between atoms: C_32  and  C_33 
ROOT
HETATM    1  O   UNK     0     -13.423  14.693  15.099  0.00  0.00    -0.384 OA
HETATM    2  H   UNK     0     -13.218  13.747  15.098  0.00  0.00     0.211 HD
ENDROOT
BRANCH   1   3
HETATM    3  C   UNK     0     -14.763  14.937  15.584  0.00  0.00     0.090 C 
HETATM    4  C   UNK     0     -15.603  13.639  15.466  0.00  0.00    -0.000 C 
HETATM    5  C   UNK     0     -15.625  13.448  13.926  0.00  0.00     0.034 C 
HETATM    6  C   UNK     0     -14.880  12.517  16.224  0.00  0.00     0.045 C 
HETATM    7  C   UNK     0     -17.046  13.796  16.022  0.00  0.00     0.019 C 
HETATM    8  C   UNK     0     -15.796  14.885  13.380  0.00  0.00     0.012 C 
HETATM    9  C   UNK     0     -15.419  15.843  14.532  0.00  0.00     0.044 C 
HETATM   10  C   UNK     0     -14.664  12.886  17.706  0.00  0.00     0.128 C 
HETATM   11  C   UNK     0     -13.972  14.281  17.938  0.00  0.00     0.055 C 
HETATM   12  C   UNK     0     -13.876  14.705  19.470  0.00  0.00    -0.021 C 
HETATM   13  C   UNK     0     -14.607  15.356  17.032  0.00  0.00    -0.034 C 
HETATM   14  C   UNK     0     -13.601  16.232  19.590  0.00  0.00     0.071 C 
HETATM   15  C   UNK     0     -12.748  13.904  20.220  0.00  0.00     0.045 C 
HETATM   16  C   UNK     0     -15.214  14.412  20.204  0.00  0.00     0.017 C 
HETATM   17  C   UNK     0     -12.192  16.681  19.161  0.00  0.00     0.047 C 
HETATM   18  C   UNK     0     -14.624  17.033  18.812  0.00  0.00     0.154 C 
HETATM   19  C   UNK     0     -11.115  15.625  19.384  0.00  0.00     0.147 C 
HETATM   20  C   UNK     0     -11.468  14.687  20.530  0.00  0.00     0.147 C 
HETATM   21  O   UNK     0     -15.108  18.074  19.251  0.00  0.00    -0.293 OA
HETATM   22  C   UNK     0     -14.959  16.581  17.448  0.00  0.00     0.057 C 
BRANCH   5  23
HETATM   23  C   UNK     0     -16.662  12.479  13.375  0.00  0.00     0.084 C 
HETATM   24  C   UNK     0     -18.076  12.988  13.698  0.00  0.00     0.049 C 
BRANCH  23  25
HETATM   25  O   UNK     0     -16.535  12.444  11.947  0.00  0.00    -0.387 OA
HETATM   26  H   UNK     0     -16.757  13.319  11.590  0.00  0.00     0.210 HD
ENDBRANCH  23  25
BRANCH  23  27
HETATM   27  C   UNK     0     -16.462  11.037  13.915  0.00  0.00     0.152 C 
BRANCH  27  28
HETATM   28  O   UNK     0     -15.132  10.596  13.624  0.00  0.00    -0.393 OA
HETATM   29  H   UNK     0     -15.155  10.150  12.760  0.00  0.00     0.210 HD
ENDBRANCH  27  28
BRANCH  27  30
HETATM   30  C   UNK     0     -17.451  10.004  13.341  0.00  0.00     0.037 C 
BRANCH  30  31
HETATM   31  C   UNK     0     -16.729   8.780  12.749  0.00  0.00     0.040 C 
BRANCH  31  32
HETATM   32  C   UNK     0     -16.504   8.844  11.224  0.00  0.00     0.051 C 
HETATM   33  C   UNK     0     -16.174   7.445  10.694  0.00  0.00     0.045 C 
HETATM   34  C   UNK     0     -17.713   9.413  10.476  0.00  0.00     0.045 C 
BRANCH  32  35
HETATM   35  O   UNK     0     -15.378   9.687  10.970  0.00  0.00    -0.391 OA
HETATM   36  H   UNK     0     -15.608  10.596  11.223  0.00  0.00     0.210 HD
ENDBRANCH  32  35
ENDBRANCH  31  32
ENDBRANCH  30  31
ENDBRANCH  27  30
ENDBRANCH  23  27
ENDBRANCH   5  23
BRANCH  10  37
HETATM   37  O   UNK     0     -13.892  11.841  18.291  0.00  0.00    -0.395 OA
HETATM   38  H   UNK     0     -12.958  12.007  18.078  0.00  0.00     0.210 HD
ENDBRANCH  10  37
BRANCH  19  39
HETATM   39  O   UNK     0      -9.877  16.280  19.641  0.00  0.00    -0.393 OA
HETATM   40  H   UNK     0      -9.396  15.770  20.314  0.00  0.00     0.210 HD
ENDBRANCH  19  39
BRANCH  20  41
HETATM   41  O   UNK     0     -11.657  15.427  21.738  0.00  0.00    -0.393 OA
HETATM   42  H   UNK     0     -11.333  16.330  21.583  0.00  0.00     0.210 HD
ENDBRANCH  20  41
ENDBRANCH   1   3
TORSDOF 12
ENDMDL
MODEL 2
REMARK VINA RESULT:      -4.5      9.017     16.338
REMARK  12 active torsions:
REMARK  status: ('A' for Active; 'I' for Inactive)
REMARK    1  A    between atoms: O_1  and  C_10 
REMARK    2  A    between atoms: O_2  and  C_17 
REMARK    3  A    between atoms: O_3  and  C_20 
REMARK    4  A    between atoms: O_4  and  C_27 
REMARK    5  A    between atoms: O_6  and  C_29 
REMARK    6  A    between atoms: O_7  and  C_28 
REMARK    7  A    between atoms: O_8  and  C_33 
REMARK    8  A    between atoms: C_11  and  C_20 
REMARK    9  A    between atoms: C_20  and  C_28 
REMARK   10  A    between atoms: C_28  and  C_31 
REMARK   11  A    between atoms: C_31  and  C_32 
REMARK   12  A    between atoms: C_32  and  C_33 
ROOT
HETATM    1  O   UNK     0     -10.461   5.533   5.300  0.00  0.00    -0.384 OA
HETATM    2  H   UNK     0      -9.705   5.610   4.700  0.00  0.00     0.211 HD
ENDROOT
BRANCH   1   3
HETATM    3  C   UNK     0     -11.124   4.258   5.145  0.00  0.00     0.090 C 
HETATM    4  C   UNK     0     -12.581   4.364   5.664  0.00  0.00    -0.000 C 
HETATM    5  C   UNK     0     -12.333   4.651   7.168  0.00  0.00     0.034 C 
HETATM    6  C   UNK     0     -13.284   5.506   4.918  0.00  0.00     0.045 C 
HETATM    7  C   UNK     0     -13.389   3.049   5.480  0.00  0.00     0.019 C 
HETATM    8  C   UNK     0     -11.136   3.738   7.524  0.00  0.00     0.012 C 
HETATM    9  C   UNK     0     -10.478   3.333   6.186  0.00  0.00     0.044 C 
HETATM   10  C   UNK     0     -13.270   5.277   3.392  0.00  0.00     0.128 C 
HETATM   11  C   UNK     0     -11.847   4.981   2.789  0.00  0.00     0.055 C 
HETATM   12  C   UNK     0     -11.867   4.617   1.239  0.00  0.00    -0.021 C 
HETATM   13  C   UNK     0     -11.094   3.955   3.661  0.00  0.00    -0.034 C 
HETATM   14  C   UNK     0     -10.534   3.924   0.830  0.00  0.00     0.071 C 
HETATM   15  C   UNK     0     -12.093   5.895   0.350  0.00  0.00     0.045 C 
HETATM   16  C   UNK     0     -13.024   3.627   0.924  0.00  0.00     0.017 C 
HETATM   17  C   UNK     0      -9.297   4.840   0.812  0.00  0.00     0.047 C 
HETATM   18  C   UNK     0     -10.244   2.733   1.720  0.00  0.00     0.154 C 
HETATM   19  C   UNK     0      -9.613   6.294   0.477  0.00  0.00     0.147 C 
HETATM   20  C   UNK     0     -10.858   6.419  -0.390  0.00  0.00     0.147 C 
HETATM   21  O   UNK     0      -9.796   1.679   1.273  0.00  0.00    -0.293 OA
HETATM   22  C   UNK     0     -10.421   2.902   3.175  0.00  0.00     0.057 C 
BRANCH   5  23
HETATM   23  C   UNK     0     -13.520   4.460   8.103  0.00  0.00     0.084 C 
HETATM   24  C   UNK     0     -14.012   3.006   8.031  0.00  0.00     0.049 C 
BRANCH  23  25
HETATM   25  O   UNK     0     -13.081   4.698   9.446  0.00  0.00    -0.387 OA
HETATM   26  H   UNK     0     -13.835   4.588  10.049  0.00  0.00     0.210 HD
ENDBRANCH  23  25
BRANCH  23  27
HETATM   27  C   UNK     0     -14.677   5.447   7.790  0.00  0.00     0.152 C 
BRANCH  27  28
HETATM   28  O   UNK     0     -14.224   6.792   7.975  0.00  0.00    -0.393 OA
HETATM   29  H   UNK     0     -14.889   7.380   7.578  0.00  0.00     0.210 HD
ENDBRANCH  27  28
BRANCH  27  30
HETATM   30  C   UNK     0     -15.938   5.238   8.651  0.00  0.00     0.037 C 
BRANCH  30  31
HETATM   31  C   UNK     0     -16.251   6.466   9.524  0.00  0.00     0.040 C 
BRANCH  31  32
HETATM   32  C   UNK     0     -15.795   6.342  10.993  0.00  0.00     0.051 C 
HETATM   33  C   UNK     0     -16.559   7.352  11.855  0.00  0.00     0.045 C 
HETATM   34  C   UNK     0     -15.991   4.929  11.550  0.00  0.00     0.045 C 
BRANCH  32  35
HETATM   35  O   UNK     0     -14.405   6.667  11.062  0.00  0.00    -0.391 OA
HETATM   36  H   UNK     0     -14.312   7.634  11.060  0.00  0.00     0.210 HD
ENDBRANCH  32  35
ENDBRANCH  31  32
ENDBRANCH  30  31
ENDBRANCH  27  30
ENDBRANCH  23  27
ENDBRANCH   5  23
BRANCH  10  37
HETATM   37  O   UNK     0     -13.840   6.434   2.788  0.00  0.00    -0.395 OA
HETATM   38  H   UNK     0     -14.249   6.159   1.950  0.00  0.00     0.210 HD
ENDBRANCH  10  37
BRANCH  19  39
HETATM   39  O   UNK     0      -8.488   6.867  -0.182  0.00  0.00    -0.393 OA
HETATM   40  H   UNK     0      -7.790   6.192  -0.237  0.00  0.00     0.210 HD
ENDBRANCH  19  39
BRANCH  20  41
HETATM   41  O   UNK     0     -10.695   5.683  -1.603  0.00  0.00    -0.393 OA
HETATM   42  H   UNK     0      -9.743   5.540  -1.735  0.00  0.00     0.210 HD
ENDBRANCH  20  41
ENDBRANCH   1   3
TORSDOF 12
ENDMDL
MODEL 3
REMARK VINA RESULT:      -4.4      2.420      9.158
REMARK  12 active torsions:
REMARK  status: ('A' for Active; 'I' for Inactive)
REMARK    1  A    between atoms: O_1  and  C_10 
REMARK    2  A    between atoms: O_2  and  C_17 
REMARK    3  A    between atoms: O_3  and  C_20 
REMARK    4  A    between atoms: O_4  and  C_27 
REMARK    5  A    between atoms: O_6  and  C_29 
REMARK    6  A    between atoms: O_7  and  C_28 
REMARK    7  A    between atoms: O_8  and  C_33 
REMARK    8  A    between atoms: C_11  and  C_20 
REMARK    9  A    between atoms: C_20  and  C_28 
REMARK   10  A    between atoms: C_28  and  C_31 
REMARK   11  A    between atoms: C_31  and  C_32 
REMARK   12  A    between atoms: C_32  and  C_33 
ROOT
HETATM    1  O   UNK     0     -15.360  11.398  13.256  0.00  0.00    -0.384 OA
HETATM    2  H   UNK     0     -15.347  10.454  13.469  0.00  0.00     0.211 HD
ENDROOT
BRANCH   1   3
HETATM    3  C   UNK     0     -16.544  12.037  13.784  0.00  0.00     0.090 C 
HETATM    4  C   UNK     0     -16.149  13.355  14.499  0.00  0.00    -0.000 C 
HETATM    5  C   UNK     0     -15.284  12.804  15.663  0.00  0.00     0.034 C 
HETATM    6  C   UNK     0     -15.377  14.236  13.508  0.00  0.00     0.045 C 
HETATM    7  C   UNK     0     -17.374  14.140  15.047  0.00  0.00     0.019 C 
HETATM    8  C   UNK     0     -16.037  11.530  16.110  0.00  0.00     0.012 C 
HETATM    9  C   UNK     0     -16.995  11.156  14.958  0.00  0.00     0.044 C 
HETATM   10  C   UNK     0     -16.214  14.537  12.248  0.00  0.00     0.128 C 
HETATM   11  C   UNK     0     -16.814  13.264  11.543  0.00  0.00     0.055 C 
HETATM   12  C   UNK     0     -17.783  13.599  10.324  0.00  0.00    -0.021 C 
HETATM   13  C   UNK     0     -17.433  12.311  12.587  0.00  0.00    -0.034 C 
HETATM   14  C   UNK     0     -18.659  12.361   9.976  0.00  0.00     0.071 C 
HETATM   15  C   UNK     0     -16.973  14.049   9.053  0.00  0.00     0.045 C 
HETATM   16  C   UNK     0     -18.745  14.763  10.693  0.00  0.00     0.017 C 
HETATM   17  C   UNK     0     -17.906  11.186   9.326  0.00  0.00     0.047 C 
HETATM   18  C   UNK     0     -19.393  11.851  11.198  0.00  0.00     0.154 C 
HETATM   19  C   UNK     0     -16.703  11.613   8.491  0.00  0.00     0.147 C 
HETATM   20  C   UNK     0     -16.873  13.016   7.926  0.00  0.00     0.147 C 
HETATM   21  O   UNK     0     -20.562  11.473  11.147  0.00  0.00    -0.293 OA
HETATM   22  C   UNK     0     -18.630  11.722  12.455  0.00  0.00     0.057 C 
BRANCH   5  23
HETATM   23  C   UNK     0     -15.002  13.760  16.814  0.00  0.00     0.084 C 
HETATM   24  C   UNK     0     -16.211  13.804  17.762  0.00  0.00     0.049 C 
BRANCH  23  25
HETATM   25  O   UNK     0     -13.889  13.253  17.561  0.00  0.00    -0.387 OA
HETATM   26  H   UNK     0     -13.178  13.015  16.944  0.00  0.00     0.210 HD
ENDBRANCH  23  25
BRANCH  23  27
HETATM   27  C   UNK     0     -14.643  15.187  16.317  0.00  0.00     0.152 C 
BRANCH  27  28
HETATM   28  O   UNK     0     -13.295  15.202  15.837  0.00  0.00    -0.393 OA
HETATM   29  H   UNK     0     -12.711  15.288  16.610  0.00  0.00     0.210 HD
ENDBRANCH  27  28
BRANCH  27  30
HETATM   30  C   UNK     0     -14.788  16.285  17.389  0.00  0.00     0.037 C 
BRANCH  30  31
HETATM   31  C   UNK     0     -13.433  16.918  17.754  0.00  0.00     0.040 C 
BRANCH  31  32
HETATM   32  C   UNK     0     -12.747  16.295  18.988  0.00  0.00     0.051 C 
HETATM   33  C   UNK     0     -11.817  17.328  19.634  0.00  0.00     0.045 C 
HETATM   34  C   UNK     0     -13.754  15.783  20.022  0.00  0.00     0.045 C 
BRANCH  32  35
HETATM   35  O   UNK     0     -11.947  15.195  18.552  0.00  0.00    -0.391 OA
HETATM   36  H   UNK     0     -12.529  14.526  18.155  0.00  0.00     0.210 HD
ENDBRANCH  32  35
ENDBRANCH  31  32
ENDBRANCH  30  31
ENDBRANCH  27  30
ENDBRANCH  23  27
ENDBRANCH   5  23
BRANCH  10  37
HETATM   37  O   UNK     0     -15.377  15.259  11.350  0.00  0.00    -0.395 OA
HETATM   38  H   UNK     0     -15.952  15.754  10.741  0.00  0.00     0.210 HD
ENDBRANCH  10  37
BRANCH  19  39
HETATM   39  O   UNK     0     -16.520  10.671   7.438  0.00  0.00    -0.393 OA
HETATM   40  H   UNK     0     -15.610  10.332   7.487  0.00  0.00     0.210 HD
ENDBRANCH  19  39
BRANCH  20  41
HETATM   41  O   UNK     0     -18.052  13.089   7.122  0.00  0.00    -0.393 OA
HETATM   42  H   UNK     0     -18.388  12.184   7.010  0.00  0.00     0.210 HD
ENDBRANCH  20  41
ENDBRANCH   1   3
TORSDOF 12
ENDMDL
MODEL 4
REMARK VINA RESULT:      -4.3      9.636     13.632
REMARK  12 active torsions:
REMARK  status: ('A' for Active; 'I' for Inactive)
REMARK    1  A    between atoms: O_1  and  C_10 
REMARK    2  A    between atoms: O_2  and  C_17 
REMARK    3  A    between atoms: O_3  and  C_20 
REMARK    4  A    between atoms: O_4  and  C_27 
REMARK    5  A    between atoms: O_6  and  C_29 
REMARK    6  A    between atoms: O_7  and  C_28 
REMARK    7  A    between atoms: O_8  and  C_33 
REMARK    8  A    between atoms: C_11  and  C_20 
REMARK    9  A    between atoms: C_20  and  C_28 
REMARK   10  A    between atoms: C_28  and  C_31 
REMARK   11  A    between atoms: C_31  and  C_32 
REMARK   12  A    between atoms: C_32  and  C_33 
ROOT
HETATM    1  O   UNK     0     -13.733   6.149   7.744  0.00  0.00    -0.384 OA
HETATM    2  H   UNK     0     -14.481   6.714   7.506  0.00  0.00     0.211 HD
ENDROOT
BRANCH   1   3
HETATM    3  C   UNK     0     -14.000   4.765   7.425  0.00  0.00     0.090 C 
HETATM    4  C   UNK     0     -12.857   4.205   6.539  0.00  0.00    -0.000 C 
HETATM    5  C   UNK     0     -13.020   5.081   5.269  0.00  0.00     0.034 C 
HETATM    6  C   UNK     0     -11.525   4.411   7.273  0.00  0.00     0.045 C 
HETATM    7  C   UNK     0     -13.035   2.700   6.197  0.00  0.00     0.019 C 
HETATM    8  C   UNK     0     -14.552   5.191   5.092  0.00  0.00     0.012 C 
HETATM    9  C   UNK     0     -15.182   4.793   6.445  0.00  0.00     0.044 C 
HETATM   10  C   UNK     0     -11.527   3.718   8.652  0.00  0.00     0.128 C 
HETATM   11  C   UNK     0     -12.754   4.086   9.566  0.00  0.00     0.055 C 
HETATM   12  C   UNK     0     -12.812   3.264  10.929  0.00  0.00    -0.021 C 
HETATM   13  C   UNK     0     -14.066   4.040   8.754  0.00  0.00    -0.034 C 
HETATM   14  C   UNK     0     -14.236   3.351  11.551  0.00  0.00     0.071 C 
HETATM   15  C   UNK     0     -11.750   3.790  11.964  0.00  0.00     0.045 C 
HETATM   16  C   UNK     0     -12.503   1.762  10.675  0.00  0.00     0.017 C 
HETATM   17  C   UNK     0     -14.621   4.727  12.122  0.00  0.00     0.047 C 
HETATM   18  C   UNK     0     -15.294   2.926  10.553  0.00  0.00     0.154 C 
HETATM   19  C   UNK     0     -13.435   5.526  12.651  0.00  0.00     0.147 C 
HETATM   20  C   UNK     0     -12.306   4.621  13.125  0.00  0.00     0.147 C 
HETATM   21  O   UNK     0     -16.254   2.231  10.876  0.00  0.00    -0.293 OA
HETATM   22  C   UNK     0     -15.196   3.458   9.179  0.00  0.00     0.057 C 
BRANCH   5  23
HETATM   23  C   UNK     0     -12.312   4.596   4.012  0.00  0.00     0.084 C 
HETATM   24  C   UNK     0     -13.096   3.428   3.390  0.00  0.00     0.049 C 
BRANCH  23  25
HETATM   25  O   UNK     0     -12.304   5.664   3.056  0.00  0.00    -0.387 OA
HETATM   26  H   UNK     0     -11.966   6.467   3.484  0.00  0.00     0.210 HD
ENDBRANCH  23  25
BRANCH  23  27
HETATM   27  C   UNK     0     -10.841   4.182   4.288  0.00  0.00     0.152 C 
BRANCH  27  28
HETATM   28  O   UNK     0     -10.054   5.351   4.543  0.00  0.00    -0.393 OA
HETATM   29  H   UNK     0     -10.258   5.647   5.446  0.00  0.00     0.210 HD
ENDBRANCH  27  28
BRANCH  27  30
HETATM   30  C   UNK     0     -10.180   3.393   3.142  0.00  0.00     0.037 C 
BRANCH  30  31
HETATM   31  C   UNK     0      -8.982   4.148   2.537  0.00  0.00     0.040 C 
BRANCH  31  32
HETATM   32  C   UNK     0      -9.310   4.952   1.261  0.00  0.00     0.051 C 
HETATM   33  C   UNK     0      -8.035   5.146   0.435  0.00  0.00     0.045 C 
HETATM   34  C   UNK     0     -10.388   4.280   0.406  0.00  0.00     0.045 C 
BRANCH  32  35
HETATM   35  O   UNK     0      -9.782   6.243   1.651  0.00  0.00    -0.391 OA
HETATM   36  H   UNK     0      -9.039   6.869   1.613  0.00  0.00     0.210 HD
ENDBRANCH  32  35
ENDBRANCH  31  32
ENDBRANCH  30  31
ENDBRANCH  27  30
ENDBRANCH  23  27
ENDBRANCH   5  23
BRANCH  10  37
HETATM   37  O   UNK     0     -10.303   4.058   9.295  0.00  0.00    -0.395 OA
HETATM   38  H   UNK     0      -9.678   4.350   8.609  0.00  0.00     0.210 HD
ENDBRANCH  10  37
BRANCH  19  39
HETATM   39  O   UNK     0     -13.883   6.360  13.716  0.00  0.00    -0.393 OA
HETATM   40  H   UNK     0     -14.829   6.539  13.586  0.00  0.00     0.210 HD
ENDBRANCH  19  39
BRANCH  20  41
HETATM   41  O   UNK     0     -12.771   3.739  14.147  0.00  0.00    -0.393 OA
HETATM   42  H   UNK     0     -12.107   3.037  14.255  0.00  0.00     0.210 HD
ENDBRANCH  20  41
ENDBRANCH   1   3
TORSDOF 12
ENDMDL
MODEL 5
REMARK VINA RESULT:      -4.2      5.246     13.457
REMARK  12 active torsions:
REMARK  status: ('A' for Active; 'I' for Inactive)
REMARK    1  A    between atoms: O_1  and  C_10 
REMARK    2  A    between atoms: O_2  and  C_17 
REMARK    3  A    between atoms: O_3  and  C_20 
REMARK    4  A    between atoms: O_4  and  C_27 
REMARK    5  A    between atoms: O_6  and  C_29 
REMARK    6  A    between atoms: O_7  and  C_28 
REMARK    7  A    between atoms: O_8  and  C_33 
REMARK    8  A    between atoms: C_11  and  C_20 
REMARK    9  A    between atoms: C_20  and  C_28 
REMARK   10  A    between atoms: C_28  and  C_31 
REMARK   11  A    between atoms: C_31  and  C_32 
REMARK   12  A    between atoms: C_32  and  C_33 
ROOT
HETATM    1  O   UNK     0     -13.740   6.386   7.745  0.00  0.00    -0.384 OA
HETATM    2  H   UNK     0     -13.593   6.691   6.839  0.00  0.00     0.211 HD
ENDROOT
BRANCH   1   3
HETATM    3  C   UNK     0     -15.050   5.792   7.891  0.00  0.00     0.090 C 
HETATM    4  C   UNK     0     -15.964   6.741   8.709  0.00  0.00    -0.000 C 
HETATM    5  C   UNK     0     -15.230   6.742  10.075  0.00  0.00     0.034 C 
HETATM    6  C   UNK     0     -15.993   8.109   8.014  0.00  0.00     0.045 C 
HETATM    7  C   UNK     0     -17.414   6.205   8.863  0.00  0.00     0.019 C 
HETATM    8  C   UNK     0     -14.783   5.272  10.254  0.00  0.00     0.012 C 
HETATM    9  C   UNK     0     -14.859   4.615   8.858  0.00  0.00     0.044 C 
HETATM   10  C   UNK     0     -16.499   7.994   6.561  0.00  0.00     0.128 C 
HETATM   11  C   UNK     0     -15.746   6.921   5.691  0.00  0.00     0.055 C 
HETATM   12  C   UNK     0     -16.366   6.721   4.237  0.00  0.00    -0.021 C 
HETATM   13  C   UNK     0     -15.577   5.606   6.482  0.00  0.00    -0.034 C 
HETATM   14  C   UNK     0     -15.873   5.379   3.621  0.00  0.00     0.071 C 
HETATM   15  C   UNK     0     -15.987   7.912   3.282  0.00  0.00     0.045 C 
HETATM   16  C   UNK     0     -17.917   6.661   4.306  0.00  0.00     0.017 C 
HETATM   17  C   UNK     0     -14.387   5.347   3.220  0.00  0.00     0.047 C 
HETATM   18  C   UNK     0     -16.150   4.217   4.552  0.00  0.00     0.154 C 
HETATM   19  C   UNK     0     -13.834   6.705   2.801  0.00  0.00     0.147 C 
HETATM   20  C   UNK     0     -14.918   7.608   2.228  0.00  0.00     0.147 C 
HETATM   21  O   UNK     0     -16.556   3.133   4.139  0.00  0.00    -0.293 OA
HETATM   22  C   UNK     0     -15.822   4.387   5.981  0.00  0.00     0.057 C 
BRANCH   5  23
HETATM   23  C   UNK     0     -16.013   7.271  11.268  0.00  0.00     0.084 C 
HETATM   24  C   UNK     0     -17.180   6.323  11.588  0.00  0.00     0.049 C 
BRANCH  23  25
HETATM   25  O   UNK     0     -15.146   7.284  12.410  0.00  0.00    -0.387 OA
HETATM   26  H   UNK     0     -14.297   6.879  12.166  0.00  0.00     0.210 HD
ENDBRANCH  23  25
BRANCH  23  27
HETATM   27  C   UNK     0     -16.529   8.718  11.037  0.00  0.00     0.152 C 
BRANCH  27  28
HETATM   28  O   UNK     0     -15.417   9.609  10.905  0.00  0.00    -0.393 OA
HETATM   29  H   UNK     0     -15.766  10.469  10.617  0.00  0.00     0.210 HD
ENDBRANCH  27  28
BRANCH  27  30
HETATM   30  C   UNK     0     -17.446   9.249  12.155  0.00  0.00     0.037 C 
BRANCH  30  31
HETATM   31  C   UNK     0     -16.949  10.591  12.721  0.00  0.00     0.040 C 
BRANCH  31  32
HETATM   32  C   UNK     0     -16.033  10.466  13.957  0.00  0.00     0.051 C 
HETATM   33  C   UNK     0     -15.954  11.816  14.677  0.00  0.00     0.045 C 
HETATM   34  C   UNK     0     -16.508   9.384  14.931  0.00  0.00     0.045 C 
BRANCH  32  35
HETATM   35  O   UNK     0     -14.718  10.127  13.512  0.00  0.00    -0.391 OA
HETATM   36  H   UNK     0     -14.754   9.265  13.064  0.00  0.00     0.210 HD
ENDBRANCH  32  35
ENDBRANCH  31  32
ENDBRANCH  30  31
ENDBRANCH  27  30
ENDBRANCH  23  27
ENDBRANCH   5  23
BRANCH  10  37
HETATM   37  O   UNK     0     -16.384   9.287   5.973  0.00  0.00    -0.395 OA
HETATM   38  H   UNK     0     -15.825   9.203   5.181  0.00  0.00     0.210 HD
ENDBRANCH  10  37
BRANCH  19  39
HETATM   39  O   UNK     0     -12.798   6.502   1.844  0.00  0.00    -0.393 OA
HETATM   40  H   UNK     0     -12.331   5.681   2.070  0.00  0.00     0.210 HD
ENDBRANCH  19  39
BRANCH  20  41
HETATM   41  O   UNK     0     -15.538   6.986   1.101  0.00  0.00    -0.393 OA
HETATM   42  H   UNK     0     -16.099   7.652   0.669  0.00  0.00     0.210 HD
ENDBRANCH  20  41
ENDBRANCH   1   3
TORSDOF 12
ENDMDL
MODEL 6
REMARK VINA RESULT:      -4.2     12.008     14.740
REMARK  12 active torsions:
REMARK  status: ('A' for Active; 'I' for Inactive)
REMARK    1  A    between atoms: O_1  and  C_10 
REMARK    2  A    between atoms: O_2  and  C_17 
REMARK    3  A    between atoms: O_3  and  C_20 
REMARK    4  A    between atoms: O_4  and  C_27 
REMARK    5  A    between atoms: O_6  and  C_29 
REMARK    6  A    between atoms: O_7  and  C_28 
REMARK    7  A    between atoms: O_8  and  C_33 
REMARK    8  A    between atoms: C_11  and  C_20 
REMARK    9  A    between atoms: C_20  and  C_28 
REMARK   10  A    between atoms: C_28  and  C_31 
REMARK   11  A    between atoms: C_31  and  C_32 
REMARK   12  A    between atoms: C_32  and  C_33 
ROOT
HETATM    1  O   UNK     0     -11.454   5.551   7.585  0.00  0.00    -0.384 OA
HETATM    2  H   UNK     0     -11.079   5.961   6.792  0.00  0.00     0.211 HD
ENDROOT
BRANCH   1   3
HETATM    3  C   UNK     0     -12.162   4.333   7.258  0.00  0.00     0.090 C 
HETATM    4  C   UNK     0     -11.602   3.744   5.937  0.00  0.00    -0.000 C 
HETATM    5  C   UNK     0     -11.987   4.864   4.935  0.00  0.00     0.034 C 
HETATM    6  C   UNK     0     -10.089   3.541   6.096  0.00  0.00     0.045 C 
HETATM    7  C   UNK     0     -12.268   2.397   5.542  0.00  0.00     0.019 C 
HETATM    8  C   UNK     0     -13.396   5.302   5.397  0.00  0.00     0.012 C 
HETATM    9  C   UNK     0     -13.570   4.780   6.840  0.00  0.00     0.044 C 
HETATM   10  C   UNK     0      -9.766   2.608   7.282  0.00  0.00     0.128 C 
HETATM   11  C   UNK     0     -10.439   3.024   8.642  0.00  0.00     0.055 C 
HETATM   12  C   UNK     0     -10.204   1.981   9.822  0.00  0.00    -0.021 C 
HETATM   13  C   UNK     0     -11.921   3.392   8.421  0.00  0.00    -0.034 C 
HETATM   14  C   UNK     0     -11.232   2.221  10.966  0.00  0.00     0.071 C 
HETATM   15  C   UNK     0      -8.742   2.080  10.396  0.00  0.00     0.045 C 
HETATM   16  C   UNK     0     -10.402   0.526   9.314  0.00  0.00     0.017 C 
HETATM   17  C   UNK     0     -11.018   3.509  11.782  0.00  0.00     0.047 C 
HETATM   18  C   UNK     0     -12.651   2.212  10.435  0.00  0.00     0.154 C 
HETATM   19  C   UNK     0      -9.560   3.944  11.873  0.00  0.00     0.147 C 
HETATM   20  C   UNK     0      -8.606   2.763  11.761  0.00  0.00     0.147 C 
HETATM   21  O   UNK     0     -13.571   1.668  11.042  0.00  0.00    -0.293 OA
HETATM   22  C   UNK     0     -12.927   2.969   9.199  0.00  0.00     0.057 C 
BRANCH   5  23
HETATM   23  C   UNK     0     -11.934   4.503   3.457  0.00  0.00     0.084 C 
HETATM   24  C   UNK     0     -12.841   3.292   3.184  0.00  0.00     0.049 C 
BRANCH  23  25
HETATM   25  O   UNK     0     -12.452   5.606   2.703  0.00  0.00    -0.387 OA
HETATM   26  H   UNK     0     -12.512   5.348   1.768  0.00  0.00     0.210 HD
ENDBRANCH  23  25
BRANCH  23  27
HETATM   27  C   UNK     0     -10.485   4.223   2.973  0.00  0.00     0.152 C 
BRANCH  27  28
HETATM   28  O   UNK     0      -9.641   5.324   3.324  0.00  0.00    -0.393 OA
HETATM   29  H   UNK     0      -8.772   5.166   2.918  0.00  0.00     0.210 HD
ENDBRANCH  27  28
BRANCH  27  30
HETATM   30  C   UNK     0     -10.360   3.982   1.456  0.00  0.00     0.037 C 
BRANCH  30  31
HETATM   31  C   UNK     0      -9.420   4.999   0.785  0.00  0.00     0.040 C 
BRANCH  31  32
HETATM   32  C   UNK     0     -10.140   6.141   0.038  0.00  0.00     0.051 C 
HETATM   33  C   UNK     0      -9.215   6.713  -1.041  0.00  0.00     0.045 C 
HETATM   34  C   UNK     0     -11.459   5.689  -0.594  0.00  0.00     0.045 C 
BRANCH  32  35
HETATM   35  O   UNK     0     -10.421   7.184   0.974  0.00  0.00    -0.391 OA
HETATM   36  H   UNK     0     -10.700   7.975   0.482  0.00  0.00     0.210 HD
ENDBRANCH  32  35
ENDBRANCH  31  32
ENDBRANCH  30  31
ENDBRANCH  27  30
ENDBRANCH  23  27
ENDBRANCH   5  23
BRANCH  10  37
HETATM   37  O   UNK     0      -8.348   2.573   7.414  0.00  0.00    -0.395 OA
HETATM   38  H   UNK     0      -8.098   3.217   8.099  0.00  0.00     0.210 HD
ENDBRANCH  10  37
BRANCH  19  39
HETATM   39  O   UNK     0      -9.362   4.627  13.107  0.00  0.00    -0.393 OA
HETATM   40  H   UNK     0     -10.089   4.391  13.707  0.00  0.00     0.210 HD
ENDBRANCH  19  39
BRANCH  20  41
HETATM   41  O   UNK     0      -8.876   1.807  12.788  0.00  0.00    -0.393 OA
HETATM   42  H   UNK     0      -8.074   1.725  13.331  0.00  0.00     0.210 HD
ENDBRANCH  20  41
ENDBRANCH   1   3
TORSDOF 12
ENDMDL
MODEL 7
REMARK VINA RESULT:      -4.2      2.741      9.047
REMARK  12 active torsions:
REMARK  status: ('A' for Active; 'I' for Inactive)
REMARK    1  A    between atoms: O_1  and  C_10 
REMARK    2  A    between atoms: O_2  and  C_17 
REMARK    3  A    between atoms: O_3  and  C_20 
REMARK    4  A    between atoms: O_4  and  C_27 
REMARK    5  A    between atoms: O_6  and  C_29 
REMARK    6  A    between atoms: O_7  and  C_28 
REMARK    7  A    between atoms: O_8  and  C_33 
REMARK    8  A    between atoms: C_11  and  C_20 
REMARK    9  A    between atoms: C_20  and  C_28 
REMARK   10  A    between atoms: C_28  and  C_31 
REMARK   11  A    between atoms: C_31  and  C_32 
REMARK   12  A    between atoms: C_32  and  C_33 
ROOT
HETATM    1  O   UNK     0     -15.356  11.447  13.300  0.00  0.00    -0.384 OA
HETATM    2  H   UNK     0     -14.736  12.076  12.904  0.00  0.00     0.211 HD
ENDROOT
BRANCH   1   3
HETATM    3  C   UNK     0     -16.528  12.120  13.812  0.00  0.00     0.090 C 
HETATM    4  C   UNK     0     -16.113  13.465  14.462  0.00  0.00    -0.000 C 
HETATM    5  C   UNK     0     -15.238  12.959  15.639  0.00  0.00     0.034 C 
HETATM    6  C   UNK     0     -15.345  14.293  13.423  0.00  0.00     0.045 C 
HETATM    7  C   UNK     0     -17.324  14.285  14.989  0.00  0.00     0.019 C 
HETATM    8  C   UNK     0     -15.997  11.714  16.153  0.00  0.00     0.012 C 
HETATM    9  C   UNK     0     -16.972  11.296  15.030  0.00  0.00     0.044 C 
HETATM   10  C   UNK     0     -16.196  14.545  12.161  0.00  0.00     0.128 C 
HETATM   11  C   UNK     0     -16.815  13.247  11.522  0.00  0.00     0.055 C 
HETATM   12  C   UNK     0     -17.796  13.535  10.301  0.00  0.00    -0.021 C 
HETATM   13  C   UNK     0     -17.429  12.347  12.615  0.00  0.00    -0.034 C 
HETATM   14  C   UNK     0     -18.687  12.291  10.019  0.00  0.00     0.071 C 
HETATM   15  C   UNK     0     -16.999  13.920   9.000  0.00  0.00     0.045 C 
HETATM   16  C   UNK     0     -18.744  14.724  10.628  0.00  0.00     0.017 C 
HETATM   17  C   UNK     0     -17.952  11.081   9.414  0.00  0.00     0.047 C 
HETATM   18  C   UNK     0     -19.410  11.843  11.272  0.00  0.00     0.154 C 
HETATM   19  C   UNK     0     -16.757  11.458   8.546  0.00  0.00     0.147 C 
HETATM   20  C   UNK     0     -16.922  12.836   7.920  0.00  0.00     0.147 C 
HETATM   21  O   UNK     0     -20.583  11.474  11.252  0.00  0.00    -0.293 OA
HETATM   22  C   UNK     0     -18.633  11.764  12.524  0.00  0.00     0.057 C 
BRANCH   5  23
HETATM   23  C   UNK     0     -14.934  13.964  16.742  0.00  0.00     0.084 C 
HETATM   24  C   UNK     0     -16.163  14.127  17.651  0.00  0.00     0.049 C 
BRANCH  23  25
HETATM   25  O   UNK     0     -13.870  13.442  17.549  0.00  0.00    -0.387 OA
HETATM   26  H   UNK     0     -13.079  13.990  17.420  0.00  0.00     0.210 HD
ENDBRANCH  23  25
BRANCH  23  27
HETATM   27  C   UNK     0     -14.483  15.338  16.177  0.00  0.00     0.152 C 
BRANCH  27  28
HETATM   28  O   UNK     0     -13.062  15.461  16.292  0.00  0.00    -0.393 OA
HETATM   29  H   UNK     0     -12.726  14.626  16.659  0.00  0.00     0.210 HD
ENDBRANCH  27  28
BRANCH  27  30
HETATM   30  C   UNK     0     -15.133  16.551  16.871  0.00  0.00     0.037 C 
BRANCH  30  31
HETATM   31  C   UNK     0     -15.619  17.603  15.857  0.00  0.00     0.040 C 
BRANCH  31  32
HETATM   32  C   UNK     0     -14.512  18.535  15.321  0.00  0.00     0.051 C 
HETATM   33  C   UNK     0     -15.150  19.751  14.640  0.00  0.00     0.045 C 
HETATM   34  C   UNK     0     -13.552  18.998  16.420  0.00  0.00     0.045 C 
BRANCH  32  35
HETATM   35  O   UNK     0     -13.762  17.823  14.335  0.00  0.00    -0.391 OA
HETATM   36  H   UNK     0     -14.237  17.004  14.115  0.00  0.00     0.210 HD
ENDBRANCH  32  35
ENDBRANCH  31  32
ENDBRANCH  30  31
ENDBRANCH  27  30
ENDBRANCH  23  27
ENDBRANCH   5  23
BRANCH  10  37
HETATM   37  O   UNK     0     -15.363  15.218  11.221  0.00  0.00    -0.395 OA
HETATM   38  H   UNK     0     -15.721  15.047  10.333  0.00  0.00     0.210 HD
ENDBRANCH  10  37
BRANCH  19  39
HETATM   39  O   UNK     0     -16.594  10.469   7.534  0.00  0.00    -0.393 OA
HETATM   40  H   UNK     0     -16.618   9.594   7.957  0.00  0.00     0.210 HD
ENDBRANCH  19  39
BRANCH  20  41
HETATM   41  O   UNK     0     -18.110  12.884   7.128  0.00  0.00    -0.393 OA
HETATM   42  H   UNK     0     -18.235  13.804   6.841  0.00  0.00     0.210 HD
ENDBRANCH  20  41
ENDBRANCH   1   3
TORSDOF 12
ENDMDL
MODEL 8
REMARK VINA RESULT:      -4.2      2.754      8.699
REMARK  12 active torsions:
REMARK  status: ('A' for Active; 'I' for Inactive)
REMARK    1  A    between atoms: O_1  and  C_10 
REMARK    2  A    between atoms: O_2  and  C_17 
REMARK    3  A    between atoms: O_3  and  C_20 
REMARK    4  A    between atoms: O_4  and  C_27 
REMARK    5  A    between atoms: O_6  and  C_29 
REMARK    6  A    between atoms: O_7  and  C_28 
REMARK    7  A    between atoms: O_8  and  C_33 
REMARK    8  A    between atoms: C_11  and  C_20 
REMARK    9  A    between atoms: C_20  and  C_28 
REMARK   10  A    between atoms: C_28  and  C_31 
REMARK   11  A    between atoms: C_31  and  C_32 
REMARK   12  A    between atoms: C_32  and  C_33 
ROOT
HETATM    1  O   UNK     0     -14.537  13.636  13.265  0.00  0.00    -0.384 OA
HETATM    2  H   UNK     0     -13.885  13.283  13.887  0.00  0.00     0.211 HD
ENDROOT
BRANCH   1   3
HETATM    3  C   UNK     0     -15.799  13.895  13.920  0.00  0.00     0.090 C 
HETATM    4  C   UNK     0     -15.569  14.810  15.150  0.00  0.00    -0.000 C 
HETATM    5  C   UNK     0     -14.693  13.886  16.037  0.00  0.00     0.034 C 
HETATM    6  C   UNK     0     -14.856  16.087  14.683  0.00  0.00     0.045 C 
HETATM    7  C   UNK     0     -16.887  15.188  15.882  0.00  0.00     0.019 C 
HETATM    8  C   UNK     0     -15.326  12.488  15.850  0.00  0.00     0.012 C 
HETATM    9  C   UNK     0     -16.198  12.566  14.577  0.00  0.00     0.044 C 
HETATM   10  C   UNK     0     -15.675  16.828  13.606  0.00  0.00     0.128 C 
HETATM   11  C   UNK     0     -16.115  15.933  12.389  0.00  0.00     0.055 C 
HETATM   12  C   UNK     0     -17.068  16.677  11.353  0.00  0.00    -0.021 C 
HETATM   13  C   UNK     0     -16.668  14.581  12.885  0.00  0.00    -0.034 C 
HETATM   14  C   UNK     0     -17.799  15.640  10.451  0.00  0.00     0.071 C 
HETATM   15  C   UNK     0     -16.265  17.687  10.454  0.00  0.00     0.045 C 
HETATM   16  C   UNK     0     -18.158  17.494  12.102  0.00  0.00     0.017 C 
HETATM   17  C   UNK     0     -16.905  14.916   9.427  0.00  0.00     0.047 C 
HETATM   18  C   UNK     0     -18.519  14.602  11.286  0.00  0.00     0.154 C 
HETATM   19  C   UNK     0     -15.724  15.751   8.943  0.00  0.00     0.147 C 
HETATM   20  C   UNK     0     -16.018  17.243   9.008  0.00  0.00     0.147 C 
HETATM   21  O   UNK     0     -19.640  14.192  10.992  0.00  0.00    -0.293 OA
HETATM   22  C   UNK     0     -17.793  14.012  12.427  0.00  0.00     0.057 C 
BRANCH   5  23
HETATM   23  C   UNK     0     -14.553  14.281  17.501  0.00  0.00     0.084 C 
HETATM   24  C   UNK     0     -15.931  14.250  18.183  0.00  0.00     0.049 C 
BRANCH  23  25
HETATM   25  O   UNK     0     -13.729  13.308  18.156  0.00  0.00    -0.387 OA
HETATM   26  H   UNK     0     -13.651  12.526  17.585  0.00  0.00     0.210 HD
ENDBRANCH  23  25
BRANCH  23  27
HETATM   27  C   UNK     0     -13.888  15.674  17.673  0.00  0.00     0.152 C 
BRANCH  27  28
HETATM   28  O   UNK     0     -12.628  15.691  16.993  0.00  0.00    -0.393 OA
HETATM   29  H   UNK     0     -12.522  14.829  16.556  0.00  0.00     0.210 HD
ENDBRANCH  27  28
BRANCH  27  30
HETATM   30  C   UNK     0     -13.654  16.086  19.139  0.00  0.00     0.037 C 
BRANCH  30  31
HETATM   31  C   UNK     0     -12.167  16.357  19.432  0.00  0.00     0.040 C 
BRANCH  31  32
HETATM   32  C   UNK     0     -11.429  15.195  20.129  0.00  0.00     0.051 C 
HETATM   33  C   UNK     0     -10.208  15.738  20.880  0.00  0.00     0.045 C 
HETATM   34  C   UNK     0     -12.332  14.423  21.095  0.00  0.00     0.045 C 
BRANCH  32  35
HETATM   35  O   UNK     0     -10.962  14.291  19.126  0.00  0.00    -0.391 OA
HETATM   36  H   UNK     0     -11.411  14.497  18.290  0.00  0.00     0.210 HD
ENDBRANCH  32  35
ENDBRANCH  31  32
ENDBRANCH  30  31
ENDBRANCH  27  30
ENDBRANCH  23  27
ENDBRANCH   5  23
BRANCH  10  37
HETATM   37  O   UNK     0     -14.885  17.927  13.161  0.00  0.00    -0.395 OA
HETATM   38  H   UNK     0     -15.492  18.629  12.869  0.00  0.00     0.210 HD
ENDBRANCH  10  37
BRANCH  19  39
HETATM   39  O   UNK     0     -15.407  15.364   7.609  0.00  0.00    -0.393 OA
HETATM   40  H   UNK     0     -16.161  14.869   7.248  0.00  0.00     0.210 HD
ENDBRANCH  19  39
BRANCH  20  41
HETATM   41  O   UNK     0     -17.169  17.558   8.222  0.00  0.00    -0.393 OA
HETATM   42  H   UNK     0     -16.858  17.839   7.345  0.00  0.00     0.210 HD
ENDBRANCH  20  41
ENDBRANCH   1   3
TORSDOF 12
ENDMDL
MODEL 9
REMARK VINA RESULT:      -4.2      3.039      4.929
REMARK  12 active torsions:
REMARK  status: ('A' for Active; 'I' for Inactive)
REMARK    1  A    between atoms: O_1  and  C_10 
REMARK    2  A    between atoms: O_2  and  C_17 
REMARK    3  A    between atoms: O_3  and  C_20 
REMARK    4  A    between atoms: O_4  and  C_27 
REMARK    5  A    between atoms: O_6  and  C_29 
REMARK    6  A    between atoms: O_7  and  C_28 
REMARK    7  A    between atoms: O_8  and  C_33 
REMARK    8  A    between atoms: C_11  and  C_20 
REMARK    9  A    between atoms: C_20  and  C_28 
REMARK   10  A    between atoms: C_28  and  C_31 
REMARK   11  A    between atoms: C_31  and  C_32 
REMARK   12  A    between atoms: C_32  and  C_33 
ROOT
HETATM    1  O   UNK     0     -15.347  11.887  13.408  0.00  0.00    -0.384 OA
HETATM    2  H   UNK     0     -15.361  12.390  12.582  0.00  0.00     0.211 HD
ENDROOT
BRANCH   1   3
HETATM    3  C   UNK     0     -16.622  11.251  13.656  0.00  0.00     0.090 C 
HETATM    4  C   UNK     0     -16.644   9.852  12.988  0.00  0.00    -0.000 C 
HETATM    5  C   UNK     0     -16.531  10.244  11.491  0.00  0.00     0.034 C 
HETATM    6  C   UNK     0     -15.451   9.041  13.513  0.00  0.00     0.045 C 
HETATM    7  C   UNK     0     -17.961   9.072  13.256  0.00  0.00     0.019 C 
HETATM    8  C   UNK     0     -17.427  11.499  11.372  0.00  0.00     0.012 C 
HETATM    9  C   UNK     0     -17.637  12.030  12.807  0.00  0.00     0.044 C 
HETATM   10  C   UNK     0     -15.493   8.906  15.049  0.00  0.00     0.128 C 
HETATM   11  C   UNK     0     -15.649  10.269  15.821  0.00  0.00     0.055 C 
HETATM   12  C   UNK     0     -15.823  10.101  17.395  0.00  0.00    -0.021 C 
HETATM   13  C   UNK     0     -16.741  11.139  15.162  0.00  0.00    -0.034 C 
HETATM   14  C   UNK     0     -16.402  11.406  18.015  0.00  0.00     0.071 C 
HETATM   15  C   UNK     0     -14.458   9.745  18.090  0.00  0.00     0.045 C 
HETATM   16  C   UNK     0     -16.817   8.950  17.717  0.00  0.00     0.017 C 
HETATM   17  C   UNK     0     -15.437  12.605  18.039  0.00  0.00     0.047 C 
HETATM   18  C   UNK     0     -17.678  11.823  17.315  0.00  0.00     0.154 C 
HETATM   19  C   UNK     0     -13.969  12.211  18.157  0.00  0.00     0.147 C 
HETATM   20  C   UNK     0     -13.794  10.881  18.876  0.00  0.00     0.147 C 
HETATM   21  O   UNK     0     -18.650  12.256  17.932  0.00  0.00    -0.293 OA
HETATM   22  C   UNK     0     -17.696  11.791  15.840  0.00  0.00     0.057 C 
BRANCH   5  23
HETATM   23  C   UNK     0     -16.886   9.166  10.477  0.00  0.00     0.084 C 
HETATM   24  C   UNK     0     -18.401   8.907  10.498  0.00  0.00     0.049 C 
BRANCH  23  25
HETATM   25  O   UNK     0     -16.552   9.648   9.168  0.00  0.00    -0.387 OA
HETATM   26  H   UNK     0     -17.360   9.684   8.630  0.00  0.00     0.210 HD
ENDBRANCH  23  25
BRANCH  23  27
HETATM   27  C   UNK     0     -16.101   7.848  10.721  0.00  0.00     0.152 C 
BRANCH  27  28
HETATM   28  O   UNK     0     -14.720   8.046  10.401  0.00  0.00    -0.393 OA
HETATM   29  H   UNK     0     -14.322   8.553  11.129  0.00  0.00     0.210 HD
ENDBRANCH  27  28
BRANCH  27  30
HETATM   30  C   UNK     0     -16.618   6.644   9.912  0.00  0.00     0.037 C 
BRANCH  30  31
HETATM   31  C   UNK     0     -15.519   6.027   9.029  0.00  0.00     0.040 C 
BRANCH  31  32
HETATM   32  C   UNK     0     -15.463   6.586   7.591  0.00  0.00     0.051 C 
HETATM   33  C   UNK     0     -14.700   5.609   6.690  0.00  0.00     0.045 C 
HETATM   34  C   UNK     0     -16.855   6.851   7.011  0.00  0.00     0.045 C 
BRANCH  32  35
HETATM   35  O   UNK     0     -14.740   7.818   7.615  0.00  0.00    -0.391 OA
HETATM   36  H   UNK     0     -13.809   7.635   7.408  0.00  0.00     0.210 HD
ENDBRANCH  32  35
ENDBRANCH  31  32
ENDBRANCH  30  31
ENDBRANCH  27  30
ENDBRANCH  23  27
ENDBRANCH   5  23
BRANCH  10  37
HETATM   37  O   UNK     0     -14.296   8.241  15.445  0.00  0.00    -0.395 OA
HETATM   38  H   UNK     0     -13.819   7.985  14.637  0.00  0.00     0.210 HD
ENDBRANCH  10  37
BRANCH  19  39
HETATM   39  O   UNK     0     -13.271  13.244  18.846  0.00  0.00    -0.393 OA
HETATM   40  H   UNK     0     -12.791  12.844  19.590  0.00  0.00     0.210 HD
ENDBRANCH  19  39
BRANCH  20  41
HETATM   41  O   UNK     0     -14.369  10.942  20.182  0.00  0.00    -0.393 OA
HETATM   42  H   UNK     0     -13.649  10.837  20.826  0.00  0.00     0.210 HD
ENDBRANCH  20  41
ENDBRANCH   1   3
TORSDOF 12
ENDMDL
MODEL 10
REMARK VINA RESULT:      -4.2      2.731     10.597
REMARK  12 active torsions:
REMARK  status: ('A' for Active; 'I' for Inactive)
REMARK    1  A    between atoms: O_1  and  C_10 
REMARK    2  A    between atoms: O_2  and  C_17 
REMARK    3  A    between atoms: O_3  and  C_20 
REMARK    4  A    between atoms: O_4  and  C_27 
REMARK    5  A    between atoms: O_6  and  C_29 
REMARK    6  A    between atoms: O_7  and  C_28 
REMARK    7  A    between atoms: O_8  and  C_33 
REMARK    8  A    between atoms: C_11  and  C_20 
REMARK    9  A    between atoms: C_20  and  C_28 
REMARK   10  A    between atoms: C_28  and  C_31 
REMARK   11  A    between atoms: C_31  and  C_32 
REMARK   12  A    between atoms: C_32  and  C_33 
ROOT
HETATM    1  O   UNK     0     -15.212   9.839  11.424  0.00  0.00    -0.384 OA
HETATM    2  H   UNK     0     -14.969  10.239  10.577  0.00  0.00     0.211 HD
ENDROOT
BRANCH   1   3
HETATM    3  C   UNK     0     -16.645   9.684  11.539  0.00  0.00     0.090 C 
HETATM    4  C   UNK     0     -17.339  11.036  11.233  0.00  0.00    -0.000 C 
HETATM    5  C   UNK     0     -16.807  11.906  12.402  0.00  0.00     0.034 C 
HETATM    6  C   UNK     0     -16.891  11.513   9.845  0.00  0.00     0.045 C 
HETATM    7  C   UNK     0     -18.890  10.946  11.276  0.00  0.00     0.019 C 
HETATM    8  C   UNK     0     -16.826  10.945  13.614  0.00  0.00     0.012 C 
HETATM    9  C   UNK     0     -16.918   9.514  13.040  0.00  0.00     0.044 C 
HETATM   10  C   UNK     0     -17.229  10.476   8.755  0.00  0.00     0.128 C 
HETATM   11  C   UNK     0     -16.717   9.019   9.059  0.00  0.00     0.055 C 
HETATM   12  C   UNK     0     -17.187   7.935   7.991  0.00  0.00    -0.021 C 
HETATM   13  C   UNK     0     -17.029   8.631  10.520  0.00  0.00    -0.034 C 
HETATM   14  C   UNK     0     -17.029   6.500   8.574  0.00  0.00     0.071 C 
HETATM   15  C   UNK     0     -16.370   8.054   6.652  0.00  0.00     0.045 C 
HETATM   16  C   UNK     0     -18.687   8.132   7.635  0.00  0.00     0.017 C 
HETATM   17  C   UNK     0     -15.578   6.014   8.739  0.00  0.00     0.047 C 
HETATM   18  C   UNK     0     -17.739   6.372   9.906  0.00  0.00     0.154 C 
HETATM   19  C   UNK     0     -14.612   6.605   7.718  0.00  0.00     0.147 C 
HETATM   20  C   UNK     0     -15.314   6.970   6.417  0.00  0.00     0.147 C 
HETATM   21  O   UNK     0     -18.386   5.371  10.207  0.00  0.00    -0.293 OA
HETATM   22  C   UNK     0     -17.551   7.454  10.893  0.00  0.00     0.057 C 
BRANCH   5  23
HETATM   23  C   UNK     0     -17.543  13.211  12.671  0.00  0.00     0.084 C 
HETATM   24  C   UNK     0     -18.244  13.688  11.388  0.00  0.00     0.049 C 
BRANCH  23  25
HETATM   25  O   UNK     0     -18.562  12.963  13.649  0.00  0.00    -0.387 OA
HETATM   26  H   UNK     0     -19.383  12.717  13.193  0.00  0.00     0.210 HD
ENDBRANCH  23  25
BRANCH  23  27
HETATM   27  C   UNK     0     -16.600  14.315  13.223  0.00  0.00     0.152 C 
BRANCH  27  28
HETATM   28  O   UNK     0     -15.258  14.053  12.801  0.00  0.00    -0.393 OA
HETATM   29  H   UNK     0     -15.286  13.292  12.197  0.00  0.00     0.210 HD
ENDBRANCH  27  28
BRANCH  27  30
HETATM   30  C   UNK     0     -16.609  14.445  14.758  0.00  0.00     0.037 C 
BRANCH  30  31
HETATM   31  C   UNK     0     -15.716  15.601  15.245  0.00  0.00     0.040 C 
BRANCH  31  32
HETATM   32  C   UNK     0     -14.468  15.156  16.036  0.00  0.00     0.051 C 
HETATM   33  C   UNK     0     -13.888  16.353  16.796  0.00  0.00     0.045 C 
HETATM   34  C   UNK     0     -14.768  14.015  17.012  0.00  0.00     0.045 C 
BRANCH  32  35
HETATM   35  O   UNK     0     -13.481  14.706  15.105  0.00  0.00    -0.391 OA
HETATM   36  H   UNK     0     -13.300  13.767  15.275  0.00  0.00     0.210 HD
ENDBRANCH  32  35
ENDBRANCH  31  32
ENDBRANCH  30  31
ENDBRANCH  27  30
ENDBRANCH  23  27
ENDBRANCH   5  23
BRANCH  10  37
HETATM   37  O   UNK     0     -16.677  10.956   7.532  0.00  0.00    -0.395 OA
HETATM   38  H   UNK     0     -16.650  11.926   7.581  0.00  0.00     0.210 HD
ENDBRANCH  10  37
BRANCH  19  39
HETATM   39  O   UNK     0     -13.571   5.664   7.474  0.00  0.00    -0.393 OA
HETATM   40  H   UNK     0     -13.955   4.771   7.497  0.00  0.00     0.210 HD
ENDBRANCH  19  39
BRANCH  20  41
HETATM   41  O   UNK     0     -15.946   5.819   5.853  0.00  0.00    -0.393 OA
HETATM   42  H   UNK     0     -16.154   5.211   6.583  0.00  0.00     0.210 HD
ENDBRANCH  20  41
ENDBRANCH   1   3
TORSDOF 12
ENDMDL
