MODEL 1
REMARK VINA RESULT:    -8.301      0.000      0.000
REMARK INTER + INTRA:         -12.394
REMARK INTER:                 -12.755
REMARK INTRA:                   0.361
REMARK UNBOUND:                 0.031
REMARK  12 active torsions:
REMARK  status: ('A' for Active; 'I' for Inactive)
REMARK    1  A    between atoms: O_1  and  C_10 
REMARK    2  A    between atoms: O_2  and  C_17 
REMARK    3  A    between atoms: O_3  and  C_20 
REMARK    4  A    between atoms: O_4  and  C_27 
REMARK    5  A    between atoms: O_6  and  C_29 
REMARK    6  A    between atoms: O_7  and  C_28 
REMARK    7  A    between atoms: O_8  and  C_33 
REMARK    8  A    between atoms: C_11  and  C_20 
REMARK    9  A    between atoms: C_20  and  C_28 
REMARK   10  A    between atoms: C_28  and  C_31 
REMARK   11  A    between atoms: C_31  and  C_32 
REMARK   12  A    between atoms: C_32  and  C_33 
ROOT
HETATM    1  O   UNK     0       7.670  41.227  21.675  0.00  0.00    -0.384 OA
HETATM    2  H   UNK     0       8.140  40.569  22.207  0.00  0.00     0.211 HD
ENDROOT
BRANCH   1   3
HETATM    3  C   UNK     0       7.763  42.543  22.267  0.00  0.00     0.090 C 
HETATM    4  C   UNK     0       8.421  43.521  21.261  0.00  0.00    -0.000 C 
HETATM    5  C   UNK     0       9.836  42.898  21.134  0.00  0.00     0.034 C 
HETATM    6  C   UNK     0       7.610  43.500  19.957  0.00  0.00     0.045 C 
HETATM    7  C   UNK     0       8.506  44.978  21.796  0.00  0.00     0.019 C 
HETATM    8  C   UNK     0      10.176  42.463  22.578  0.00  0.00     0.012 C 
HETATM    9  C   UNK     0       8.841  42.426  23.354  0.00  0.00     0.044 C 
HETATM   10  C   UNK     0       6.137  43.888  20.203  0.00  0.00     0.128 C 
HETATM   11  C   UNK     0       5.425  43.066  21.340  0.00  0.00     0.055 C 
HETATM   12  C   UNK     0       3.950  43.567  21.670  0.00  0.00    -0.021 C 
HETATM   13  C   UNK     0       6.339  42.956  22.579  0.00  0.00    -0.034 C 
HETATM   14  C   UNK     0       3.494  43.023  23.055  0.00  0.00     0.071 C 
HETATM   15  C   UNK     0       2.928  43.118  20.562  0.00  0.00     0.045 C 
HETATM   16  C   UNK     0       3.902  45.119  21.739  0.00  0.00     0.017 C 
HETATM   17  C   UNK     0       3.215  41.510  23.107  0.00  0.00     0.047 C 
HETATM   18  C   UNK     0       4.497  43.369  24.135  0.00  0.00     0.154 C 
HETATM   19  C   UNK     0       2.725  40.929  21.785  0.00  0.00     0.147 C 
HETATM   20  C   UNK     0       1.992  41.967  20.946  0.00  0.00     0.147 C 
HETATM   21  O   UNK     0       4.150  43.738  25.255  0.00  0.00    -0.293 OA
HETATM   22  C   UNK     0       5.928  43.157  23.839  0.00  0.00     0.057 C 
BRANCH   5  23
HETATM   23  C   UNK     0      10.913  43.775  20.511  0.00  0.00     0.084 C 
HETATM   24  C   UNK     0      10.268  45.007  19.855  0.00  0.00     0.049 C 
BRANCH  23  25
HETATM   25  O   UNK     0      11.772  44.248  21.557  0.00  0.00    -0.387 OA
HETATM   26  H   UNK     0      12.399  43.544  21.793  0.00  0.00     0.210 HD
ENDBRANCH  23  25
BRANCH  23  27
HETATM   27  C   UNK     0      11.782  42.999  19.485  0.00  0.00     0.152 C 
BRANCH  27  28
HETATM   28  O   UNK     0      11.782  41.605  19.813  0.00  0.00    -0.393 OA
HETATM   29  H   UNK     0      11.184  41.485  20.570  0.00  0.00     0.210 HD
ENDBRANCH  27  28
BRANCH  27  30
HETATM   30  C   UNK     0      13.244  43.477  19.403  0.00  0.00     0.037 C 
BRANCH  30  31
HETATM   31  C   UNK     0      14.240  42.351  19.735  0.00  0.00     0.040 C 
BRANCH  31  32
HETATM   32  C   UNK     0      14.830  42.419  21.160  0.00  0.00     0.051 C 
HETATM   33  C   UNK     0      15.962  41.394  21.295  0.00  0.00     0.045 C 
HETATM   34  C   UNK     0      15.347  43.816  21.514  0.00  0.00     0.045 C 
BRANCH  32  35
HETATM   35  O   UNK     0      13.805  42.066  22.090  0.00  0.00    -0.391 OA
HETATM   36  H   UNK     0      13.650  41.109  22.033  0.00  0.00     0.210 HD
ENDBRANCH  32  35
ENDBRANCH  31  32
ENDBRANCH  30  31
ENDBRANCH  27  30
ENDBRANCH  23  27
ENDBRANCH   5  23
BRANCH  10  37
HETATM   37  O   UNK     0       5.450  43.731  18.965  0.00  0.00    -0.395 OA
HETATM   38  H   UNK     0       6.038  43.249  18.358  0.00  0.00     0.210 HD
ENDBRANCH  10  37
BRANCH  19  39
HETATM   39  O   UNK     0       1.873  39.820  22.059  0.00  0.00    -0.393 OA
HETATM   40  H   UNK     0       1.710  39.791  23.017  0.00  0.00     0.210 HD
ENDBRANCH  19  39
BRANCH  20  41
HETATM   41  O   UNK     0       0.878  42.494  21.669  0.00  0.00    -0.393 OA
HETATM   42  H   UNK     0       1.189  43.274  22.159  0.00  0.00     0.210 HD
ENDBRANCH  20  41
ENDBRANCH   1   3
TORSDOF 12
ENDMDL
MODEL 2
REMARK VINA RESULT:    -8.101      2.190      8.255
REMARK INTER + INTRA:         -12.095
REMARK INTER:                 -11.929
REMARK INTRA:                  -0.166
REMARK UNBOUND:                 0.031
REMARK  12 active torsions:
REMARK  status: ('A' for Active; 'I' for Inactive)
REMARK    1  A    between atoms: O_1  and  C_10 
REMARK    2  A    between atoms: O_2  and  C_17 
REMARK    3  A    between atoms: O_3  and  C_20 
REMARK    4  A    between atoms: O_4  and  C_27 
REMARK    5  A    between atoms: O_6  and  C_29 
REMARK    6  A    between atoms: O_7  and  C_28 
REMARK    7  A    between atoms: O_8  and  C_33 
REMARK    8  A    between atoms: C_11  and  C_20 
REMARK    9  A    between atoms: C_20  and  C_28 
REMARK   10  A    between atoms: C_28  and  C_31 
REMARK   11  A    between atoms: C_31  and  C_32 
REMARK   12  A    between atoms: C_32  and  C_33 
ROOT
HETATM    1  O   UNK     0       7.245  41.932  23.289  0.00  0.00    -0.384 OA
HETATM    2  H   UNK     0       6.543  42.326  23.827  0.00  0.00     0.211 HD
ENDROOT
BRANCH   1   3
HETATM    3  C   UNK     0       7.365  42.605  22.014  0.00  0.00     0.090 C 
HETATM    4  C   UNK     0       6.177  43.584  21.828  0.00  0.00    -0.000 C 
HETATM    5  C   UNK     0       4.987  42.590  21.791  0.00  0.00     0.034 C 
HETATM    6  C   UNK     0       6.148  44.549  23.021  0.00  0.00     0.045 C 
HETATM    7  C   UNK     0       6.260  44.395  20.506  0.00  0.00     0.019 C 
HETATM    8  C   UNK     0       5.528  41.399  20.967  0.00  0.00     0.012 C 
HETATM    9  C   UNK     0       7.067  41.532  20.957  0.00  0.00     0.044 C 
HETATM   10  C   UNK     0       7.473  45.328  23.150  0.00  0.00     0.128 C 
HETATM   11  C   UNK     0       8.762  44.425  23.168  0.00  0.00     0.055 C 
HETATM   12  C   UNK     0      10.126  45.249  23.168  0.00  0.00    -0.021 C 
HETATM   13  C   UNK     0       8.684  43.350  22.064  0.00  0.00    -0.034 C 
HETATM   14  C   UNK     0      11.310  44.331  22.747  0.00  0.00     0.071 C 
HETATM   15  C   UNK     0      10.419  45.877  24.580  0.00  0.00     0.045 C 
HETATM   16  C   UNK     0      10.057  46.420  22.148  0.00  0.00     0.017 C 
HETATM   17  C   UNK     0      11.713  43.263  23.780  0.00  0.00     0.047 C 
HETATM   18  C   UNK     0      11.026  43.646  21.426  0.00  0.00     0.154 C 
HETATM   19  C   UNK     0      11.459  43.679  25.225  0.00  0.00     0.147 C 
HETATM   20  C   UNK     0      11.517  45.190  25.400  0.00  0.00     0.147 C 
HETATM   21  O   UNK     0      11.890  43.513  20.562  0.00  0.00    -0.293 OA
HETATM   22  C   UNK     0       9.692  43.044  21.235  0.00  0.00     0.057 C 
BRANCH   5  23
HETATM   23  C   UNK     0       3.667  43.128  21.255  0.00  0.00     0.084 C 
HETATM   24  C   UNK     0       3.445  44.562  21.762  0.00  0.00     0.049 C 
BRANCH  23  25
HETATM   25  O   UNK     0       3.749  43.186  19.825  0.00  0.00    -0.387 OA
HETATM   26  H   UNK     0       2.850  43.168  19.457  0.00  0.00     0.210 HD
ENDBRANCH  23  25
BRANCH  23  27
HETATM   27  C   UNK     0       2.466  42.220  21.635  0.00  0.00     0.152 C 
BRANCH  27  28
HETATM   28  O   UNK     0       1.297  42.651  20.929  0.00  0.00    -0.393 OA
HETATM   29  H   UNK     0       1.434  42.446  19.988  0.00  0.00     0.210 HD
ENDBRANCH  27  28
BRANCH  27  30
HETATM   30  C   UNK     0       2.141  42.198  23.141  0.00  0.00     0.037 C 
BRANCH  30  31
HETATM   31  C   UNK     0       2.711  40.949  23.836  0.00  0.00     0.040 C 
BRANCH  31  32
HETATM   32  C   UNK     0       3.583  41.246  25.075  0.00  0.00     0.051 C 
HETATM   33  C   UNK     0       3.714  42.762  25.258  0.00  0.00     0.045 C 
HETATM   34  C   UNK     0       3.024  40.614  26.352  0.00  0.00     0.045 C 
BRANCH  32  35
HETATM   35  O   UNK     0       4.890  40.717  24.843  0.00  0.00    -0.391 OA
HETATM   36  H   UNK     0       5.475  41.011  25.561  0.00  0.00     0.210 HD
ENDBRANCH  32  35
ENDBRANCH  31  32
ENDBRANCH  30  31
ENDBRANCH  27  30
ENDBRANCH  23  27
ENDBRANCH   5  23
BRANCH  10  37
HETATM   37  O   UNK     0       7.390  46.106  24.341  0.00  0.00    -0.395 OA
HETATM   38  H   UNK     0       7.078  45.523  25.054  0.00  0.00     0.210 HD
ENDBRANCH  10  37
BRANCH  19  39
HETATM   39  O   UNK     0      12.423  43.045  26.060  0.00  0.00    -0.393 OA
HETATM   40  H   UNK     0      12.177  43.206  26.986  0.00  0.00     0.210 HD
ENDBRANCH  19  39
BRANCH  20  41
HETATM   41  O   UNK     0      12.789  45.690  24.984  0.00  0.00    -0.393 OA
HETATM   42  H   UNK     0      13.376  45.680  25.758  0.00  0.00     0.210 HD
ENDBRANCH  20  41
ENDBRANCH   1   3
TORSDOF 12
ENDMDL
MODEL 3
REMARK VINA RESULT:    -7.983      1.746      2.840
REMARK INTER + INTRA:         -11.919
REMARK INTER:                 -11.879
REMARK INTRA:                  -0.040
REMARK UNBOUND:                 0.031
REMARK  12 active torsions:
REMARK  status: ('A' for Active; 'I' for Inactive)
REMARK    1  A    between atoms: O_1  and  C_10 
REMARK    2  A    between atoms: O_2  and  C_17 
REMARK    3  A    between atoms: O_3  and  C_20 
REMARK    4  A    between atoms: O_4  and  C_27 
REMARK    5  A    between atoms: O_6  and  C_29 
REMARK    6  A    between atoms: O_7  and  C_28 
REMARK    7  A    between atoms: O_8  and  C_33 
REMARK    8  A    between atoms: C_11  and  C_20 
REMARK    9  A    between atoms: C_20  and  C_28 
REMARK   10  A    between atoms: C_28  and  C_31 
REMARK   11  A    between atoms: C_31  and  C_32 
REMARK   12  A    between atoms: C_32  and  C_33 
ROOT
HETATM    1  O   UNK     0       7.516  40.526  23.484  0.00  0.00    -0.384 OA
HETATM    2  H   UNK     0       6.660  40.395  23.053  0.00  0.00     0.211 HD
ENDROOT
BRANCH   1   3
HETATM    3  C   UNK     0       7.730  41.918  23.811  0.00  0.00     0.090 C 
HETATM    4  C   UNK     0       8.725  42.543  22.799  0.00  0.00    -0.000 C 
HETATM    5  C   UNK     0      10.006  41.724  23.110  0.00  0.00     0.034 C 
HETATM    6  C   UNK     0       8.177  42.331  21.381  0.00  0.00     0.045 C 
HETATM    7  C   UNK     0       8.967  44.058  23.042  0.00  0.00     0.019 C 
HETATM    8  C   UNK     0       9.992  41.591  24.650  0.00  0.00     0.012 C 
HETATM    9  C   UNK     0       8.552  41.911  25.108  0.00  0.00     0.044 C 
HETATM   10  C   UNK     0       6.777  42.958  21.218  0.00  0.00     0.128 C 
HETATM   11  C   UNK     0       5.734  42.520  22.312  0.00  0.00     0.055 C 
HETATM   12  C   UNK     0       4.336  43.276  22.208  0.00  0.00    -0.021 C 
HETATM   13  C   UNK     0       6.370  42.577  23.717  0.00  0.00    -0.034 C 
HETATM   14  C   UNK     0       3.543  43.130  23.540  0.00  0.00     0.071 C 
HETATM   15  C   UNK     0       3.471  42.725  21.015  0.00  0.00     0.045 C 
HETATM   16  C   UNK     0       4.551  44.795  21.957  0.00  0.00     0.017 C 
HETATM   17  C   UNK     0       2.996  41.720  23.827  0.00  0.00     0.047 C 
HETATM   18  C   UNK     0       4.376  43.578  24.722  0.00  0.00     0.154 C 
HETATM   19  C   UNK     0       2.662  40.922  22.571  0.00  0.00     0.147 C 
HETATM   20  C   UNK     0       2.291  41.828  21.405  0.00  0.00     0.147 C 
HETATM   21  O   UNK     0       3.900  44.237  25.644  0.00  0.00    -0.293 OA
HETATM   22  C   UNK     0       5.776  43.115  24.793  0.00  0.00     0.057 C 
BRANCH   5  23
HETATM   23  C   UNK     0      11.317  42.284  22.576  0.00  0.00     0.084 C 
HETATM   24  C   UNK     0      11.456  43.761  22.978  0.00  0.00     0.049 C 
BRANCH  23  25
HETATM   25  O   UNK     0      12.398  41.569  23.190  0.00  0.00    -0.387 OA
HETATM   26  H   UNK     0      12.831  41.016  22.520  0.00  0.00     0.210 HD
ENDBRANCH  23  25
BRANCH  23  27
HETATM   27  C   UNK     0      11.442  42.120  21.037  0.00  0.00     0.152 C 
BRANCH  27  28
HETATM   28  O   UNK     0      12.581  41.308  20.731  0.00  0.00    -0.393 OA
HETATM   29  H   UNK     0      12.963  41.643  19.903  0.00  0.00     0.210 HD
ENDBRANCH  27  28
BRANCH  27  30
HETATM   30  C   UNK     0      11.575  43.449  20.268  0.00  0.00     0.037 C 
BRANCH  30  31
HETATM   31  C   UNK     0      10.614  43.521  19.068  0.00  0.00     0.040 C 
BRANCH  31  32
HETATM   32  C   UNK     0       9.977  44.908  18.839  0.00  0.00     0.051 C 
HETATM   33  C   UNK     0       8.585  44.738  18.221  0.00  0.00     0.045 C 
HETATM   34  C   UNK     0       9.877  45.727  20.128  0.00  0.00     0.045 C 
BRANCH  32  35
HETATM   35  O   UNK     0      10.786  45.627  17.907  0.00  0.00    -0.391 OA
HETATM   36  H   UNK     0      10.316  45.674  17.058  0.00  0.00     0.210 HD
ENDBRANCH  32  35
ENDBRANCH  31  32
ENDBRANCH  30  31
ENDBRANCH  27  30
ENDBRANCH  23  27
ENDBRANCH   5  23
BRANCH  10  37
HETATM   37  O   UNK     0       6.311  42.614  19.916  0.00  0.00    -0.395 OA
HETATM   38  H   UNK     0       6.437  43.388  19.342  0.00  0.00     0.210 HD
ENDBRANCH  10  37
BRANCH  19  39
HETATM   39  O   UNK     0       1.592  40.030  22.867  0.00  0.00    -0.393 OA
HETATM   40  H   UNK     0       1.483  39.424  22.115  0.00  0.00     0.210 HD
ENDBRANCH  19  39
BRANCH  20  41
HETATM   41  O   UNK     0       1.175  42.651  21.749  0.00  0.00    -0.393 OA
HETATM   42  H   UNK     0       1.343  43.538  21.390  0.00  0.00     0.210 HD
ENDBRANCH  20  41
ENDBRANCH   1   3
TORSDOF 12
ENDMDL
MODEL 4
REMARK VINA RESULT:    -7.858      2.025      8.191
REMARK INTER + INTRA:         -11.732
REMARK INTER:                 -11.993
REMARK INTRA:                   0.261
REMARK UNBOUND:                 0.031
REMARK  12 active torsions:
REMARK  status: ('A' for Active; 'I' for Inactive)
REMARK    1  A    between atoms: O_1  and  C_10 
REMARK    2  A    between atoms: O_2  and  C_17 
REMARK    3  A    between atoms: O_3  and  C_20 
REMARK    4  A    between atoms: O_4  and  C_27 
REMARK    5  A    between atoms: O_6  and  C_29 
REMARK    6  A    between atoms: O_7  and  C_28 
REMARK    7  A    between atoms: O_8  and  C_33 
REMARK    8  A    between atoms: C_11  and  C_20 
REMARK    9  A    between atoms: C_20  and  C_28 
REMARK   10  A    between atoms: C_28  and  C_31 
REMARK   11  A    between atoms: C_31  and  C_32 
REMARK   12  A    between atoms: C_32  and  C_33 
ROOT
HETATM    1  O   UNK     0       9.537  43.913  19.278  0.00  0.00    -0.384 OA
HETATM    2  H   UNK     0       9.329  44.345  18.437  0.00  0.00     0.211 HD
ENDROOT
BRANCH   1   3
HETATM    3  C   UNK     0       9.007  44.662  20.395  0.00  0.00     0.090 C 
HETATM    4  C   UNK     0       7.534  44.249  20.647  0.00  0.00    -0.000 C 
HETATM    5  C   UNK     0       6.871  44.727  19.329  0.00  0.00     0.034 C 
HETATM    6  C   UNK     0       7.482  42.730  20.857  0.00  0.00     0.045 C 
HETATM    7  C   UNK     0       6.902  44.965  21.873  0.00  0.00     0.019 C 
HETATM    8  C   UNK     0       7.566  46.077  19.035  0.00  0.00     0.012 C 
HETATM    9  C   UNK     0       8.855  46.103  19.886  0.00  0.00     0.044 C 
HETATM   10  C   UNK     0       8.373  42.293  22.038  0.00  0.00     0.128 C 
HETATM   11  C   UNK     0       9.856  42.815  21.966  0.00  0.00     0.055 C 
HETATM   12  C   UNK     0      10.725  42.468  23.254  0.00  0.00    -0.021 C 
HETATM   13  C   UNK     0       9.883  44.310  21.581  0.00  0.00    -0.034 C 
HETATM   14  C   UNK     0      11.994  43.368  23.308  0.00  0.00     0.071 C 
HETATM   15  C   UNK     0      11.151  40.953  23.270  0.00  0.00     0.045 C 
HETATM   16  C   UNK     0       9.910  42.730  24.551  0.00  0.00     0.017 C 
HETATM   17  C   UNK     0      13.064  43.058  22.245  0.00  0.00     0.047 C 
HETATM   18  C   UNK     0      11.626  44.834  23.214  0.00  0.00     0.154 C 
HETATM   19  C   UNK     0      13.103  41.595  21.820  0.00  0.00     0.147 C 
HETATM   20  C   UNK     0      12.616  40.669  22.926  0.00  0.00     0.147 C 
HETATM   21  O   UNK     0      12.179  45.690  23.901  0.00  0.00    -0.293 OA
HETATM   22  C   UNK     0      10.640  45.232  22.191  0.00  0.00     0.057 C 
BRANCH   5  23
HETATM   23  C   UNK     0       5.352  44.833  19.330  0.00  0.00     0.084 C 
HETATM   24  C   UNK     0       4.903  45.891  20.351  0.00  0.00     0.049 C 
BRANCH  23  25
HETATM   25  O   UNK     0       4.928  45.279  18.035  0.00  0.00    -0.387 OA
HETATM   26  H   UNK     0       5.672  45.723  17.596  0.00  0.00     0.210 HD
ENDBRANCH  23  25
BRANCH  23  27
HETATM   27  C   UNK     0       4.669  43.468  19.619  0.00  0.00     0.152 C 
BRANCH  27  28
HETATM   28  O   UNK     0       3.905  43.063  18.478  0.00  0.00    -0.393 OA
HETATM   29  H   UNK     0       3.896  42.091  18.465  0.00  0.00     0.210 HD
ENDBRANCH  27  28
BRANCH  27  30
HETATM   30  C   UNK     0       3.739  43.474  20.848  0.00  0.00     0.037 C 
BRANCH  30  31
HETATM   31  C   UNK     0       3.852  42.173  21.664  0.00  0.00     0.040 C 
BRANCH  31  32
HETATM   32  C   UNK     0       2.526  41.692  22.289  0.00  0.00     0.051 C 
HETATM   33  C   UNK     0       2.296  40.219  21.933  0.00  0.00     0.045 C 
HETATM   34  C   UNK     0       2.496  41.871  23.809  0.00  0.00     0.045 C 
BRANCH  32  35
HETATM   35  O   UNK     0       1.458  42.453  21.722  0.00  0.00    -0.391 OA
HETATM   36  H   UNK     0       1.149  42.003  20.918  0.00  0.00     0.210 HD
ENDBRANCH  32  35
ENDBRANCH  31  32
ENDBRANCH  30  31
ENDBRANCH  27  30
ENDBRANCH  23  27
ENDBRANCH   5  23
BRANCH  10  37
HETATM   37  O   UNK     0       8.346  40.869  22.080  0.00  0.00    -0.395 OA
HETATM   38  H   UNK     0       9.220  40.564  22.378  0.00  0.00     0.210 HD
ENDBRANCH  10  37
BRANCH  19  39
HETATM   39  O   UNK     0      14.437  41.262  21.444  0.00  0.00    -0.393 OA
HETATM   40  H   UNK     0      14.721  41.881  20.751  0.00  0.00     0.210 HD
ENDBRANCH  19  39
BRANCH  20  41
HETATM   41  O   UNK     0      13.411  40.837  24.101  0.00  0.00    -0.393 OA
HETATM   42  H   UNK     0      12.927  40.437  24.843  0.00  0.00     0.210 HD
ENDBRANCH  20  41
ENDBRANCH   1   3
TORSDOF 12
ENDMDL
MODEL 5
REMARK VINA RESULT:    -7.585      3.436      6.396
REMARK INTER + INTRA:         -11.323
REMARK INTER:                 -11.516
REMARK INTRA:                   0.194
REMARK UNBOUND:                 0.031
REMARK  12 active torsions:
REMARK  status: ('A' for Active; 'I' for Inactive)
REMARK    1  A    between atoms: O_1  and  C_10 
REMARK    2  A    between atoms: O_2  and  C_17 
REMARK    3  A    between atoms: O_3  and  C_20 
REMARK    4  A    between atoms: O_4  and  C_27 
REMARK    5  A    between atoms: O_6  and  C_29 
REMARK    6  A    between atoms: O_7  and  C_28 
REMARK    7  A    between atoms: O_8  and  C_33 
REMARK    8  A    between atoms: C_11  and  C_20 
REMARK    9  A    between atoms: C_20  and  C_28 
REMARK   10  A    between atoms: C_28  and  C_31 
REMARK   11  A    between atoms: C_31  and  C_32 
REMARK   12  A    between atoms: C_32  and  C_33 
ROOT
HETATM    1  O   UNK     0       3.738  44.274  23.920  0.00  0.00    -0.384 OA
HETATM    2  H   UNK     0       3.692  44.234  24.886  0.00  0.00     0.211 HD
ENDROOT
BRANCH   1   3
HETATM    3  C   UNK     0       3.564  42.965  23.333  0.00  0.00     0.090 C 
HETATM    4  C   UNK     0       4.654  42.730  22.255  0.00  0.00    -0.000 C 
HETATM    5  C   UNK     0       4.281  43.825  21.222  0.00  0.00     0.034 C 
HETATM    6  C   UNK     0       6.031  42.924  22.903  0.00  0.00     0.045 C 
HETATM    7  C   UNK     0       4.577  41.317  21.611  0.00  0.00     0.019 C 
HETATM    8  C   UNK     0       2.735  43.800  21.201  0.00  0.00     0.012 C 
HETATM    9  C   UNK     0       2.288  43.065  22.484  0.00  0.00     0.044 C 
HETATM   10  C   UNK     0       6.236  41.966  24.094  0.00  0.00     0.128 C 
HETATM   11  C   UNK     0       5.083  42.001  25.165  0.00  0.00     0.055 C 
HETATM   12  C   UNK     0       5.243  40.914  26.318  0.00  0.00    -0.021 C 
HETATM   13  C   UNK     0       3.703  41.979  24.474  0.00  0.00    -0.034 C 
HETATM   14  C   UNK     0       3.889  40.713  27.061  0.00  0.00     0.071 C 
HETATM   15  C   UNK     0       6.355  41.328  27.350  0.00  0.00     0.045 C 
HETATM   16  C   UNK     0       5.657  39.539  25.722  0.00  0.00     0.017 C 
HETATM   17  C   UNK     0       3.445  41.891  27.946  0.00  0.00     0.047 C 
HETATM   18  C   UNK     0       2.776  40.390  26.086  0.00  0.00     0.154 C 
HETATM   19  C   UNK     0       4.603  42.689  28.535  0.00  0.00     0.147 C 
HETATM   20  C   UNK     0       5.852  41.835  28.705  0.00  0.00     0.147 C 
HETATM   21  O   UNK     0       1.920  39.542  26.331  0.00  0.00    -0.293 OA
HETATM   22  C   UNK     0       2.681  41.201  24.857  0.00  0.00     0.057 C 
BRANCH   5  23
HETATM   23  C   UNK     0       4.893  43.691  19.835  0.00  0.00     0.084 C 
HETATM   24  C   UNK     0       6.188  42.865  19.915  0.00  0.00     0.049 C 
BRANCH  23  25
HETATM   25  O   UNK     0       3.976  42.969  19.003  0.00  0.00    -0.387 OA
HETATM   26  H   UNK     0       3.074  43.101  19.340  0.00  0.00     0.210 HD
ENDBRANCH  23  25
BRANCH  23  27
HETATM   27  C   UNK     0       5.162  45.070  19.175  0.00  0.00     0.152 C 
BRANCH  27  28
HETATM   28  O   UNK     0       5.943  44.891  17.989  0.00  0.00    -0.393 OA
HETATM   29  H   UNK     0       6.447  44.066  18.095  0.00  0.00     0.210 HD
ENDBRANCH  27  28
BRANCH  27  30
HETATM   30  C   UNK     0       5.891  46.077  20.087  0.00  0.00     0.037 C 
BRANCH  30  31
HETATM   31  C   UNK     0       7.261  46.485  19.518  0.00  0.00     0.040 C 
BRANCH  31  32
HETATM   32  C   UNK     0       8.470  45.971  20.327  0.00  0.00     0.051 C 
HETATM   33  C   UNK     0       8.003  45.510  21.712  0.00  0.00     0.045 C 
HETATM   34  C   UNK     0       9.207  44.830  19.620  0.00  0.00     0.045 C 
BRANCH  32  35
HETATM   35  O   UNK     0       9.384  47.054  20.510  0.00  0.00    -0.391 OA
HETATM   36  H   UNK     0       9.981  47.089  19.744  0.00  0.00     0.210 HD
ENDBRANCH  32  35
ENDBRANCH  31  32
ENDBRANCH  30  31
ENDBRANCH  27  30
ENDBRANCH  23  27
ENDBRANCH   5  23
BRANCH  10  37
HETATM   37  O   UNK     0       7.486  42.299  24.692  0.00  0.00    -0.395 OA
HETATM   38  H   UNK     0       7.512  41.887  25.572  0.00  0.00     0.210 HD
ENDBRANCH  10  37
BRANCH  19  39
HETATM   39  O   UNK     0       4.196  43.231  29.788  0.00  0.00    -0.393 OA
HETATM   40  H   UNK     0       4.993  43.470  30.290  0.00  0.00     0.210 HD
ENDBRANCH  19  39
BRANCH  20  41
HETATM   41  O   UNK     0       5.578  40.715  29.549  0.00  0.00    -0.393 OA
HETATM   42  H   UNK     0       5.765  40.983  30.464  0.00  0.00     0.210 HD
ENDBRANCH  20  41
ENDBRANCH   1   3
TORSDOF 12
ENDMDL
MODEL 6
REMARK VINA RESULT:    -7.415      3.212      8.141
REMARK INTER + INTRA:         -11.068
REMARK INTER:                 -11.158
REMARK INTRA:                   0.090
REMARK UNBOUND:                 0.031
REMARK  12 active torsions:
REMARK  status: ('A' for Active; 'I' for Inactive)
REMARK    1  A    between atoms: O_1  and  C_10 
REMARK    2  A    between atoms: O_2  and  C_17 
REMARK    3  A    between atoms: O_3  and  C_20 
REMARK    4  A    between atoms: O_4  and  C_27 
REMARK    5  A    between atoms: O_6  and  C_29 
REMARK    6  A    between atoms: O_7  and  C_28 
REMARK    7  A    between atoms: O_8  and  C_33 
REMARK    8  A    between atoms: C_11  and  C_20 
REMARK    9  A    between atoms: C_20  and  C_28 
REMARK   10  A    between atoms: C_28  and  C_31 
REMARK   11  A    between atoms: C_31  and  C_32 
REMARK   12  A    between atoms: C_32  and  C_33 
ROOT
HETATM    1  O   UNK     0       6.268  44.712  24.795  0.00  0.00    -0.384 OA
HETATM    2  H   UNK     0       6.831  45.141  25.455  0.00  0.00     0.211 HD
ENDROOT
BRANCH   1   3
HETATM    3  C   UNK     0       6.733  43.375  24.499  0.00  0.00     0.090 C 
HETATM    4  C   UNK     0       5.653  42.345  24.920  0.00  0.00    -0.000 C 
HETATM    5  C   UNK     0       5.625  42.567  26.455  0.00  0.00     0.034 C 
HETATM    6  C   UNK     0       4.338  42.699  24.213  0.00  0.00     0.045 C 
HETATM    7  C   UNK     0       6.047  40.880  24.582  0.00  0.00     0.019 C 
HETATM    8  C   UNK     0       7.113  42.767  26.825  0.00  0.00     0.012 C 
HETATM    9  C   UNK     0       7.854  43.100  25.512  0.00  0.00     0.044 C 
HETATM   10  C   UNK     0       4.506  42.707  22.680  0.00  0.00     0.128 C 
HETATM   11  C   UNK     0       5.698  43.592  22.158  0.00  0.00     0.055 C 
HETATM   12  C   UNK     0       5.940  43.486  20.588  0.00  0.00    -0.021 C 
HETATM   13  C   UNK     0       6.966  43.341  23.002  0.00  0.00    -0.034 C 
HETATM   14  C   UNK     0       7.359  44.013  20.224  0.00  0.00     0.071 C 
HETATM   15  C   UNK     0       4.855  44.291  19.782  0.00  0.00     0.045 C 
HETATM   16  C   UNK     0       5.857  42.006  20.120  0.00  0.00     0.017 C 
HETATM   17  C   UNK     0       7.550  45.534  20.361  0.00  0.00     0.047 C 
HETATM   18  C   UNK     0       8.426  43.314  21.040  0.00  0.00     0.154 C 
HETATM   19  C   UNK     0       6.278  46.338  20.113  0.00  0.00     0.147 C 
HETATM   20  C   UNK     0       5.323  45.616  19.172  0.00  0.00     0.147 C 
HETATM   21  O   UNK     0       9.495  42.959  20.549  0.00  0.00    -0.293 OA
HETATM   22  C   UNK     0       8.189  43.153  22.488  0.00  0.00     0.057 C 
BRANCH   5  23
HETATM   23  C   UNK     0       4.948  41.486  27.287  0.00  0.00     0.084 C 
HETATM   24  C   UNK     0       5.571  40.117  26.969  0.00  0.00     0.049 C 
BRANCH  23  25
HETATM   25  O   UNK     0       5.198  41.758  28.672  0.00  0.00    -0.387 OA
HETATM   26  H   UNK     0       5.744  41.045  29.040  0.00  0.00     0.210 HD
ENDBRANCH  23  25
BRANCH  23  27
HETATM   27  C   UNK     0       3.411  41.453  27.069  0.00  0.00     0.152 C 
BRANCH  27  28
HETATM   28  O   UNK     0       2.745  41.727  28.306  0.00  0.00    -0.393 OA
HETATM   29  H   UNK     0       3.405  42.102  28.914  0.00  0.00     0.210 HD
ENDBRANCH  27  28
BRANCH  27  30
HETATM   30  C   UNK     0       2.879  40.117  26.518  0.00  0.00     0.037 C 
BRANCH  30  31
HETATM   31  C   UNK     0       1.906  40.323  25.343  0.00  0.00     0.040 C 
BRANCH  31  32
HETATM   32  C   UNK     0       1.821  39.133  24.364  0.00  0.00     0.051 C 
HETATM   33  C   UNK     0       0.386  38.595  24.334  0.00  0.00     0.045 C 
HETATM   34  C   UNK     0       2.268  39.505  22.948  0.00  0.00     0.045 C 
BRANCH  32  35
HETATM   35  O   UNK     0       2.670  38.091  24.848  0.00  0.00    -0.391 OA
HETATM   36  H   UNK     0       3.174  38.428  25.607  0.00  0.00     0.210 HD
ENDBRANCH  32  35
ENDBRANCH  31  32
ENDBRANCH  30  31
ENDBRANCH  27  30
ENDBRANCH  23  27
ENDBRANCH   5  23
BRANCH  10  37
HETATM   37  O   UNK     0       3.271  43.153  22.124  0.00  0.00    -0.395 OA
HETATM   38  H   UNK     0       2.931  42.444  21.552  0.00  0.00     0.210 HD
ENDBRANCH  10  37
BRANCH  19  39
HETATM   39  O   UNK     0       6.636  47.609  19.579  0.00  0.00    -0.393 OA
HETATM   40  H   UNK     0       6.737  47.518  18.617  0.00  0.00     0.210 HD
ENDBRANCH  19  39
BRANCH  20  41
HETATM   41  O   UNK     0       5.963  45.352  17.922  0.00  0.00    -0.393 OA
HETATM   42  H   UNK     0       5.390  45.702  17.219  0.00  0.00     0.210 HD
ENDBRANCH  20  41
ENDBRANCH   1   3
TORSDOF 12
ENDMDL
MODEL 7
REMARK VINA RESULT:    -7.381      1.745      8.572
REMARK INTER + INTRA:         -11.017
REMARK INTER:                 -11.400
REMARK INTRA:                   0.383
REMARK UNBOUND:                 0.031
REMARK  12 active torsions:
REMARK  status: ('A' for Active; 'I' for Inactive)
REMARK    1  A    between atoms: O_1  and  C_10 
REMARK    2  A    between atoms: O_2  and  C_17 
REMARK    3  A    between atoms: O_3  and  C_20 
REMARK    4  A    between atoms: O_4  and  C_27 
REMARK    5  A    between atoms: O_6  and  C_29 
REMARK    6  A    between atoms: O_7  and  C_28 
REMARK    7  A    between atoms: O_8  and  C_33 
REMARK    8  A    between atoms: C_11  and  C_20 
REMARK    9  A    between atoms: C_20  and  C_28 
REMARK   10  A    between atoms: C_28  and  C_31 
REMARK   11  A    between atoms: C_31  and  C_32 
REMARK   12  A    between atoms: C_32  and  C_33 
ROOT
HETATM    1  O   UNK     0       7.227  41.847  20.928  0.00  0.00    -0.384 OA
HETATM    2  H   UNK     0       6.910  41.172  20.310  0.00  0.00     0.211 HD
ENDROOT
BRANCH   1   3
HETATM    3  C   UNK     0       6.997  43.178  20.411  0.00  0.00     0.090 C 
HETATM    4  C   UNK     0       6.160  43.993  21.430  0.00  0.00    -0.000 C 
HETATM    5  C   UNK     0       4.834  43.189  21.424  0.00  0.00     0.034 C 
HETATM    6  C   UNK     0       6.890  43.986  22.780  0.00  0.00     0.045 C 
HETATM    7  C   UNK     0       5.916  45.461  20.980  0.00  0.00     0.019 C 
HETATM    8  C   UNK     0       4.637  42.814  19.937  0.00  0.00     0.012 C 
HETATM    9  C   UNK     0       6.008  43.000  19.250  0.00  0.00     0.044 C 
HETATM   10  C   UNK     0       8.311  44.573  22.657  0.00  0.00     0.128 C 
HETATM   11  C   UNK     0       9.189  43.928  21.521  0.00  0.00     0.055 C 
HETATM   12  C   UNK     0      10.602  44.633  21.320  0.00  0.00    -0.021 C 
HETATM   13  C   UNK     0       8.370  43.789  20.220  0.00  0.00    -0.034 C 
HETATM   14  C   UNK     0      11.205  44.248  19.938  0.00  0.00     0.071 C 
HETATM   15  C   UNK     0      11.609  44.242  22.464  0.00  0.00     0.045 C 
HETATM   16  C   UNK     0      10.451  46.180  21.349  0.00  0.00     0.017 C 
HETATM   17  C   UNK     0      11.681  42.790  19.813  0.00  0.00     0.047 C 
HETATM   18  C   UNK     0      10.229  44.538  18.817  0.00  0.00     0.154 C 
HETATM   19  C   UNK     0      12.167  42.187  21.127  0.00  0.00     0.147 C 
HETATM   20  C   UNK     0      12.708  43.249  22.074  0.00  0.00     0.147 C 
HETATM   21  O   UNK     0      10.589  45.024  17.747  0.00  0.00    -0.293 OA
HETATM   22  C   UNK     0       8.824  44.126  19.004  0.00  0.00     0.057 C 
BRANCH   5  23
HETATM   23  C   UNK     0       3.617  43.877  22.026  0.00  0.00     0.084 C 
HETATM   24  C   UNK     0       3.713  45.395  21.803  0.00  0.00     0.049 C 
BRANCH  23  25
HETATM   25  O   UNK     0       2.448  43.415  21.337  0.00  0.00    -0.387 OA
HETATM   26  H   UNK     0       1.842  44.164  21.207  0.00  0.00     0.210 HD
ENDBRANCH  23  25
BRANCH  23  27
HETATM   27  C   UNK     0       3.447  43.555  23.536  0.00  0.00     0.152 C 
BRANCH  27  28
HETATM   28  O   UNK     0       4.141  44.535  24.316  0.00  0.00    -0.393 OA
HETATM   29  H   UNK     0       3.811  45.409  24.046  0.00  0.00     0.210 HD
ENDBRANCH  27  28
BRANCH  27  30
HETATM   30  C   UNK     0       3.956  42.160  23.947  0.00  0.00     0.037 C 
BRANCH  30  31
HETATM   31  C   UNK     0       2.819  41.260  24.463  0.00  0.00     0.040 C 
BRANCH  31  32
HETATM   32  C   UNK     0       2.048  40.504  23.360  0.00  0.00     0.051 C 
HETATM   33  C   UNK     0       3.029  40.028  22.283  0.00  0.00     0.045 C 
HETATM   34  C   UNK     0       1.258  39.313  23.908  0.00  0.00     0.045 C 
BRANCH  32  35
HETATM   35  O   UNK     0       1.131  41.413  22.748  0.00  0.00    -0.391 OA
HETATM   36  H   UNK     0       1.097  41.224  21.795  0.00  0.00     0.210 HD
ENDBRANCH  32  35
ENDBRANCH  31  32
ENDBRANCH  30  31
ENDBRANCH  27  30
ENDBRANCH  23  27
ENDBRANCH   5  23
BRANCH  10  37
HETATM   37  O   UNK     0       8.940  44.420  23.926  0.00  0.00    -0.395 OA
HETATM   38  H   UNK     0       8.256  44.517  24.610  0.00  0.00     0.210 HD
ENDBRANCH  10  37
BRANCH  19  39
HETATM   39  O   UNK     0      13.170  41.216  20.843  0.00  0.00    -0.393 OA
HETATM   40  H   UNK     0      12.837  40.629  20.143  0.00  0.00     0.210 HD
ENDBRANCH  19  39
BRANCH  20  41
HETATM   41  O   UNK     0      13.783  43.962  21.460  0.00  0.00    -0.393 OA
HETATM   42  H   UNK     0      13.866  44.817  21.914  0.00  0.00     0.210 HD
ENDBRANCH  20  41
ENDBRANCH   1   3
TORSDOF 12
ENDMDL
MODEL 8
REMARK VINA RESULT:    -7.247      2.533      5.325
REMARK INTER + INTRA:         -10.817
REMARK INTER:                 -10.641
REMARK INTRA:                  -0.175
REMARK UNBOUND:                 0.031
REMARK  12 active torsions:
REMARK  status: ('A' for Active; 'I' for Inactive)
REMARK    1  A    between atoms: O_1  and  C_10 
REMARK    2  A    between atoms: O_2  and  C_17 
REMARK    3  A    between atoms: O_3  and  C_20 
REMARK    4  A    between atoms: O_4  and  C_27 
REMARK    5  A    between atoms: O_6  and  C_29 
REMARK    6  A    between atoms: O_7  and  C_28 
REMARK    7  A    between atoms: O_8  and  C_33 
REMARK    8  A    between atoms: C_11  and  C_20 
REMARK    9  A    between atoms: C_20  and  C_28 
REMARK   10  A    between atoms: C_28  and  C_31 
REMARK   11  A    between atoms: C_31  and  C_32 
REMARK   12  A    between atoms: C_32  and  C_33 
ROOT
HETATM    1  O   UNK     0       4.136  44.864  23.537  0.00  0.00    -0.384 OA
HETATM    2  H   UNK     0       4.888  45.236  24.020  0.00  0.00     0.211 HD
ENDROOT
BRANCH   1   3
HETATM    3  C   UNK     0       4.515  43.668  22.819  0.00  0.00     0.090 C 
HETATM    4  C   UNK     0       5.882  43.892  22.122  0.00  0.00    -0.000 C 
HETATM    5  C   UNK     0       5.514  45.016  21.118  0.00  0.00     0.034 C 
HETATM    6  C   UNK     0       6.909  44.312  23.183  0.00  0.00     0.045 C 
HETATM    7  C   UNK     0       6.396  42.631  21.373  0.00  0.00     0.019 C 
HETATM    8  C   UNK     0       4.110  44.611  20.612  0.00  0.00     0.012 C 
HETATM    9  C   UNK     0       3.554  43.587  21.625  0.00  0.00     0.044 C 
HETATM   10  C   UNK     0       7.038  43.252  24.295  0.00  0.00     0.128 C 
HETATM   11  C   UNK     0       5.674  42.822  24.950  0.00  0.00     0.055 C 
HETATM   12  C   UNK     0       5.810  41.633  26.001  0.00  0.00    -0.021 C 
HETATM   13  C   UNK     0       4.608  42.573  23.862  0.00  0.00    -0.034 C 
HETATM   14  C   UNK     0       4.420  40.983  26.263  0.00  0.00     0.071 C 
HETATM   15  C   UNK     0       6.423  42.134  27.361  0.00  0.00     0.045 C 
HETATM   16  C   UNK     0       6.749  40.523  25.454  0.00  0.00     0.017 C 
HETATM   17  C   UNK     0       3.428  41.852  27.058  0.00  0.00     0.047 C 
HETATM   18  C   UNK     0       3.763  40.560  24.966  0.00  0.00     0.154 C 
HETATM   19  C   UNK     0       4.097  42.803  28.044  0.00  0.00     0.147 C 
HETATM   20  C   UNK     0       5.439  42.270  28.527  0.00  0.00     0.147 C 
HETATM   21  O   UNK     0       3.154  39.498  24.859  0.00  0.00    -0.293 OA
HETATM   22  C   UNK     0       3.787  41.513  23.839  0.00  0.00     0.057 C 
BRANCH   5  23
HETATM   23  C   UNK     0       6.501  45.268  19.987  0.00  0.00     0.084 C 
HETATM   24  C   UNK     0       6.881  43.936  19.320  0.00  0.00     0.049 C 
BRANCH  23  25
HETATM   25  O   UNK     0       5.855  46.076  18.994  0.00  0.00    -0.387 OA
HETATM   26  H   UNK     0       4.927  46.206  19.249  0.00  0.00     0.210 HD
ENDBRANCH  23  25
BRANCH  23  27
HETATM   27  C   UNK     0       7.770  46.020  20.472  0.00  0.00     0.152 C 
BRANCH  27  28
HETATM   28  O   UNK     0       7.888  47.263  19.771  0.00  0.00    -0.393 OA
HETATM   29  H   UNK     0       8.354  47.083  18.937  0.00  0.00     0.210 HD
ENDBRANCH  27  28
BRANCH  27  30
HETATM   30  C   UNK     0       9.082  45.233  20.286  0.00  0.00     0.037 C 
BRANCH  30  31
HETATM   31  C   UNK     0       9.993  45.328  21.524  0.00  0.00     0.040 C 
BRANCH  31  32
HETATM   32  C   UNK     0      10.617  43.988  21.965  0.00  0.00     0.051 C 
HETATM   33  C   UNK     0       9.924  42.834  21.232  0.00  0.00     0.045 C 
HETATM   34  C   UNK     0      12.126  43.933  21.713  0.00  0.00     0.045 C 
BRANCH  32  35
HETATM   35  O   UNK     0      10.385  43.822  23.365  0.00  0.00    -0.391 OA
HETATM   36  H   UNK     0      11.090  44.279  23.852  0.00  0.00     0.210 HD
ENDBRANCH  32  35
ENDBRANCH  31  32
ENDBRANCH  30  31
ENDBRANCH  27  30
ENDBRANCH  23  27
ENDBRANCH   5  23
BRANCH  10  37
HETATM   37  O   UNK     0       7.922  43.781  25.279  0.00  0.00    -0.395 OA
HETATM   38  H   UNK     0       7.542  43.588  26.153  0.00  0.00     0.210 HD
ENDBRANCH  10  37
BRANCH  19  39
HETATM   39  O   UNK     0       3.220  43.013  29.146  0.00  0.00    -0.393 OA
HETATM   40  H   UNK     0       3.178  43.967  29.326  0.00  0.00     0.210 HD
ENDBRANCH  19  39
BRANCH  20  41
HETATM   41  O   UNK     0       5.273  40.994  29.146  0.00  0.00    -0.393 OA
HETATM   42  H   UNK     0       4.319  40.843  29.259  0.00  0.00     0.210 HD
ENDBRANCH  20  41
ENDBRANCH   1   3
TORSDOF 12
ENDMDL
MODEL 9
REMARK VINA RESULT:    -7.234      2.193      9.181
REMARK INTER + INTRA:         -10.797
REMARK INTER:                 -10.828
REMARK INTRA:                   0.031
REMARK UNBOUND:                 0.031
REMARK  12 active torsions:
REMARK  status: ('A' for Active; 'I' for Inactive)
REMARK    1  A    between atoms: O_1  and  C_10 
REMARK    2  A    between atoms: O_2  and  C_17 
REMARK    3  A    between atoms: O_3  and  C_20 
REMARK    4  A    between atoms: O_4  and  C_27 
REMARK    5  A    between atoms: O_6  and  C_29 
REMARK    6  A    between atoms: O_7  and  C_28 
REMARK    7  A    between atoms: O_8  and  C_33 
REMARK    8  A    between atoms: C_11  and  C_20 
REMARK    9  A    between atoms: C_20  and  C_28 
REMARK   10  A    between atoms: C_28  and  C_31 
REMARK   11  A    between atoms: C_31  and  C_32 
REMARK   12  A    between atoms: C_32  and  C_33 
ROOT
HETATM    1  O   UNK     0      10.223  41.737  22.169  0.00  0.00    -0.384 OA
HETATM    2  H   UNK     0      10.365  41.045  21.508  0.00  0.00     0.211 HD
ENDROOT
BRANCH   1   3
HETATM    3  C   UNK     0      10.413  43.052  21.599  0.00  0.00     0.090 C 
HETATM    4  C   UNK     0       9.732  44.113  22.501  0.00  0.00    -0.000 C 
HETATM    5  C   UNK     0       8.245  43.692  22.372  0.00  0.00     0.034 C 
HETATM    6  C   UNK     0      10.297  43.982  23.922  0.00  0.00     0.045 C 
HETATM    7  C   UNK     0       9.939  45.567  21.992  0.00  0.00     0.019 C 
HETATM    8  C   UNK     0       8.100  43.306  20.881  0.00  0.00     0.012 C 
HETATM    9  C   UNK     0       9.531  43.083  20.343  0.00  0.00     0.044 C 
HETATM   10  C   UNK     0      11.829  44.163  23.939  0.00  0.00     0.128 C 
HETATM   11  C   UNK     0      12.606  43.248  22.921  0.00  0.00     0.055 C 
HETATM   12  C   UNK     0      14.170  43.541  22.857  0.00  0.00    -0.021 C 
HETATM   13  C   UNK     0      11.912  43.264  21.543  0.00  0.00    -0.034 C 
HETATM   14  C   UNK     0      14.779  42.937  21.558  0.00  0.00     0.071 C 
HETATM   15  C   UNK     0      14.917  42.956  24.113  0.00  0.00     0.045 C 
HETATM   16  C   UNK     0      14.441  45.071  22.833  0.00  0.00     0.017 C 
HETATM   17  C   UNK     0      14.853  41.400  21.521  0.00  0.00     0.047 C 
HETATM   18  C   UNK     0      14.031  43.417  20.332  0.00  0.00     0.154 C 
HETATM   19  C   UNK     0      15.026  40.759  22.894  0.00  0.00     0.147 C 
HETATM   20  C   UNK     0      15.739  41.687  23.868  0.00  0.00     0.147 C 
HETATM   21  O   UNK     0      14.613  43.733  19.296  0.00  0.00    -0.293 OA
HETATM   22  C   UNK     0      12.556  43.405  20.376  0.00  0.00     0.057 C 
BRANCH   5  23
HETATM   23  C   UNK     0       7.206  44.710  22.822  0.00  0.00     0.084 C 
HETATM   24  C   UNK     0       6.373  44.130  23.976  0.00  0.00     0.049 C 
BRANCH  23  25
HETATM   25  O   UNK     0       7.892  45.863  23.326  0.00  0.00    -0.387 OA
HETATM   26  H   UNK     0       8.040  46.486  22.596  0.00  0.00     0.210 HD
ENDBRANCH  23  25
BRANCH  23  27
HETATM   27  C   UNK     0       6.286  45.165  21.657  0.00  0.00     0.152 C 
BRANCH  27  28
HETATM   28  O   UNK     0       6.639  46.493  21.257  0.00  0.00    -0.393 OA
HETATM   29  H   UNK     0       7.068  46.922  22.018  0.00  0.00     0.210 HD
ENDBRANCH  27  28
BRANCH  27  30
HETATM   30  C   UNK     0       4.782  45.144  21.992  0.00  0.00     0.037 C 
BRANCH  30  31
HETATM   31  C   UNK     0       3.982  44.281  21.000  0.00  0.00     0.040 C 
BRANCH  31  32
HETATM   32  C   UNK     0       3.513  42.923  21.566  0.00  0.00     0.051 C 
HETATM   33  C   UNK     0       2.285  42.439  20.787  0.00  0.00     0.045 C 
HETATM   34  C   UNK     0       4.612  41.858  21.520  0.00  0.00     0.045 C 
BRANCH  32  35
HETATM   35  O   UNK     0       3.124  43.112  22.927  0.00  0.00    -0.391 OA
HETATM   36  H   UNK     0       3.501  42.393  23.461  0.00  0.00     0.210 HD
ENDBRANCH  32  35
ENDBRANCH  31  32
ENDBRANCH  30  31
ENDBRANCH  27  30
ENDBRANCH  23  27
ENDBRANCH   5  23
BRANCH  10  37
HETATM   37  O   UNK     0      12.266  43.914  25.272  0.00  0.00    -0.395 OA
HETATM   38  H   UNK     0      11.680  43.239  25.655  0.00  0.00     0.210 HD
ENDBRANCH  10  37
BRANCH  19  39
HETATM   39  O   UNK     0      15.753  39.543  22.743  0.00  0.00    -0.393 OA
HETATM   40  H   UNK     0      16.250  39.381  23.562  0.00  0.00     0.210 HD
ENDBRANCH  19  39
BRANCH  20  41
HETATM   41  O   UNK     0      17.021  42.054  23.356  0.00  0.00    -0.393 OA
HETATM   42  H   UNK     0      17.565  42.346  24.107  0.00  0.00     0.210 HD
ENDBRANCH  20  41
ENDBRANCH   1   3
TORSDOF 12
ENDMDL
