MODEL 1
REMARK VINA RESULT:      -8.5      0.000      0.000
REMARK  12 active torsions:
REMARK  status: ('A' for Active; 'I' for Inactive)
REMARK    1  A    between atoms: O_1  and  C_10 
REMARK    2  A    between atoms: O_2  and  C_17 
REMARK    3  A    between atoms: O_3  and  C_20 
REMARK    4  A    between atoms: O_4  and  C_27 
REMARK    5  A    between atoms: O_6  and  C_29 
REMARK    6  A    between atoms: O_7  and  C_28 
REMARK    7  A    between atoms: O_8  and  C_33 
REMARK    8  A    between atoms: C_11  and  C_20 
REMARK    9  A    between atoms: C_20  and  C_28 
REMARK   10  A    between atoms: C_28  and  C_31 
REMARK   11  A    between atoms: C_31  and  C_32 
REMARK   12  A    between atoms: C_32  and  C_33 
ROOT
HETATM    1  O   UNK     0       7.665  41.218  21.688  0.00  0.00    -0.384 OA
HETATM    2  H   UNK     0       6.741  40.970  21.539  0.00  0.00     0.211 HD
ENDROOT
BRANCH   1   3
HETATM    3  C   UNK     0       7.764  42.523  22.302  0.00  0.00     0.090 C 
HETATM    4  C   UNK     0       8.422  43.516  21.309  0.00  0.00    -0.000 C 
HETATM    5  C   UNK     0       9.834  42.890  21.169  0.00  0.00     0.034 C 
HETATM    6  C   UNK     0       7.607  43.518  20.008  0.00  0.00     0.045 C 
HETATM    7  C   UNK     0       8.513  44.963  21.868  0.00  0.00     0.019 C 
HETATM    8  C   UNK     0      10.177  42.430  22.605  0.00  0.00     0.012 C 
HETATM    9  C   UNK     0       8.844  42.385  23.384  0.00  0.00     0.044 C 
HETATM   10  C   UNK     0       6.137  43.907  20.264  0.00  0.00     0.128 C 
HETATM   11  C   UNK     0       5.425  43.069  21.390  0.00  0.00     0.055 C 
HETATM   12  C   UNK     0       3.953  43.569  21.733  0.00  0.00    -0.021 C 
HETATM   13  C   UNK     0       6.342  42.936  22.624  0.00  0.00    -0.034 C 
HETATM   14  C   UNK     0       3.498  43.004  23.110  0.00  0.00     0.071 C 
HETATM   15  C   UNK     0       2.925  43.141  20.620  0.00  0.00     0.045 C 
HETATM   16  C   UNK     0       3.909  45.120  21.827  0.00  0.00     0.017 C 
HETATM   17  C   UNK     0       3.215  41.491  23.137  0.00  0.00     0.047 C 
HETATM   18  C   UNK     0       4.506  43.329  24.192  0.00  0.00     0.154 C 
HETATM   19  C   UNK     0       2.719  40.934  21.808  0.00  0.00     0.147 C 
HETATM   20  C   UNK     0       1.987  41.987  20.988  0.00  0.00     0.147 C 
HETATM   21  O   UNK     0       4.163  43.681  25.319  0.00  0.00    -0.293 OA
HETATM   22  C   UNK     0       5.935  43.117  23.889  0.00  0.00     0.057 C 
BRANCH   5  23
HETATM   23  C   UNK     0      10.913  43.774  20.557  0.00  0.00     0.084 C 
HETATM   24  C   UNK     0      10.270  45.023  19.931  0.00  0.00     0.049 C 
BRANCH  23  25
HETATM   25  O   UNK     0      11.782  44.220  21.607  0.00  0.00    -0.387 OA
HETATM   26  H   UNK     0      12.141  43.445  22.069  0.00  0.00     0.210 HD
ENDBRANCH  23  25
BRANCH  23  27
HETATM   27  C   UNK     0      11.770  43.014  19.509  0.00  0.00     0.152 C 
BRANCH  27  28
HETATM   28  O   UNK     0      11.766  41.615  19.809  0.00  0.00    -0.393 OA
HETATM   29  H   UNK     0      12.622  41.402  20.218  0.00  0.00     0.210 HD
ENDBRANCH  27  28
BRANCH  27  30
HETATM   30  C   UNK     0      13.234  43.488  19.426  0.00  0.00     0.037 C 
BRANCH  30  31
HETATM   31  C   UNK     0      14.226  42.354  19.741  0.00  0.00     0.040 C 
BRANCH  31  32
HETATM   32  C   UNK     0      14.831  42.408  21.160  0.00  0.00     0.051 C 
HETATM   33  C   UNK     0      15.963  41.382  21.276  0.00  0.00     0.045 C 
HETATM   34  C   UNK     0      15.353  43.802  21.522  0.00  0.00     0.045 C 
BRANCH  32  35
HETATM   35  O   UNK     0      13.815  42.049  22.097  0.00  0.00    -0.391 OA
HETATM   36  H   UNK     0      14.089  41.239  22.558  0.00  0.00     0.210 HD
ENDBRANCH  32  35
ENDBRANCH  31  32
ENDBRANCH  30  31
ENDBRANCH  27  30
ENDBRANCH  23  27
ENDBRANCH   5  23
BRANCH  10  37
HETATM   37  O   UNK     0       5.445  43.772  19.026  0.00  0.00    -0.395 OA
HETATM   38  H   UNK     0       5.785  44.453  18.421  0.00  0.00     0.210 HD
ENDBRANCH  10  37
BRANCH  19  39
HETATM   39  O   UNK     0       1.865  39.823  22.067  0.00  0.00    -0.393 OA
HETATM   40  H   UNK     0       2.418  39.064  22.314  0.00  0.00     0.210 HD
ENDBRANCH  19  39
BRANCH  20  41
HETATM   41  O   UNK     0       0.877  42.506  21.723  0.00  0.00    -0.393 OA
HETATM   42  H   UNK     0       1.193  42.728  22.615  0.00  0.00     0.210 HD
ENDBRANCH  20  41
ENDBRANCH   1   3
TORSDOF 12
ENDMDL
MODEL 2
REMARK VINA RESULT:      -8.2      3.123      9.220
REMARK  12 active torsions:
REMARK  status: ('A' for Active; 'I' for Inactive)
REMARK    1  A    between atoms: O_1  and  C_10 
REMARK    2  A    between atoms: O_2  and  C_17 
REMARK    3  A    between atoms: O_3  and  C_20 
REMARK    4  A    between atoms: O_4  and  C_27 
REMARK    5  A    between atoms: O_6  and  C_29 
REMARK    6  A    between atoms: O_7  and  C_28 
REMARK    7  A    between atoms: O_8  and  C_33 
REMARK    8  A    between atoms: C_11  and  C_20 
REMARK    9  A    between atoms: C_20  and  C_28 
REMARK   10  A    between atoms: C_28  and  C_31 
REMARK   11  A    between atoms: C_31  and  C_32 
REMARK   12  A    between atoms: C_32  and  C_33 
ROOT
HETATM    1  O   UNK     0       4.558  42.032  19.924  0.00  0.00    -0.384 OA
HETATM    2  H   UNK     0       4.344  42.400  19.055  0.00  0.00     0.211 HD
ENDROOT
BRANCH   1   3
HETATM    3  C   UNK     0       3.981  42.827  20.985  0.00  0.00     0.090 C 
HETATM    4  C   UNK     0       3.934  41.995  22.292  0.00  0.00    -0.000 C 
HETATM    5  C   UNK     0       2.949  40.868  21.882  0.00  0.00     0.034 C 
HETATM    6  C   UNK     0       5.352  41.501  22.608  0.00  0.00     0.045 C 
HETATM    7  C   UNK     0       3.381  42.796  23.503  0.00  0.00     0.019 C 
HETATM    8  C   UNK     0       1.877  41.604  21.044  0.00  0.00     0.012 C 
HETATM    9  C   UNK     0       2.493  42.959  20.633  0.00  0.00     0.044 C 
HETATM   10  C   UNK     0       6.340  42.676  22.754  0.00  0.00     0.128 C 
HETATM   11  C   UNK     0       6.336  43.686  21.547  0.00  0.00     0.055 C 
HETATM   12  C   UNK     0       7.262  44.962  21.771  0.00  0.00    -0.021 C 
HETATM   13  C   UNK     0       4.888  44.031  21.137  0.00  0.00    -0.034 C 
HETATM   14  C   UNK     0       6.876  46.091  20.772  0.00  0.00     0.071 C 
HETATM   15  C   UNK     0       8.785  44.605  21.601  0.00  0.00     0.045 C 
HETATM   16  C   UNK     0       7.080  45.526  23.208  0.00  0.00     0.017 C 
HETATM   17  C   UNK     0       7.244  45.823  19.302  0.00  0.00     0.047 C 
HETATM   18  C   UNK     0       5.396  46.407  20.853  0.00  0.00     0.154 C 
HETATM   19  C   UNK     0       8.483  44.950  19.128  0.00  0.00     0.147 C 
HETATM   20  C   UNK     0       9.442  45.085  20.303  0.00  0.00     0.147 C 
HETATM   21  O   UNK     0       4.972  47.560  20.810  0.00  0.00    -0.293 OA
HETATM   22  C   UNK     0       4.452  45.273  20.885  0.00  0.00     0.057 C 
BRANCH   5  23
HETATM   23  C   UNK     0       2.352  40.041  23.012  0.00  0.00     0.084 C 
HETATM   24  C   UNK     0       3.225  40.172  24.271  0.00  0.00     0.049 C 
BRANCH  23  25
HETATM   25  O   UNK     0       1.060  40.574  23.329  0.00  0.00    -0.387 OA
HETATM   26  H   UNK     0       1.173  41.421  23.791  0.00  0.00     0.210 HD
ENDBRANCH  23  25
BRANCH  23  27
HETATM   27  C   UNK     0       2.178  38.549  22.618  0.00  0.00     0.152 C 
BRANCH  27  28
HETATM   28  O   UNK     0       1.077  38.417  21.713  0.00  0.00    -0.393 OA
HETATM   29  H   UNK     0       0.323  38.072  22.220  0.00  0.00     0.210 HD
ENDBRANCH  27  28
BRANCH  27  30
HETATM   30  C   UNK     0       1.939  37.603  23.811  0.00  0.00     0.037 C 
BRANCH  30  31
HETATM   31  C   UNK     0       0.641  36.791  23.654  0.00  0.00     0.040 C 
BRANCH  31  32
HETATM   32  C   UNK     0      -0.569  37.362  24.422  0.00  0.00     0.051 C 
HETATM   33  C   UNK     0      -1.605  36.255  24.644  0.00  0.00     0.045 C 
HETATM   34  C   UNK     0      -0.172  37.981  25.765  0.00  0.00     0.045 C 
BRANCH  32  35
HETATM   35  O   UNK     0      -1.175  38.376  23.619  0.00  0.00    -0.391 OA
HETATM   36  H   UNK     0      -0.755  38.370  22.742  0.00  0.00     0.210 HD
ENDBRANCH  32  35
ENDBRANCH  31  32
ENDBRANCH  30  31
ENDBRANCH  27  30
ENDBRANCH  23  27
ENDBRANCH   5  23
BRANCH  10  37
HETATM   37  O   UNK     0       7.638  42.115  22.933  0.00  0.00    -0.395 OA
HETATM   38  H   UNK     0       7.819  41.540  22.170  0.00  0.00     0.210 HD
ENDBRANCH  10  37
BRANCH  19  39
HETATM   39  O   UNK     0       9.131  45.313  17.913  0.00  0.00    -0.393 OA
HETATM   40  H   UNK     0       8.449  45.471  17.239  0.00  0.00     0.210 HD
ENDBRANCH  19  39
BRANCH  20  41
HETATM   41  O   UNK     0       9.845  46.446  20.462  0.00  0.00    -0.393 OA
HETATM   42  H   UNK     0      10.309  46.518  21.313  0.00  0.00     0.210 HD
ENDBRANCH  20  41
ENDBRANCH   1   3
TORSDOF 12
ENDMDL
MODEL 3
REMARK VINA RESULT:      -8.1      2.112      8.271
REMARK  12 active torsions:
REMARK  status: ('A' for Active; 'I' for Inactive)
REMARK    1  A    between atoms: O_1  and  C_10 
REMARK    2  A    between atoms: O_2  and  C_17 
REMARK    3  A    between atoms: O_3  and  C_20 
REMARK    4  A    between atoms: O_4  and  C_27 
REMARK    5  A    between atoms: O_6  and  C_29 
REMARK    6  A    between atoms: O_7  and  C_28 
REMARK    7  A    between atoms: O_8  and  C_33 
REMARK    8  A    between atoms: C_11  and  C_20 
REMARK    9  A    between atoms: C_20  and  C_28 
REMARK   10  A    between atoms: C_28  and  C_31 
REMARK   11  A    between atoms: C_31  and  C_32 
REMARK   12  A    between atoms: C_32  and  C_33 
ROOT
HETATM    1  O   UNK     0       7.428  41.770  23.317  0.00  0.00    -0.384 OA
HETATM    2  H   UNK     0       8.249  41.918  23.808  0.00  0.00     0.211 HD
ENDROOT
BRANCH   1   3
HETATM    3  C   UNK     0       7.460  42.434  22.033  0.00  0.00     0.090 C 
HETATM    4  C   UNK     0       6.235  43.375  21.903  0.00  0.00    -0.000 C 
HETATM    5  C   UNK     0       5.075  42.346  21.937  0.00  0.00     0.034 C 
HETATM    6  C   UNK     0       6.241  44.350  23.089  0.00  0.00     0.045 C 
HETATM    7  C   UNK     0       6.222  44.177  20.572  0.00  0.00     0.019 C 
HETATM    8  C   UNK     0       5.607  41.164  21.094  0.00  0.00     0.012 C 
HETATM    9  C   UNK     0       7.139  41.343  21.001  0.00  0.00     0.044 C 
HETATM   10  C   UNK     0       7.547  45.169  23.140  0.00  0.00     0.128 C 
HETATM   11  C   UNK     0       8.862  44.305  23.096  0.00  0.00     0.055 C 
HETATM   12  C   UNK     0      10.197  45.169  23.016  0.00  0.00    -0.021 C 
HETATM   13  C   UNK     0       8.756  43.218  22.006  0.00  0.00    -0.034 C 
HETATM   14  C   UNK     0      11.385  44.283  22.539  0.00  0.00     0.071 C 
HETATM   15  C   UNK     0      10.547  45.818  24.406  0.00  0.00     0.045 C 
HETATM   16  C   UNK     0      10.039  46.329  21.993  0.00  0.00     0.017 C 
HETATM   17  C   UNK     0      11.874  43.237  23.557  0.00  0.00     0.047 C 
HETATM   18  C   UNK     0      11.052  43.578  21.241  0.00  0.00     0.154 C 
HETATM   19  C   UNK     0      11.685  43.659  25.011  0.00  0.00     0.147 C 
HETATM   20  C   UNK     0      11.707  45.172  25.171  0.00  0.00     0.147 C 
HETATM   21  O   UNK     0      11.872  43.463  20.332  0.00  0.00    -0.293 OA
HETATM   22  C   UNK     0       9.728  42.935  21.127  0.00  0.00     0.057 C 
BRANCH   5  23
HETATM   23  C   UNK     0       3.713  42.840  21.470  0.00  0.00     0.084 C 
HETATM   24  C   UNK     0       3.434  44.233  22.056  0.00  0.00     0.049 C 
BRANCH  23  25
HETATM   25  O   UNK     0       3.746  42.975  20.043  0.00  0.00    -0.387 OA
HETATM   26  H   UNK     0       3.651  42.096  19.641  0.00  0.00     0.210 HD
ENDBRANCH  23  25
BRANCH  23  27
HETATM   27  C   UNK     0       2.572  41.852  21.836  0.00  0.00     0.152 C 
BRANCH  27  28
HETATM   28  O   UNK     0       1.373  42.584  22.110  0.00  0.00    -0.393 OA
HETATM   29  H   UNK     0       0.871  42.083  22.775  0.00  0.00     0.210 HD
ENDBRANCH  27  28
BRANCH  27  30
HETATM   30  C   UNK     0       2.879  40.954  23.050  0.00  0.00     0.037 C 
BRANCH  30  31
HETATM   31  C   UNK     0       2.380  41.574  24.368  0.00  0.00     0.040 C 
BRANCH  31  32
HETATM   32  C   UNK     0       3.464  41.724  25.456  0.00  0.00     0.051 C 
HETATM   33  C   UNK     0       4.588  40.712  25.204  0.00  0.00     0.045 C 
HETATM   34  C   UNK     0       4.043  43.140  25.517  0.00  0.00     0.045 C 
BRANCH  32  35
HETATM   35  O   UNK     0       2.876  41.421  26.723  0.00  0.00    -0.391 OA
HETATM   36  H   UNK     0       3.352  40.670  27.114  0.00  0.00     0.210 HD
ENDBRANCH  32  35
ENDBRANCH  31  32
ENDBRANCH  30  31
ENDBRANCH  27  30
ENDBRANCH  23  27
ENDBRANCH   5  23
BRANCH  10  37
HETATM   37  O   UNK     0       7.503  45.955  24.328  0.00  0.00    -0.395 OA
HETATM   38  H   UNK     0       8.195  45.625  24.927  0.00  0.00     0.210 HD
ENDBRANCH  10  37
BRANCH  19  39
HETATM   39  O   UNK     0      12.711  43.061  25.798  0.00  0.00    -0.393 OA
HETATM   40  H   UNK     0      13.132  43.756  26.330  0.00  0.00     0.210 HD
ENDBRANCH  19  39
BRANCH  20  41
HETATM   41  O   UNK     0      12.939  45.706  24.684  0.00  0.00    -0.393 OA
HETATM   42  H   UNK     0      12.727  46.462  24.111  0.00  0.00     0.210 HD
ENDBRANCH  20  41
ENDBRANCH   1   3
TORSDOF 12
ENDMDL
MODEL 4
REMARK VINA RESULT:      -8.1      2.009      8.201
REMARK  12 active torsions:
REMARK  status: ('A' for Active; 'I' for Inactive)
REMARK    1  A    between atoms: O_1  and  C_10 
REMARK    2  A    between atoms: O_2  and  C_17 
REMARK    3  A    between atoms: O_3  and  C_20 
REMARK    4  A    between atoms: O_4  and  C_27 
REMARK    5  A    between atoms: O_6  and  C_29 
REMARK    6  A    between atoms: O_7  and  C_28 
REMARK    7  A    between atoms: O_8  and  C_33 
REMARK    8  A    between atoms: C_11  and  C_20 
REMARK    9  A    between atoms: C_20  and  C_28 
REMARK   10  A    between atoms: C_28  and  C_31 
REMARK   11  A    between atoms: C_31  and  C_32 
REMARK   12  A    between atoms: C_32  and  C_33 
ROOT
HETATM    1  O   UNK     0       9.541  43.893  19.278  0.00  0.00    -0.384 OA
HETATM    2  H   UNK     0       9.091  43.043  19.165  0.00  0.00     0.211 HD
ENDROOT
BRANCH   1   3
HETATM    3  C   UNK     0       9.006  44.621  20.406  0.00  0.00     0.090 C 
HETATM    4  C   UNK     0       7.539  44.187  20.658  0.00  0.00    -0.000 C 
HETATM    5  C   UNK     0       6.865  44.673  19.348  0.00  0.00     0.034 C 
HETATM    6  C   UNK     0       7.506  42.665  20.850  0.00  0.00     0.045 C 
HETATM    7  C   UNK     0       6.904  44.880  21.895  0.00  0.00     0.019 C 
HETATM    8  C   UNK     0       7.543  46.035  19.070  0.00  0.00     0.012 C 
HETATM    9  C   UNK     0       8.835  46.066  19.915  0.00  0.00     0.044 C 
HETATM   10  C   UNK     0       8.407  42.224  22.021  0.00  0.00     0.128 C 
HETATM   11  C   UNK     0       9.883  42.766  21.950  0.00  0.00     0.055 C 
HETATM   12  C   UNK     0      10.762  42.412  23.231  0.00  0.00    -0.021 C 
HETATM   13  C   UNK     0       9.890  44.265  21.584  0.00  0.00    -0.034 C 
HETATM   14  C   UNK     0      12.019  43.327  23.291  0.00  0.00     0.071 C 
HETATM   15  C   UNK     0      11.206  40.903  23.226  0.00  0.00     0.045 C 
HETATM   16  C   UNK     0       9.949  42.649  24.535  0.00  0.00     0.017 C 
HETATM   17  C   UNK     0      13.089  43.044  22.221  0.00  0.00     0.047 C 
HETATM   18  C   UNK     0      11.634  44.790  23.217  0.00  0.00     0.154 C 
HETATM   19  C   UNK     0      13.145  41.586  21.777  0.00  0.00     0.147 C 
HETATM   20  C   UNK     0      12.674  40.641  22.873  0.00  0.00     0.147 C 
HETATM   21  O   UNK     0      12.179  45.644  23.913  0.00  0.00    -0.293 OA
HETATM   22  C   UNK     0      10.639  45.189  22.203  0.00  0.00     0.057 C 
BRANCH   5  23
HETATM   23  C   UNK     0       5.345  44.760  19.357  0.00  0.00     0.084 C 
HETATM   24  C   UNK     0       4.887  45.784  20.408  0.00  0.00     0.049 C 
BRANCH  23  25
HETATM   25  O   UNK     0       4.911  45.237  18.076  0.00  0.00    -0.387 OA
HETATM   26  H   UNK     0       5.680  45.583  17.592  0.00  0.00     0.210 HD
ENDBRANCH  23  25
BRANCH  23  27
HETATM   27  C   UNK     0       4.679  43.380  19.610  0.00  0.00     0.152 C 
BRANCH  27  28
HETATM   28  O   UNK     0       3.914  42.999  18.462  0.00  0.00    -0.393 OA
HETATM   29  H   UNK     0       3.383  42.223  18.711  0.00  0.00     0.210 HD
ENDBRANCH  27  28
BRANCH  27  30
HETATM   30  C   UNK     0       3.756  43.339  20.843  0.00  0.00     0.037 C 
BRANCH  30  31
HETATM   31  C   UNK     0       3.821  41.983  21.568  0.00  0.00     0.040 C 
BRANCH  31  32
HETATM   32  C   UNK     0       2.534  41.601  22.330  0.00  0.00     0.051 C 
HETATM   33  C   UNK     0       2.229  40.116  22.110  0.00  0.00     0.045 C 
HETATM   34  C   UNK     0       2.631  41.897  23.829  0.00  0.00     0.045 C 
BRANCH  32  35
HETATM   35  O   UNK     0       1.450  42.357  21.789  0.00  0.00    -0.391 OA
HETATM   36  H   UNK     0       0.785  42.488  22.485  0.00  0.00     0.210 HD
ENDBRANCH  32  35
ENDBRANCH  31  32
ENDBRANCH  30  31
ENDBRANCH  27  30
ENDBRANCH  23  27
ENDBRANCH   5  23
BRANCH  10  37
HETATM   37  O   UNK     0       8.397  40.799  22.046  0.00  0.00    -0.395 OA
HETATM   38  H   UNK     0       7.469  40.509  22.036  0.00  0.00     0.210 HD
ENDBRANCH  10  37
BRANCH  19  39
HETATM   39  O   UNK     0      14.481  41.275  21.392  0.00  0.00    -0.393 OA
HETATM   40  H   UNK     0      14.652  41.683  20.527  0.00  0.00     0.210 HD
ENDBRANCH  19  39
BRANCH  20  41
HETATM   41  O   UNK     0      13.470  40.805  24.048  0.00  0.00    -0.393 OA
HETATM   42  H   UNK     0      13.792  39.926  24.310  0.00  0.00     0.210 HD
ENDBRANCH  20  41
ENDBRANCH   1   3
TORSDOF 12
ENDMDL
MODEL 5
REMARK VINA RESULT:      -7.8      3.381      6.336
REMARK  12 active torsions:
REMARK  status: ('A' for Active; 'I' for Inactive)
REMARK    1  A    between atoms: O_1  and  C_10 
REMARK    2  A    between atoms: O_2  and  C_17 
REMARK    3  A    between atoms: O_3  and  C_20 
REMARK    4  A    between atoms: O_4  and  C_27 
REMARK    5  A    between atoms: O_6  and  C_29 
REMARK    6  A    between atoms: O_7  and  C_28 
REMARK    7  A    between atoms: O_8  and  C_33 
REMARK    8  A    between atoms: C_11  and  C_20 
REMARK    9  A    between atoms: C_20  and  C_28 
REMARK   10  A    between atoms: C_28  and  C_31 
REMARK   11  A    between atoms: C_31  and  C_32 
REMARK   12  A    between atoms: C_32  and  C_33 
ROOT
HETATM    1  O   UNK     0       3.748  44.280  23.943  0.00  0.00    -0.384 OA
HETATM    2  H   UNK     0       2.979  44.508  24.485  0.00  0.00     0.211 HD
ENDROOT
BRANCH   1   3
HETATM    3  C   UNK     0       3.600  42.970  23.350  0.00  0.00     0.090 C 
HETATM    4  C   UNK     0       4.720  42.745  22.301  0.00  0.00    -0.000 C 
HETATM    5  C   UNK     0       4.365  43.839  21.260  0.00  0.00     0.034 C 
HETATM    6  C   UNK     0       6.079  42.950  22.984  0.00  0.00     0.045 C 
HETATM    7  C   UNK     0       4.671  41.333  21.654  0.00  0.00     0.019 C 
HETATM    8  C   UNK     0       2.820  43.801  21.199  0.00  0.00     0.012 C 
HETATM    9  C   UNK     0       2.346  43.060  22.469  0.00  0.00     0.044 C 
HETATM   10  C   UNK     0       6.260  41.992  24.179  0.00  0.00     0.128 C 
HETATM   11  C   UNK     0       5.080  42.016  25.220  0.00  0.00     0.055 C 
HETATM   12  C   UNK     0       5.218  40.929  26.376  0.00  0.00    -0.021 C 
HETATM   13  C   UNK     0       3.718  41.984  24.494  0.00  0.00    -0.034 C 
HETATM   14  C   UNK     0       3.847  40.716  27.083  0.00  0.00     0.071 C 
HETATM   15  C   UNK     0       6.300  41.350  27.437  0.00  0.00     0.045 C 
HETATM   16  C   UNK     0       5.658  39.558  25.789  0.00  0.00     0.017 C 
HETATM   17  C   UNK     0       3.370  41.889  27.957  0.00  0.00     0.047 C 
HETATM   18  C   UNK     0       2.762  40.385  26.079  0.00  0.00     0.154 C 
HETATM   19  C   UNK     0       4.507  42.696  28.577  0.00  0.00     0.147 C 
HETATM   20  C   UNK     0       5.758  41.852  28.779  0.00  0.00     0.147 C 
HETATM   21  O   UNK     0       1.908  39.530  26.301  0.00  0.00    -0.293 OA
HETATM   22  C   UNK     0       2.693  41.197  24.849  0.00  0.00     0.057 C 
BRANCH   5  23
HETATM   23  C   UNK     0       5.014  43.711  19.889  0.00  0.00     0.084 C 
HETATM   24  C   UNK     0       6.312  42.894  20.001  0.00  0.00     0.049 C 
BRANCH  23  25
HETATM   25  O   UNK     0       4.123  42.985  19.032  0.00  0.00    -0.387 OA
HETATM   26  H   UNK     0       4.482  42.988  18.129  0.00  0.00     0.210 HD
ENDBRANCH  23  25
BRANCH  23  27
HETATM   27  C   UNK     0       5.292  45.094  19.239  0.00  0.00     0.152 C 
BRANCH  27  28
HETATM   28  O   UNK     0       6.061  44.917  18.045  0.00  0.00    -0.393 OA
HETATM   29  H   UNK     0       6.810  45.536  18.087  0.00  0.00     0.210 HD
ENDBRANCH  27  28
BRANCH  27  30
HETATM   30  C   UNK     0       6.038  46.085  20.154  0.00  0.00     0.037 C 
BRANCH  30  31
HETATM   31  C   UNK     0       7.407  46.485  19.576  0.00  0.00     0.040 C 
BRANCH  31  32
HETATM   32  C   UNK     0       8.618  45.984  20.392  0.00  0.00     0.051 C 
HETATM   33  C   UNK     0       8.148  45.515  21.773  0.00  0.00     0.045 C 
HETATM   34  C   UNK     0       9.372  44.854  19.687  0.00  0.00     0.045 C 
BRANCH  32  35
HETATM   35  O   UNK     0       9.517  47.078  20.582  0.00  0.00    -0.391 OA
HETATM   36  H   UNK     0       8.999  47.898  20.646  0.00  0.00     0.210 HD
ENDBRANCH  32  35
ENDBRANCH  31  32
ENDBRANCH  30  31
ENDBRANCH  27  30
ENDBRANCH  23  27
ENDBRANCH   5  23
BRANCH  10  37
HETATM   37  O   UNK     0       7.491  42.334  24.810  0.00  0.00    -0.395 OA
HETATM   38  H   UNK     0       8.212  42.065  24.216  0.00  0.00     0.210 HD
ENDBRANCH  10  37
BRANCH  19  39
HETATM   39  O   UNK     0       4.063  43.233  29.820  0.00  0.00    -0.393 OA
HETATM   40  H   UNK     0       3.771  42.497  30.383  0.00  0.00     0.210 HD
ENDBRANCH  19  39
BRANCH  20  41
HETATM   41  O   UNK     0       5.470  40.729  29.614  0.00  0.00    -0.393 OA
HETATM   42  H   UNK     0       4.751  40.227  29.195  0.00  0.00     0.210 HD
ENDBRANCH  20  41
ENDBRANCH   1   3
TORSDOF 12
ENDMDL
MODEL 6
REMARK VINA RESULT:      -7.6      3.087      8.756
REMARK  12 active torsions:
REMARK  status: ('A' for Active; 'I' for Inactive)
REMARK    1  A    between atoms: O_1  and  C_10 
REMARK    2  A    between atoms: O_2  and  C_17 
REMARK    3  A    between atoms: O_3  and  C_20 
REMARK    4  A    between atoms: O_4  and  C_27 
REMARK    5  A    between atoms: O_6  and  C_29 
REMARK    6  A    between atoms: O_7  and  C_28 
REMARK    7  A    between atoms: O_8  and  C_33 
REMARK    8  A    between atoms: C_11  and  C_20 
REMARK    9  A    between atoms: C_20  and  C_28 
REMARK   10  A    between atoms: C_28  and  C_31 
REMARK   11  A    between atoms: C_31  and  C_32 
REMARK   12  A    between atoms: C_32  and  C_33 
ROOT
HETATM    1  O   UNK     0       4.402  44.619  22.858  0.00  0.00    -0.384 OA
HETATM    2  H   UNK     0       3.516  44.274  23.039  0.00  0.00     0.211 HD
ENDROOT
BRANCH   1   3
HETATM    3  C   UNK     0       5.409  43.880  23.587  0.00  0.00     0.090 C 
HETATM    4  C   UNK     0       5.065  42.369  23.563  0.00  0.00    -0.000 C 
HETATM    5  C   UNK     0       3.730  42.363  24.354  0.00  0.00     0.034 C 
HETATM    6  C   UNK     0       4.927  41.922  22.101  0.00  0.00     0.045 C 
HETATM    7  C   UNK     0       6.131  41.491  24.275  0.00  0.00     0.019 C 
HETATM    8  C   UNK     0       3.971  43.386  25.488  0.00  0.00     0.012 C 
HETATM    9  C   UNK     0       5.188  44.237  25.064  0.00  0.00     0.044 C 
HETATM   10  C   UNK     0       6.219  42.194  21.303  0.00  0.00     0.128 C 
HETATM   11  C   UNK     0       6.754  43.670  21.409  0.00  0.00     0.055 C 
HETATM   12  C   UNK     0       8.156  43.900  20.690  0.00  0.00    -0.021 C 
HETATM   13  C   UNK     0       6.718  44.153  22.874  0.00  0.00    -0.034 C 
HETATM   14  C   UNK     0       8.814  45.215  21.199  0.00  0.00     0.071 C 
HETATM   15  C   UNK     0       7.999  43.959  19.126  0.00  0.00     0.045 C 
HETATM   16  C   UNK     0       9.133  42.734  21.010  0.00  0.00     0.017 C 
HETATM   17  C   UNK     0       8.128  46.514  20.737  0.00  0.00     0.047 C 
HETATM   18  C   UNK     0       8.909  45.228  22.711  0.00  0.00     0.154 C 
HETATM   19  C   UNK     0       7.447  46.400  19.378  0.00  0.00     0.147 C 
HETATM   20  C   UNK     0       8.111  45.351  18.496  0.00  0.00     0.147 C 
HETATM   21  O   UNK     0       9.903  45.651  23.298  0.00  0.00    -0.293 OA
HETATM   22  C   UNK     0       7.722  44.803  23.479  0.00  0.00     0.057 C 
BRANCH   5  23
HETATM   23  C   UNK     0       3.248  41.013  24.866  0.00  0.00     0.084 C 
HETATM   24  C   UNK     0       4.413  40.262  25.532  0.00  0.00     0.049 C 
BRANCH  23  25
HETATM   25  O   UNK     0       2.254  41.240  25.874  0.00  0.00    -0.387 OA
HETATM   26  H   UNK     0       1.694  41.986  25.601  0.00  0.00     0.210 HD
ENDBRANCH  23  25
BRANCH  23  27
HETATM   27  C   UNK     0       2.611  40.152  23.743  0.00  0.00     0.152 C 
BRANCH  27  28
HETATM   28  O   UNK     0       1.560  40.889  23.111  0.00  0.00    -0.393 OA
HETATM   29  H   UNK     0       1.310  40.407  22.304  0.00  0.00     0.210 HD
ENDBRANCH  27  28
BRANCH  27  30
HETATM   30  C   UNK     0       2.036  38.806  24.226  0.00  0.00     0.037 C 
BRANCH  30  31
HETATM   31  C   UNK     0       0.552  38.644  23.849  0.00  0.00     0.040 C 
BRANCH  31  32
HETATM   32  C   UNK     0       0.252  37.440  22.932  0.00  0.00     0.051 C 
HETATM   33  C   UNK     0       1.128  37.520  21.677  0.00  0.00     0.045 C 
HETATM   34  C   UNK     0       0.472  36.097  23.635  0.00  0.00     0.045 C 
BRANCH  32  35
HETATM   35  O   UNK     0      -1.114  37.517  22.520  0.00  0.00    -0.391 OA
HETATM   36  H   UNK     0      -1.463  38.390  22.764  0.00  0.00     0.210 HD
ENDBRANCH  32  35
ENDBRANCH  31  32
ENDBRANCH  30  31
ENDBRANCH  27  30
ENDBRANCH  23  27
ENDBRANCH   5  23
BRANCH  10  37
HETATM   37  O   UNK     0       5.954  41.853  19.945  0.00  0.00    -0.395 OA
HETATM   38  H   UNK     0       5.118  41.356  19.922  0.00  0.00     0.210 HD
ENDBRANCH  10  37
BRANCH  19  39
HETATM   39  O   UNK     0       7.476  47.674  18.743  0.00  0.00    -0.393 OA
HETATM   40  H   UNK     0       8.369  48.045  18.844  0.00  0.00     0.210 HD
ENDBRANCH  19  39
BRANCH  20  41
HETATM   41  O   UNK     0       9.492  45.665  18.305  0.00  0.00    -0.393 OA
HETATM   42  H   UNK     0       9.854  45.935  19.165  0.00  0.00     0.210 HD
ENDBRANCH  20  41
ENDBRANCH   1   3
TORSDOF 12
ENDMDL
MODEL 7
REMARK VINA RESULT:      -7.5      3.896      7.469
REMARK  12 active torsions:
REMARK  status: ('A' for Active; 'I' for Inactive)
REMARK    1  A    between atoms: O_1  and  C_10 
REMARK    2  A    between atoms: O_2  and  C_17 
REMARK    3  A    between atoms: O_3  and  C_20 
REMARK    4  A    between atoms: O_4  and  C_27 
REMARK    5  A    between atoms: O_6  and  C_29 
REMARK    6  A    between atoms: O_7  and  C_28 
REMARK    7  A    between atoms: O_8  and  C_33 
REMARK    8  A    between atoms: C_11  and  C_20 
REMARK    9  A    between atoms: C_20  and  C_28 
REMARK   10  A    between atoms: C_28  and  C_31 
REMARK   11  A    between atoms: C_31  and  C_32 
REMARK   12  A    between atoms: C_32  and  C_33 
ROOT
HETATM    1  O   UNK     0       3.871  43.049  25.892  0.00  0.00    -0.384 OA
HETATM    2  H   UNK     0       3.086  42.712  26.347  0.00  0.00     0.211 HD
ENDROOT
BRANCH   1   3
HETATM    3  C   UNK     0       4.441  42.046  25.020  0.00  0.00     0.090 C 
HETATM    4  C   UNK     0       4.821  42.693  23.663  0.00  0.00    -0.000 C 
HETATM    5  C   UNK     0       3.423  43.114  23.141  0.00  0.00     0.034 C 
HETATM    6  C   UNK     0       5.769  43.870  23.931  0.00  0.00     0.045 C 
HETATM    7  C   UNK     0       5.497  41.694  22.682  0.00  0.00     0.019 C 
HETATM    8  C   UNK     0       2.509  41.933  23.542  0.00  0.00     0.012 C 
HETATM    9  C   UNK     0       3.269  41.136  24.626  0.00  0.00     0.044 C 
HETATM   10  C   UNK     0       7.035  43.414  24.685  0.00  0.00     0.128 C 
HETATM   11  C   UNK     0       6.754  42.588  25.995  0.00  0.00     0.055 C 
HETATM   12  C   UNK     0       8.067  42.014  26.689  0.00  0.00    -0.021 C 
HETATM   13  C   UNK     0       5.668  41.523  25.738  0.00  0.00    -0.034 C 
HETATM   14  C   UNK     0       7.698  40.876  27.685  0.00  0.00     0.071 C 
HETATM   15  C   UNK     0       8.859  43.143  27.447  0.00  0.00     0.045 C 
HETATM   16  C   UNK     0       9.029  41.411  25.627  0.00  0.00     0.017 C 
HETATM   17  C   UNK     0       6.970  41.332  28.962  0.00  0.00     0.047 C 
HETATM   18  C   UNK     0       6.865  39.808  27.007  0.00  0.00     0.154 C 
HETATM   19  C   UNK     0       7.344  42.740  29.414  0.00  0.00     0.147 C 
HETATM   20  C   UNK     0       8.751  43.122  28.975  0.00  0.00     0.147 C 
HETATM   21  O   UNK     0       7.042  38.610  27.219  0.00  0.00    -0.293 OA
HETATM   22  C   UNK     0       5.751  40.248  26.144  0.00  0.00     0.057 C 
BRANCH   5  23
HETATM   23  C   UNK     0       3.324  43.462  21.662  0.00  0.00     0.084 C 
HETATM   24  C   UNK     0       3.196  42.175  20.831  0.00  0.00     0.049 C 
BRANCH  23  25
HETATM   25  O   UNK     0       2.129  44.226  21.455  0.00  0.00    -0.387 OA
HETATM   26  H   UNK     0       1.397  43.803  21.934  0.00  0.00     0.210 HD
ENDBRANCH  23  25
BRANCH  23  27
HETATM   27  C   UNK     0       4.531  44.310  21.177  0.00  0.00     0.152 C 
BRANCH  27  28
HETATM   28  O   UNK     0       4.206  45.702  21.265  0.00  0.00    -0.393 OA
HETATM   29  H   UNK     0       3.251  45.788  21.102  0.00  0.00     0.210 HD
ENDBRANCH  27  28
BRANCH  27  30
HETATM   30  C   UNK     0       4.977  44.008  19.734  0.00  0.00     0.037 C 
BRANCH  30  31
HETATM   31  C   UNK     0       5.503  45.265  19.016  0.00  0.00     0.040 C 
BRANCH  31  32
HETATM   32  C   UNK     0       7.039  45.409  19.020  0.00  0.00     0.051 C 
HETATM   33  C   UNK     0       7.444  46.566  19.940  0.00  0.00     0.045 C 
HETATM   34  C   UNK     0       7.748  44.124  19.457  0.00  0.00     0.045 C 
BRANCH  32  35
HETATM   35  O   UNK     0       7.465  45.732  17.695  0.00  0.00    -0.391 OA
HETATM   36  H   UNK     0       7.669  44.906  17.225  0.00  0.00     0.210 HD
ENDBRANCH  32  35
ENDBRANCH  31  32
ENDBRANCH  30  31
ENDBRANCH  27  30
ENDBRANCH  23  27
ENDBRANCH   5  23
BRANCH  10  37
HETATM   37  O   UNK     0       7.790  44.585  24.984  0.00  0.00    -0.395 OA
HETATM   38  H   UNK     0       8.025  45.009  24.141  0.00  0.00     0.210 HD
ENDBRANCH  10  37
BRANCH  19  39
HETATM   39  O   UNK     0       7.229  42.812  30.832  0.00  0.00    -0.393 OA
HETATM   40  H   UNK     0       8.088  43.086  31.194  0.00  0.00     0.210 HD
ENDBRANCH  19  39
BRANCH  20  41
HETATM   41  O   UNK     0       9.704  42.193  29.496  0.00  0.00    -0.393 OA
HETATM   42  H   UNK     0      10.253  41.888  28.754  0.00  0.00     0.210 HD
ENDBRANCH  20  41
ENDBRANCH   1   3
TORSDOF 12
ENDMDL
MODEL 8
REMARK VINA RESULT:      -7.5      2.202      9.139
REMARK  12 active torsions:
REMARK  status: ('A' for Active; 'I' for Inactive)
REMARK    1  A    between atoms: O_1  and  C_10 
REMARK    2  A    between atoms: O_2  and  C_17 
REMARK    3  A    between atoms: O_3  and  C_20 
REMARK    4  A    between atoms: O_4  and  C_27 
REMARK    5  A    between atoms: O_6  and  C_29 
REMARK    6  A    between atoms: O_7  and  C_28 
REMARK    7  A    between atoms: O_8  and  C_33 
REMARK    8  A    between atoms: C_11  and  C_20 
REMARK    9  A    between atoms: C_20  and  C_28 
REMARK   10  A    between atoms: C_28  and  C_31 
REMARK   11  A    between atoms: C_31  and  C_32 
REMARK   12  A    between atoms: C_32  and  C_33 
ROOT
HETATM    1  O   UNK     0      10.224  41.758  22.033  0.00  0.00    -0.384 OA
HETATM    2  H   UNK     0      10.920  41.134  21.779  0.00  0.00     0.211 HD
ENDROOT
BRANCH   1   3
HETATM    3  C   UNK     0      10.476  43.073  21.489  0.00  0.00     0.090 C 
HETATM    4  C   UNK     0       9.758  44.140  22.355  0.00  0.00    -0.000 C 
HETATM    5  C   UNK     0       8.275  43.749  22.126  0.00  0.00     0.034 C 
HETATM    6  C   UNK     0      10.228  43.986  23.808  0.00  0.00     0.045 C 
HETATM    7  C   UNK     0      10.025  45.594  21.874  0.00  0.00     0.019 C 
HETATM    8  C   UNK     0       8.220  43.378  20.626  0.00  0.00     0.012 C 
HETATM    9  C   UNK     0       9.678  43.132  20.178  0.00  0.00     0.044 C 
HETATM   10  C   UNK     0      11.758  44.137  23.926  0.00  0.00     0.128 C 
HETATM   11  C   UNK     0      12.582  43.216  22.951  0.00  0.00     0.055 C 
HETATM   12  C   UNK     0      14.153  43.478  22.991  0.00  0.00    -0.021 C 
HETATM   13  C   UNK     0      11.979  43.257  21.531  0.00  0.00    -0.034 C 
HETATM   14  C   UNK     0      14.832  42.873  21.728  0.00  0.00     0.071 C 
HETATM   15  C   UNK     0      14.806  42.869  24.286  0.00  0.00     0.045 C 
HETATM   16  C   UNK     0      14.453  45.003  22.998  0.00  0.00     0.017 C 
HETATM   17  C   UNK     0      14.879  41.335  21.681  0.00  0.00     0.047 C 
HETATM   18  C   UNK     0      14.175  43.378  20.461  0.00  0.00     0.154 C 
HETATM   19  C   UNK     0      14.951  40.680  23.056  0.00  0.00     0.147 C 
HETATM   20  C   UNK     0      15.617  41.585  24.083  0.00  0.00     0.147 C 
HETATM   21  O   UNK     0      14.828  43.690  19.467  0.00  0.00    -0.293 OA
HETATM   22  C   UNK     0      12.700  43.394  20.410  0.00  0.00     0.057 C 
BRANCH   5  23
HETATM   23  C   UNK     0       7.229  44.784  22.518  0.00  0.00     0.084 C 
HETATM   24  C   UNK     0       6.338  44.226  23.639  0.00  0.00     0.049 C 
BRANCH  23  25
HETATM   25  O   UNK     0       7.905  45.935  23.040  0.00  0.00    -0.387 OA
HETATM   26  H   UNK     0       7.719  46.005  23.991  0.00  0.00     0.210 HD
ENDBRANCH  23  25
BRANCH  23  27
HETATM   27  C   UNK     0       6.368  45.236  21.307  0.00  0.00     0.152 C 
BRANCH  27  28
HETATM   28  O   UNK     0       6.663  46.600  20.991  0.00  0.00    -0.393 OA
HETATM   29  H   UNK     0       5.815  47.066  20.891  0.00  0.00     0.210 HD
ENDBRANCH  27  28
BRANCH  27  30
HETATM   30  C   UNK     0       4.848  45.108  21.529  0.00  0.00     0.037 C 
BRANCH  30  31
HETATM   31  C   UNK     0       4.213  44.066  20.589  0.00  0.00     0.040 C 
BRANCH  31  32
HETATM   32  C   UNK     0       3.609  42.841  21.306  0.00  0.00     0.051 C 
HETATM   33  C   UNK     0       2.377  42.353  20.538  0.00  0.00     0.045 C 
HETATM   34  C   UNK     0       4.615  41.696  21.459  0.00  0.00     0.045 C 
BRANCH  32  35
HETATM   35  O   UNK     0       3.183  43.245  22.609  0.00  0.00    -0.391 OA
HETATM   36  H   UNK     0       3.695  42.750  23.270  0.00  0.00     0.210 HD
ENDBRANCH  32  35
ENDBRANCH  31  32
ENDBRANCH  30  31
ENDBRANCH  27  30
ENDBRANCH  23  27
ENDBRANCH   5  23
BRANCH  10  37
HETATM   37  O   UNK     0      12.104  43.868  25.282  0.00  0.00    -0.395 OA
HETATM   38  H   UNK     0      11.467  43.220  25.627  0.00  0.00     0.210 HD
ENDBRANCH  10  37
BRANCH  19  39
HETATM   39  O   UNK     0      15.663  39.451  22.941  0.00  0.00    -0.393 OA
HETATM   40  H   UNK     0      16.196  39.331  23.745  0.00  0.00     0.210 HD
ENDBRANCH  19  39
BRANCH  20  41
HETATM   41  O   UNK     0      16.937  41.932  23.659  0.00  0.00    -0.393 OA
HETATM   42  H   UNK     0      16.870  42.305  22.764  0.00  0.00     0.210 HD
ENDBRANCH  20  41
ENDBRANCH   1   3
TORSDOF 12
ENDMDL
MODEL 9
REMARK VINA RESULT:      -7.4      3.184      8.275
REMARK  12 active torsions:
REMARK  status: ('A' for Active; 'I' for Inactive)
REMARK    1  A    between atoms: O_1  and  C_10 
REMARK    2  A    between atoms: O_2  and  C_17 
REMARK    3  A    between atoms: O_3  and  C_20 
REMARK    4  A    between atoms: O_4  and  C_27 
REMARK    5  A    between atoms: O_6  and  C_29 
REMARK    6  A    between atoms: O_7  and  C_28 
REMARK    7  A    between atoms: O_8  and  C_33 
REMARK    8  A    between atoms: C_11  and  C_20 
REMARK    9  A    between atoms: C_20  and  C_28 
REMARK   10  A    between atoms: C_28  and  C_31 
REMARK   11  A    between atoms: C_31  and  C_32 
REMARK   12  A    between atoms: C_32  and  C_33 
ROOT
HETATM    1  O   UNK     0       6.323  44.690  24.800  0.00  0.00    -0.384 OA
HETATM    2  H   UNK     0       5.371  44.708  24.974  0.00  0.00     0.211 HD
ENDROOT
BRANCH   1   3
HETATM    3  C   UNK     0       6.776  43.351  24.499  0.00  0.00     0.090 C 
HETATM    4  C   UNK     0       5.690  42.328  24.921  0.00  0.00    -0.000 C 
HETATM    5  C   UNK     0       5.670  42.545  26.457  0.00  0.00     0.034 C 
HETATM    6  C   UNK     0       4.375  42.694  24.221  0.00  0.00     0.045 C 
HETATM    7  C   UNK     0       6.071  40.861  24.577  0.00  0.00     0.019 C 
HETATM    8  C   UNK     0       7.161  42.732  26.821  0.00  0.00     0.012 C 
HETATM    9  C   UNK     0       7.899  43.063  25.505  0.00  0.00     0.044 C 
HETATM   10  C   UNK     0       4.536  42.706  22.687  0.00  0.00     0.128 C 
HETATM   11  C   UNK     0       5.733  43.582  22.163  0.00  0.00     0.055 C 
HETATM   12  C   UNK     0       5.967  43.479  20.591  0.00  0.00    -0.021 C 
HETATM   13  C   UNK     0       7.002  43.319  23.001  0.00  0.00    -0.034 C 
HETATM   14  C   UNK     0       7.389  43.996  20.222  0.00  0.00     0.071 C 
HETATM   15  C   UNK     0       4.885  44.295  19.792  0.00  0.00     0.045 C 
HETATM   16  C   UNK     0       5.870  42.001  20.119  0.00  0.00     0.017 C 
HETATM   17  C   UNK     0       7.592  45.515  20.363  0.00  0.00     0.047 C 
HETATM   18  C   UNK     0       8.454  43.286  21.032  0.00  0.00     0.154 C 
HETATM   19  C   UNK     0       6.325  46.330  20.124  0.00  0.00     0.147 C 
HETATM   20  C   UNK     0       5.361  45.618  19.184  0.00  0.00     0.147 C 
HETATM   21  O   UNK     0       9.518  42.924  20.535  0.00  0.00    -0.293 OA
HETATM   22  C   UNK     0       8.222  43.122  22.481  0.00  0.00     0.057 C 
BRANCH   5  23
HETATM   23  C   UNK     0       4.989  41.467  27.289  0.00  0.00     0.084 C 
HETATM   24  C   UNK     0       5.665  40.109  27.037  0.00  0.00     0.049 C 
BRANCH  23  25
HETATM   25  O   UNK     0       5.168  41.784  28.675  0.00  0.00    -0.387 OA
HETATM   26  H   UNK     0       5.781  42.534  28.750  0.00  0.00     0.210 HD
ENDBRANCH  23  25
BRANCH  23  27
HETATM   27  C   UNK     0       3.465  41.382  27.004  0.00  0.00     0.152 C 
BRANCH  27  28
HETATM   28  O   UNK     0       2.736  41.657  28.206  0.00  0.00    -0.393 OA
HETATM   29  H   UNK     0       1.878  42.033  27.946  0.00  0.00     0.210 HD
ENDBRANCH  27  28
BRANCH  27  30
HETATM   30  C   UNK     0       2.998  40.019  26.456  0.00  0.00     0.037 C 
BRANCH  30  31
HETATM   31  C   UNK     0       1.866  40.169  25.424  0.00  0.00     0.040 C 
BRANCH  31  32
HETATM   32  C   UNK     0       1.332  38.835  24.861  0.00  0.00     0.051 C 
HETATM   33  C   UNK     0       2.474  37.816  24.785  0.00  0.00     0.045 C 
HETATM   34  C   UNK     0       0.181  38.266  25.695  0.00  0.00     0.045 C 
BRANCH  32  35
HETATM   35  O   UNK     0       0.858  39.064  23.533  0.00  0.00    -0.391 OA
HETATM   36  H   UNK     0      -0.089  39.276  23.573  0.00  0.00     0.210 HD
ENDBRANCH  32  35
ENDBRANCH  31  32
ENDBRANCH  30  31
ENDBRANCH  27  30
ENDBRANCH  23  27
ENDBRANCH   5  23
BRANCH  10  37
HETATM   37  O   UNK     0       3.303  43.162  22.138  0.00  0.00    -0.395 OA
HETATM   38  H   UNK     0       2.803  43.595  22.852  0.00  0.00     0.210 HD
ENDBRANCH  10  37
BRANCH  19  39
HETATM   39  O   UNK     0       6.691  47.599  19.591  0.00  0.00    -0.393 OA
HETATM   40  H   UNK     0       5.878  48.087  19.378  0.00  0.00     0.210 HD
ENDBRANCH  19  39
BRANCH  20  41
HETATM   41  O   UNK     0       5.993  45.353  17.931  0.00  0.00    -0.393 OA
HETATM   42  H   UNK     0       6.380  46.186  17.615  0.00  0.00     0.210 HD
ENDBRANCH  20  41
ENDBRANCH   1   3
TORSDOF 12
ENDMDL
