MODEL 1
REMARK VINA RESULT:     -11.9      0.000      0.000
REMARK  Name = 5320623
REMARK  11 active torsions:
REMARK  status: ('A' for Active; 'I' for Inactive)
REMARK    1  A    between atoms: O_2  and  C_16
REMARK    2  A    between atoms: O_2  and  C_18
REMARK    3  A    between atoms: O_3  and  C_12
REMARK    4  A    between atoms: O_4  and  C_13
REMARK    5  A    between atoms: O_5  and  C_14
REMARK    6  A    between atoms: O_6  and  C_17
REMARK    7  A    between atoms: O_8  and  C_20
REMARK    8  A    between atoms: O_9  and  C_23
REMARK    9  A    between atoms: O_11  and  C_32
REMARK   10  A    between atoms: C_15  and  C_17
REMARK   11  A    between atoms: C_25  and  C_27
REMARK                            x       y       z     vdW  Elec       q    Type
REMARK                         _______ _______ _______ _____ _____    ______ ____
ROOT
ATOM      7  O   UNL     1      12.147  16.194  25.336  0.00  0.00    +0.000 OA
ATOM     10  O   UNL     1      14.118  17.104  28.784  0.00  0.00    +0.000 OA
ATOM     18  C   UNL     1      12.011  19.829  25.121  0.00  0.00    +0.000 A 
ATOM     19  C   UNL     1      11.842  18.478  24.819  0.00  0.00    +0.000 A 
ATOM     20  C   UNL     1      12.679  20.209  26.286  0.00  0.00    +0.000 A 
ATOM     21  C   UNL     1      12.343  17.506  25.686  0.00  0.00    +0.000 A 
ATOM     22  C   UNL     1      13.010  17.887  26.849  0.00  0.00    +0.000 A 
ATOM     23  C   UNL     1      13.180  19.239  27.155  0.00  0.00    +0.000 A 
ATOM     24  C   UNL     1      13.527  16.842  27.745  0.00  0.00    +0.000 A 
ATOM     25  C   UNL     1      12.641  15.206  26.175  0.00  0.00    +0.000 A 
ATOM     26  C   UNL     1      13.292  15.446  27.324  0.00  0.00    +0.000 A 
ENDROOT
BRANCH  25  27
ATOM     27  C   UNL     1      12.369  13.831  25.708  0.00  0.00    +0.000 A 
ATOM     28  C   UNL     1      11.683  13.620  24.510  0.00  0.00    +0.000 A 
ATOM     29  C   UNL     1      12.796  12.737  26.464  0.00  0.00    +0.000 A 
ATOM     30  C   UNL     1      11.426  12.322  24.069  0.00  0.00    +0.000 A 
ATOM     31  C   UNL     1      12.539  11.438  26.023  0.00  0.00    +0.000 A 
ATOM     32  C   UNL     1      11.854  11.231  24.827  0.00  0.00    +0.000 A 
BRANCH  32  11
ATOM     11  O   UNL     1      11.603   9.963  24.397  0.00  0.00    +0.000 OA
ATOM     39  H   UNL     1      12.274   9.716  23.738  0.00  0.00    +0.000 HD
ENDBRANCH  32  11
ENDBRANCH  25  27
BRANCH  20   8
ATOM      8  O   UNL     1      12.839  21.533  26.574  0.00  0.00    +0.000 OA
ATOM     37  H   UNL     1      13.600  21.867  26.068  0.00  0.00    +0.000 HD
ENDBRANCH  20   8
BRANCH  23   9
ATOM      9  O   UNL     1      13.827  19.649  28.282  0.00  0.00    +0.000 OA
ATOM     38  H   UNL     1      14.729  19.293  28.310  0.00  0.00    +0.000 HD
ENDBRANCH  23   9
BRANCH  18   2
ATOM      2  O   UNL     1      11.518  20.772  24.266  0.00  0.00    +0.000 OA
BRANCH   2  16
ATOM      1  O   UNL     1       9.939  19.708  22.915  0.00  0.00    +0.000 OA
ATOM     12  C   UNL     1       8.222  22.010  22.966  0.00  0.00    +0.000 C 
ATOM     13  C   UNL     1       8.017  20.856  21.985  0.00  0.00    +0.000 C 
ATOM     14  C   UNL     1       9.663  22.055  23.475  0.00  0.00    +0.000 C 
ATOM     15  C   UNL     1       8.564  19.548  22.562  0.00  0.00    +0.000 C 
ATOM     16  C   UNL     1      10.131  20.677  23.943  0.00  0.00    +0.000 C 
BRANCH  12   3
ATOM      3  O   UNL     1       7.919  23.229  22.285  0.00  0.00    +0.000 OA
ATOM     33  H   UNL     1       6.971  23.212  22.068  0.00  0.00    +0.000 HD
ENDBRANCH  12   3
BRANCH  13   4
ATOM      4  O   UNL     1       6.626  20.707  21.716  0.00  0.00    +0.000 OA
ATOM     34  H   UNL     1       6.315  21.519  21.280  0.00  0.00    +0.000 HD
ENDBRANCH  13   4
BRANCH  14   5
ATOM      5  O   UNL     1       9.746  22.955  24.580  0.00  0.00    +0.000 OA
ATOM     35  H   UNL     1      10.580  22.783  25.048  0.00  0.00    +0.000 HD
ENDBRANCH  14   5
BRANCH  15  17
ATOM     17  C   UNL     1       8.479  18.406  21.555  0.00  0.00    +0.000 C 
BRANCH  17   6
ATOM      6  O   UNL     1       7.133  17.974  21.475  0.00  0.00    +0.000 OA
ATOM     36  H   UNL     1       6.602  18.724  21.155  0.00  0.00    +0.000 HD
ENDBRANCH  17   6
ENDBRANCH  15  17
ENDBRANCH   2  16
ENDBRANCH  18   2
TORSDOF 11
ENDMDL
MODEL 2
REMARK VINA RESULT:     -11.4     28.726     32.627
REMARK  Name = 5320623
REMARK  11 active torsions:
REMARK  status: ('A' for Active; 'I' for Inactive)
REMARK    1  A    between atoms: O_2  and  C_16
REMARK    2  A    between atoms: O_2  and  C_18
REMARK    3  A    between atoms: O_3  and  C_12
REMARK    4  A    between atoms: O_4  and  C_13
REMARK    5  A    between atoms: O_5  and  C_14
REMARK    6  A    between atoms: O_6  and  C_17
REMARK    7  A    between atoms: O_8  and  C_20
REMARK    8  A    between atoms: O_9  and  C_23
REMARK    9  A    between atoms: O_11  and  C_32
REMARK   10  A    between atoms: C_15  and  C_17
REMARK   11  A    between atoms: C_25  and  C_27
REMARK                            x       y       z     vdW  Elec       q    Type
REMARK                         _______ _______ _______ _____ _____    ______ ____
ROOT
ATOM      7  O   UNL     1      32.266  40.998  31.086  0.00  0.00    +0.000 OA
ATOM     10  O   UNL     1      30.132  38.814  33.783  0.00  0.00    +0.000 OA
ATOM     18  C   UNL     1      32.538  37.726  29.504  0.00  0.00    +0.000 A 
ATOM     19  C   UNL     1      32.678  39.091  29.754  0.00  0.00    +0.000 A 
ATOM     20  C   UNL     1      31.817  36.922  30.388  0.00  0.00    +0.000 A 
ATOM     21  C   UNL     1      32.095  39.650  30.892  0.00  0.00    +0.000 A 
ATOM     22  C   UNL     1      31.376  38.845  31.774  0.00  0.00    +0.000 A 
ATOM     23  C   UNL     1      31.234  37.478  31.527  0.00  0.00    +0.000 A 
ATOM     24  C   UNL     1      30.773  39.461  32.966  0.00  0.00    +0.000 A 
ATOM     25  C   UNL     1      31.691  41.583  32.204  0.00  0.00    +0.000 A 
ATOM     26  C   UNL     1      30.984  40.913  33.127  0.00  0.00    +0.000 A 
ENDROOT
BRANCH  25  27
ATOM     27  C   UNL     1      31.943  43.034  32.318  0.00  0.00    +0.000 A 
ATOM     28  C   UNL     1      32.717  43.690  31.358  0.00  0.00    +0.000 A 
ATOM     29  C   UNL     1      31.408  43.756  33.388  0.00  0.00    +0.000 A 
ATOM     30  C   UNL     1      32.954  45.060  31.467  0.00  0.00    +0.000 A 
ATOM     31  C   UNL     1      31.645  45.126  33.496  0.00  0.00    +0.000 A 
ATOM     32  C   UNL     1      32.419  45.778  32.536  0.00  0.00    +0.000 A 
BRANCH  32  11
ATOM     11  O   UNL     1      32.651  47.115  32.642  0.00  0.00    +0.000 OA
ATOM     39  H   UNL     1      31.817  47.562  32.868  0.00  0.00    +0.000 HD
ENDBRANCH  32  11
ENDBRANCH  25  27
BRANCH  20   8
ATOM      8  O   UNL     1      31.687  35.587  30.135  0.00  0.00    +0.000 OA
ATOM     37  H   UNL     1      31.657  35.115  30.985  0.00  0.00    +0.000 HD
ENDBRANCH  20   8
BRANCH  23   9
ATOM      9  O   UNL     1      30.538  36.660  32.365  0.00  0.00    +0.000 OA
ATOM     38  H   UNL     1      29.896  36.126  31.870  0.00  0.00    +0.000 HD
ENDBRANCH  23   9
BRANCH  18   2
ATOM      2  O   UNL     1      33.112  37.189  28.387  0.00  0.00    +0.000 OA
BRANCH   2  16
ATOM      1  O   UNL     1      34.777  38.699  27.758  0.00  0.00    +0.000 OA
ATOM     12  C   UNL     1      36.505  36.567  26.909  0.00  0.00    +0.000 C 
ATOM     13  C   UNL     1      36.772  38.030  26.554  0.00  0.00    +0.000 C 
ATOM     14  C   UNL     1      35.031  36.338  27.244  0.00  0.00    +0.000 C 
ATOM     15  C   UNL     1      36.172  38.963  27.608  0.00  0.00    +0.000 C 
ATOM     16  C   UNL     1      34.518  37.381  28.238  0.00  0.00    +0.000 C 
BRANCH  12   3
ATOM      3  O   UNL     1      36.868  35.766  25.783  0.00  0.00    +0.000 OA
ATOM     33  H   UNL     1      37.510  35.105  26.092  0.00  0.00    +0.000 HD
ENDBRANCH  12   3
BRANCH  13   4
ATOM      4  O   UNL     1      38.178  38.248  26.476  0.00  0.00    +0.000 OA
ATOM     34  H   UNL     1      38.617  37.380  26.486  0.00  0.00    +0.000 HD
ENDBRANCH  13   4
BRANCH  14   5
ATOM      5  O   UNL     1      34.874  35.047  27.830  0.00  0.00    +0.000 OA
ATOM     35  H   UNL     1      34.035  35.037  28.320  0.00  0.00    +0.000 HD
ENDBRANCH  14   5
BRANCH  15  17
ATOM     17  C   UNL     1      36.323  40.429  27.217  0.00  0.00    +0.000 C 
BRANCH  17   6
ATOM      6  O   UNL     1      37.676  40.808  27.390  0.00  0.00    +0.000 OA
ATOM     36  H   UNL     1      38.209  40.288  26.764  0.00  0.00    +0.000 HD
ENDBRANCH  17   6
ENDBRANCH  15  17
ENDBRANCH   2  16
ENDBRANCH  18   2
TORSDOF 11
ENDMDL
MODEL 3
REMARK VINA RESULT:     -11.1      2.593      5.184
REMARK  Name = 5320623
REMARK  11 active torsions:
REMARK  status: ('A' for Active; 'I' for Inactive)
REMARK    1  A    between atoms: O_2  and  C_16
REMARK    2  A    between atoms: O_2  and  C_18
REMARK    3  A    between atoms: O_3  and  C_12
REMARK    4  A    between atoms: O_4  and  C_13
REMARK    5  A    between atoms: O_5  and  C_14
REMARK    6  A    between atoms: O_6  and  C_17
REMARK    7  A    between atoms: O_8  and  C_20
REMARK    8  A    between atoms: O_9  and  C_23
REMARK    9  A    between atoms: O_11  and  C_32
REMARK   10  A    between atoms: C_15  and  C_17
REMARK   11  A    between atoms: C_25  and  C_27
REMARK                            x       y       z     vdW  Elec       q    Type
REMARK                         _______ _______ _______ _____ _____    ______ ____
ROOT
ATOM      7  O   UNL     1      11.561  15.160  23.981  0.00  0.00    +0.000 OA
ATOM     10  O   UNL     1      12.817  12.347  26.647  0.00  0.00    +0.000 OA
ATOM     18  C   UNL     1      13.487  17.311  26.205  0.00  0.00    +0.000 A 
ATOM     19  C   UNL     1      12.686  16.877  25.149  0.00  0.00    +0.000 A 
ATOM     20  C   UNL     1      13.952  16.397  27.153  0.00  0.00    +0.000 A 
ATOM     21  C   UNL     1      12.351  15.527  25.041  0.00  0.00    +0.000 A 
ATOM     22  C   UNL     1      12.816  14.616  25.988  0.00  0.00    +0.000 A 
ATOM     23  C   UNL     1      13.618  15.046  27.048  0.00  0.00    +0.000 A 
ATOM     24  C   UNL     1      12.447  13.199  25.851  0.00  0.00    +0.000 A 
ATOM     25  C   UNL     1      11.219  13.824  23.844  0.00  0.00    +0.000 A 
ATOM     26  C   UNL     1      11.598  12.855  24.693  0.00  0.00    +0.000 A 
ENDROOT
BRANCH  25  27
ATOM     27  C   UNL     1      10.362  13.541  22.675  0.00  0.00    +0.000 A 
ATOM     28  C   UNL     1       9.747  14.588  21.985  0.00  0.00    +0.000 A 
ATOM     29  C   UNL     1      10.162  12.223  22.255  0.00  0.00    +0.000 A 
ATOM     30  C   UNL     1       8.938  14.320  20.881  0.00  0.00    +0.000 A 
ATOM     31  C   UNL     1       9.353  11.955  21.150  0.00  0.00    +0.000 A 
ATOM     32  C   UNL     1       8.740  13.003  20.464  0.00  0.00    +0.000 A 
BRANCH  32  11
ATOM     11  O   UNL     1       7.950  12.742  19.386  0.00  0.00    +0.000 OA
ATOM     39  H   UNL     1       8.445  12.949  18.576  0.00  0.00    +0.000 HD
ENDBRANCH  32  11
ENDBRANCH  25  27
BRANCH  20   8
ATOM      8  O   UNL     1      14.734  16.831  28.184  0.00  0.00    +0.000 OA
ATOM     37  H   UNL     1      15.089  17.707  27.952  0.00  0.00    +0.000 HD
ENDBRANCH  20   8
BRANCH  23   9
ATOM      9  O   UNL     1      14.092  14.186  27.992  0.00  0.00    +0.000 OA
ATOM     38  H   UNL     1      15.039  14.330  28.144  0.00  0.00    +0.000 HD
ENDBRANCH  23   9
BRANCH  18   2
ATOM      2  O   UNL     1      13.809  18.634  26.301  0.00  0.00    +0.000 OA
BRANCH   2  16
ATOM      1  O   UNL     1      11.989  20.085  26.145  0.00  0.00    +0.000 OA
ATOM     12  C   UNL     1      12.834  21.530  28.480  0.00  0.00    +0.000 C 
ATOM     13  C   UNL     1      11.760  22.062  27.531  0.00  0.00    +0.000 C 
ATOM     14  C   UNL     1      13.732  20.508  27.782  0.00  0.00    +0.000 C 
ATOM     15  C   UNL     1      11.040  20.910  26.824  0.00  0.00    +0.000 C 
ATOM     16  C   UNL     1      12.907  19.459  27.037  0.00  0.00    +0.000 C 
BRANCH  12   3
ATOM      3  O   UNL     1      13.623  22.637  28.918  0.00  0.00    +0.000 OA
ATOM     33  H   UNL     1      14.274  22.825  28.221  0.00  0.00    +0.000 HD
ENDBRANCH  12   3
BRANCH  13   4
ATOM      4  O   UNL     1      10.812  22.825  28.271  0.00  0.00    +0.000 OA
ATOM     34  H   UNL     1      10.580  23.609  27.743  0.00  0.00    +0.000 HD
ENDBRANCH  13   4
BRANCH  14   5
ATOM      5  O   UNL     1      14.533  19.839  28.756  0.00  0.00    +0.000 OA
ATOM     35  H   UNL     1      13.943  19.496  29.448  0.00  0.00    +0.000 HD
ENDBRANCH  14   5
BRANCH  15  17
ATOM     17  C   UNL     1      10.045  21.417  25.785  0.00  0.00    +0.000 C 
BRANCH  17   6
ATOM      6  O   UNL     1      10.343  22.770  25.497  0.00  0.00    +0.000 OA
ATOM     36  H   UNL     1      10.122  22.927  24.562  0.00  0.00    +0.000 HD
ENDBRANCH  17   6
ENDBRANCH  15  17
ENDBRANCH   2  16
ENDBRANCH  18   2
TORSDOF 11
ENDMDL
MODEL 4
REMARK VINA RESULT:     -10.5     19.652     23.053
REMARK  Name = 5320623
REMARK  11 active torsions:
REMARK  status: ('A' for Active; 'I' for Inactive)
REMARK    1  A    between atoms: O_2  and  C_16
REMARK    2  A    between atoms: O_2  and  C_18
REMARK    3  A    between atoms: O_3  and  C_12
REMARK    4  A    between atoms: O_4  and  C_13
REMARK    5  A    between atoms: O_5  and  C_14
REMARK    6  A    between atoms: O_6  and  C_17
REMARK    7  A    between atoms: O_8  and  C_20
REMARK    8  A    between atoms: O_9  and  C_23
REMARK    9  A    between atoms: O_11  and  C_32
REMARK   10  A    between atoms: C_15  and  C_17
REMARK   11  A    between atoms: C_25  and  C_27
REMARK                            x       y       z     vdW  Elec       q    Type
REMARK                         _______ _______ _______ _____ _____    ______ ____
ROOT
ATOM      7  O   UNL     1      22.819  32.918  12.930  0.00  0.00    +0.000 OA
ATOM     10  O   UNL     1      23.290  34.418   9.171  0.00  0.00    +0.000 OA
ATOM     18  C   UNL     1      22.308  29.850  11.031  0.00  0.00    +0.000 A 
ATOM     19  C   UNL     1      22.432  30.743  12.095  0.00  0.00    +0.000 A 
ATOM     20  C   UNL     1      22.460  30.299   9.718  0.00  0.00    +0.000 A 
ATOM     21  C   UNL     1      22.708  32.088  11.844  0.00  0.00    +0.000 A 
ATOM     22  C   UNL     1      22.859  32.535  10.531  0.00  0.00    +0.000 A 
ATOM     23  C   UNL     1      22.735  31.643   9.463  0.00  0.00    +0.000 A 
ATOM     24  C   UNL     1      23.149  33.957  10.296  0.00  0.00    +0.000 A 
ATOM     25  C   UNL     1      23.101  34.258  12.711  0.00  0.00    +0.000 A 
ATOM     26  C   UNL     1      23.261  34.808  11.497  0.00  0.00    +0.000 A 
ENDROOT
BRANCH  25  27
ATOM     27  C   UNL     1      23.193  35.061  13.947  0.00  0.00    +0.000 A 
ATOM     28  C   UNL     1      24.345  35.802  14.219  0.00  0.00    +0.000 A 
ATOM     29  C   UNL     1      22.127  35.081  14.851  0.00  0.00    +0.000 A 
ATOM     30  C   UNL     1      24.431  36.561  15.386  0.00  0.00    +0.000 A 
ATOM     31  C   UNL     1      22.213  35.840  16.018  0.00  0.00    +0.000 A 
ATOM     32  C   UNL     1      23.365  36.579  16.286  0.00  0.00    +0.000 A 
BRANCH  32  11
ATOM     11  O   UNL     1      23.449  37.319  17.426  0.00  0.00    +0.000 OA
ATOM     39  H   UNL     1      23.721  38.223  17.195  0.00  0.00    +0.000 HD
ENDBRANCH  32  11
ENDBRANCH  25  27
BRANCH  20   8
ATOM      8  O   UNL     1      22.335  29.419   8.683  0.00  0.00    +0.000 OA
ATOM     37  H   UNL     1      21.389  29.312   8.483  0.00  0.00    +0.000 HD
ENDBRANCH  20   8
BRANCH  23   9
ATOM      9  O   UNL     1      22.877  32.043   8.168  0.00  0.00    +0.000 OA
ATOM     38  H   UNL     1      23.101  31.291   7.599  0.00  0.00    +0.000 HD
ENDBRANCH  23   9
BRANCH  18   2
ATOM      2  O   UNL     1      22.038  28.537  11.288  0.00  0.00    +0.000 OA
BRANCH   2  16
ATOM      1  O   UNL     1      23.588  27.697  12.818  0.00  0.00    +0.000 OA
ATOM     12  C   UNL     1      21.534  26.291  14.252  0.00  0.00    +0.000 C 
ATOM     13  C   UNL     1      23.022  26.023  14.477  0.00  0.00    +0.000 C 
ATOM     14  C   UNL     1      21.287  26.922  12.881  0.00  0.00    +0.000 C 
ATOM     15  C   UNL     1      23.853  27.267  14.154  0.00  0.00    +0.000 C 
ATOM     16  C   UNL     1      22.232  28.097  12.631  0.00  0.00    +0.000 C 
BRANCH  12   3
ATOM      3  O   UNL     1      20.844  25.043  14.333  0.00  0.00    +0.000 OA
ATOM     33  H   UNL     1      20.508  24.838  13.444  0.00  0.00    +0.000 HD
ENDBRANCH  12   3
BRANCH  13   4
ATOM      4  O   UNL     1      23.235  25.655  15.838  0.00  0.00    +0.000 OA
ATOM     34  H   UNL     1      22.366  25.500  16.246  0.00  0.00    +0.000 HD
ENDBRANCH  13   4
BRANCH  14   5
ATOM      5  O   UNL     1      19.945  27.405  12.818  0.00  0.00    +0.000 OA
ATOM     35  H   UNL     1      19.682  27.445  11.884  0.00  0.00    +0.000 HD
ENDBRANCH  14   5
BRANCH  15  17
ATOM     17  C   UNL     1      25.349  26.990  14.258  0.00  0.00    +0.000 C 
BRANCH  17   6
ATOM      6  O   UNL     1      25.912  27.892  15.193  0.00  0.00    +0.000 OA
ATOM     36  H   UNL     1      25.195  28.197  15.775  0.00  0.00    +0.000 HD
ENDBRANCH  17   6
ENDBRANCH  15  17
ENDBRANCH   2  16
ENDBRANCH  18   2
TORSDOF 11
ENDMDL
MODEL 5
REMARK VINA RESULT:     -10.4     15.071     17.035
REMARK  Name = 5320623
REMARK  11 active torsions:
REMARK  status: ('A' for Active; 'I' for Inactive)
REMARK    1  A    between atoms: O_2  and  C_16
REMARK    2  A    between atoms: O_2  and  C_18
REMARK    3  A    between atoms: O_3  and  C_12
REMARK    4  A    between atoms: O_4  and  C_13
REMARK    5  A    between atoms: O_5  and  C_14
REMARK    6  A    between atoms: O_6  and  C_17
REMARK    7  A    between atoms: O_8  and  C_20
REMARK    8  A    between atoms: O_9  and  C_23
REMARK    9  A    between atoms: O_11  and  C_32
REMARK   10  A    between atoms: C_15  and  C_17
REMARK   11  A    between atoms: C_25  and  C_27
REMARK                            x       y       z     vdW  Elec       q    Type
REMARK                         _______ _______ _______ _____ _____    ______ ____
ROOT
ATOM      7  O   UNL     1      27.174  19.668  26.504  0.00  0.00    +0.000 OA
ATOM     10  O   UNL     1      29.516  18.411  23.416  0.00  0.00    +0.000 OA
ATOM     18  C   UNL     1      25.814  21.785  23.867  0.00  0.00    +0.000 A 
ATOM     19  C   UNL     1      26.028  21.193  25.112  0.00  0.00    +0.000 A 
ATOM     20  C   UNL     1      26.582  21.398  22.767  0.00  0.00    +0.000 A 
ATOM     21  C   UNL     1      27.010  20.214  25.256  0.00  0.00    +0.000 A 
ATOM     22  C   UNL     1      27.776  19.828  24.156  0.00  0.00    +0.000 A 
ATOM     23  C   UNL     1      27.566  20.419  22.908  0.00  0.00    +0.000 A 
ATOM     24  C   UNL     1      28.806  18.795  24.336  0.00  0.00    +0.000 A 
ATOM     25  C   UNL     1      28.138  18.687  26.675  0.00  0.00    +0.000 A 
ATOM     26  C   UNL     1      28.941  18.238  25.697  0.00  0.00    +0.000 A 
ENDROOT
BRANCH  25  27
ATOM     27  C   UNL     1      28.234  18.174  28.056  0.00  0.00    +0.000 A 
ATOM     28  C   UNL     1      27.252  18.498  28.995  0.00  0.00    +0.000 A 
ATOM     29  C   UNL     1      29.310  17.365  28.431  0.00  0.00    +0.000 A 
ATOM     30  C   UNL     1      27.343  18.014  30.300  0.00  0.00    +0.000 A 
ATOM     31  C   UNL     1      29.402  16.881  29.736  0.00  0.00    +0.000 A 
ATOM     32  C   UNL     1      28.419  17.206  30.671  0.00  0.00    +0.000 A 
BRANCH  32  11
ATOM     11  O   UNL     1      28.508  16.734  31.944  0.00  0.00    +0.000 OA
ATOM     39  H   UNL     1      27.855  17.195  32.498  0.00  0.00    +0.000 HD
ENDBRANCH  32  11
ENDBRANCH  25  27
BRANCH  20   8
ATOM      8  O   UNL     1      26.367  21.982  21.553  0.00  0.00    +0.000 OA
ATOM     37  H   UNL     1      26.191  21.281  20.902  0.00  0.00    +0.000 HD
ENDBRANCH  20   8
BRANCH  23   9
ATOM      9  O   UNL     1      28.293  20.067  21.810  0.00  0.00    +0.000 OA
ATOM     38  H   UNL     1      29.000  19.448  22.050  0.00  0.00    +0.000 HD
ENDBRANCH  23   9
BRANCH  18   2
ATOM      2  O   UNL     1      24.850  22.742  23.737  0.00  0.00    +0.000 OA
BRANCH   2  16
ATOM      1  O   UNL     1      26.686  24.145  24.066  0.00  0.00    +0.000 OA
ATOM     12  C   UNL     1      25.059  26.097  25.406  0.00  0.00    +0.000 C 
ATOM     13  C   UNL     1      26.586  26.140  25.440  0.00  0.00    +0.000 C 
ATOM     14  C   UNL     1      24.551  24.690  25.090  0.00  0.00    +0.000 C 
ATOM     15  C   UNL     1      27.177  25.480  24.192  0.00  0.00    +0.000 C 
ATOM     16  C   UNL     1      25.273  24.097  23.879  0.00  0.00    +0.000 C 
BRANCH  12   3
ATOM      3  O   UNL     1      24.576  26.501  26.688  0.00  0.00    +0.000 OA
ATOM     33  H   UNL     1      24.453  25.695  27.219  0.00  0.00    +0.000 HD
ENDBRANCH  12   3
BRANCH  13   4
ATOM      4  O   UNL     1      27.019  27.495  25.506  0.00  0.00    +0.000 OA
ATOM     34  H   UNL     1      27.483  27.703  24.677  0.00  0.00    +0.000 HD
ENDBRANCH  13   4
BRANCH  14   5
ATOM      5  O   UNL     1      23.156  24.746  24.795  0.00  0.00    +0.000 OA
ATOM     35  H   UNL     1      23.030  24.470  23.872  0.00  0.00    +0.000 HD
ENDBRANCH  14   5
BRANCH  15  17
ATOM     17  C   UNL     1      28.699  25.405  24.258  0.00  0.00    +0.000 C 
BRANCH  17   6
ATOM      6  O   UNL     1      29.238  26.460  23.484  0.00  0.00    +0.000 OA
ATOM     36  H   UNL     1      29.732  27.043  24.086  0.00  0.00    +0.000 HD
ENDBRANCH  17   6
ENDBRANCH  15  17
ENDBRANCH   2  16
ENDBRANCH  18   2
TORSDOF 11
ENDMDL
MODEL 6
REMARK VINA RESULT:     -10.4     28.767     32.751
REMARK  Name = 5320623
REMARK  11 active torsions:
REMARK  status: ('A' for Active; 'I' for Inactive)
REMARK    1  A    between atoms: O_2  and  C_16
REMARK    2  A    between atoms: O_2  and  C_18
REMARK    3  A    between atoms: O_3  and  C_12
REMARK    4  A    between atoms: O_4  and  C_13
REMARK    5  A    between atoms: O_5  and  C_14
REMARK    6  A    between atoms: O_6  and  C_17
REMARK    7  A    between atoms: O_8  and  C_20
REMARK    8  A    between atoms: O_9  and  C_23
REMARK    9  A    between atoms: O_11  and  C_32
REMARK   10  A    between atoms: C_15  and  C_17
REMARK   11  A    between atoms: C_25  and  C_27
REMARK                            x       y       z     vdW  Elec       q    Type
REMARK                         _______ _______ _______ _____ _____    ______ ____
ROOT
ATOM      7  O   UNL     1      32.782  42.293  30.546  0.00  0.00    +0.000 OA
ATOM     10  O   UNL     1      30.897  43.623  33.905  0.00  0.00    +0.000 OA
ATOM     18  C   UNL     1      31.099  39.207  31.508  0.00  0.00    +0.000 A 
ATOM     19  C   UNL     1      31.885  40.125  30.811  0.00  0.00    +0.000 A 
ATOM     20  C   UNL     1      30.425  39.599  32.666  0.00  0.00    +0.000 A 
ATOM     21  C   UNL     1      31.995  41.436  31.274  0.00  0.00    +0.000 A 
ATOM     22  C   UNL     1      31.322  41.826  32.431  0.00  0.00    +0.000 A 
ATOM     23  C   UNL     1      30.535  40.910  33.132  0.00  0.00    +0.000 A 
ATOM     24  C   UNL     1      31.457  43.214  32.897  0.00  0.00    +0.000 A 
ATOM     25  C   UNL     1      32.904  43.605  30.978  0.00  0.00    +0.000 A 
ATOM     26  C   UNL     1      32.312  44.097  32.078  0.00  0.00    +0.000 A 
ENDROOT
BRANCH  25  27
ATOM     27  C   UNL     1      33.777  44.438  30.127  0.00  0.00    +0.000 A 
ATOM     28  C   UNL     1      34.529  43.852  29.106  0.00  0.00    +0.000 A 
ATOM     29  C   UNL     1      33.856  45.817  30.340  0.00  0.00    +0.000 A 
ATOM     30  C   UNL     1      35.353  44.639  28.303  0.00  0.00    +0.000 A 
ATOM     31  C   UNL     1      34.681  46.604  29.537  0.00  0.00    +0.000 A 
ATOM     32  C   UNL     1      35.430  46.015  28.519  0.00  0.00    +0.000 A 
BRANCH  32  11
ATOM     11  O   UNL     1      36.235  46.783  27.734  0.00  0.00    +0.000 OA
ATOM     39  H   UNL     1      36.876  47.248  28.300  0.00  0.00    +0.000 HD
ENDBRANCH  32  11
ENDBRANCH  25  27
BRANCH  20   8
ATOM      8  O   UNL     1      29.660  38.694  33.343  0.00  0.00    +0.000 OA
ATOM     37  H   UNL     1      28.839  39.136  33.623  0.00  0.00    +0.000 HD
ENDBRANCH  20   8
BRANCH  23   9
ATOM      9  O   UNL     1      29.861  41.254  34.265  0.00  0.00    +0.000 OA
ATOM     38  H   UNL     1      29.177  40.598  34.472  0.00  0.00    +0.000 HD
ENDBRANCH  23   9
BRANCH  18   2
ATOM      2  O   UNL     1      30.998  37.927  31.046  0.00  0.00    +0.000 OA
BRANCH   2  16
ATOM      1  O   UNL     1      32.739  37.236  29.654  0.00  0.00    +0.000 OA
ATOM     12  C   UNL     1      33.102  34.821  31.166  0.00  0.00    +0.000 C 
ATOM     13  C   UNL     1      33.738  35.032  29.792  0.00  0.00    +0.000 C 
ATOM     14  C   UNL     1      31.888  35.731  31.359  0.00  0.00    +0.000 C 
ATOM     15  C   UNL     1      33.968  36.521  29.523  0.00  0.00    +0.000 C 
ATOM     16  C   UNL     1      32.209  37.175  30.976  0.00  0.00    +0.000 C 
BRANCH  12   3
ATOM      3  O   UNL     1      32.694  33.455  31.259  0.00  0.00    +0.000 OA
ATOM     33  H   UNL     1      33.244  33.033  31.940  0.00  0.00    +0.000 HD
ENDBRANCH  12   3
BRANCH  13   4
ATOM      4  O   UNL     1      34.986  34.346  29.740  0.00  0.00    +0.000 OA
ATOM     34  H   UNL     1      34.925  33.566  30.318  0.00  0.00    +0.000 HD
ENDBRANCH  13   4
BRANCH  14   5
ATOM      5  O   UNL     1      31.494  35.708  32.731  0.00  0.00    +0.000 OA
ATOM     35  H   UNL     1      31.991  35.002  33.177  0.00  0.00    +0.000 HD
ENDBRANCH  14   5
BRANCH  15  17
ATOM     17  C   UNL     1      34.493  36.766  28.112  0.00  0.00    +0.000 C 
BRANCH  17   6
ATOM      6  O   UNL     1      34.413  35.556  27.383  0.00  0.00    +0.000 OA
ATOM     36  H   UNL     1      34.518  35.772  26.441  0.00  0.00    +0.000 HD
ENDBRANCH  17   6
ENDBRANCH  15  17
ENDBRANCH   2  16
ENDBRANCH  18   2
TORSDOF 11
ENDMDL
MODEL 7
REMARK VINA RESULT:     -10.4     20.111     23.391
REMARK  Name = 5320623
REMARK  11 active torsions:
REMARK  status: ('A' for Active; 'I' for Inactive)
REMARK    1  A    between atoms: O_2  and  C_16
REMARK    2  A    between atoms: O_2  and  C_18
REMARK    3  A    between atoms: O_3  and  C_12
REMARK    4  A    between atoms: O_4  and  C_13
REMARK    5  A    between atoms: O_5  and  C_14
REMARK    6  A    between atoms: O_6  and  C_17
REMARK    7  A    between atoms: O_8  and  C_20
REMARK    8  A    between atoms: O_9  and  C_23
REMARK    9  A    between atoms: O_11  and  C_32
REMARK   10  A    between atoms: C_15  and  C_17
REMARK   11  A    between atoms: C_25  and  C_27
REMARK                            x       y       z     vdW  Elec       q    Type
REMARK                         _______ _______ _______ _____ _____    ______ ____
ROOT
ATOM      7  O   UNL     1      23.093  33.505  13.653  0.00  0.00    +0.000 OA
ATOM     10  O   UNL     1      23.385  34.589   9.737  0.00  0.00    +0.000 OA
ATOM     18  C   UNL     1      22.326  30.290  12.119  0.00  0.00    +0.000 A 
ATOM     19  C   UNL     1      22.558  31.279  13.075  0.00  0.00    +0.000 A 
ATOM     20  C   UNL     1      22.411  30.595  10.760  0.00  0.00    +0.000 A 
ATOM     21  C   UNL     1      22.875  32.575  12.668  0.00  0.00    +0.000 A 
ATOM     22  C   UNL     1      22.961  32.878  11.310  0.00  0.00    +0.000 A 
ATOM     23  C   UNL     1      22.728  31.891  10.350  0.00  0.00    +0.000 A 
ATOM     24  C   UNL     1      23.296  34.253  10.910  0.00  0.00    +0.000 A 
ATOM     25  C   UNL     1      23.418  34.800  13.279  0.00  0.00    +0.000 A 
ATOM     26  C   UNL     1      23.523  35.215  12.007  0.00  0.00    +0.000 A 
ENDROOT
BRANCH  25  27
ATOM     27  C   UNL     1      23.625  35.719  14.417  0.00  0.00    +0.000 A 
ATOM     28  C   UNL     1      22.657  35.824  15.418  0.00  0.00    +0.000 A 
ATOM     29  C   UNL     1      24.788  36.489  14.494  0.00  0.00    +0.000 A 
ATOM     30  C   UNL     1      22.853  36.693  16.492  0.00  0.00    +0.000 A 
ATOM     31  C   UNL     1      24.983  37.358  15.567  0.00  0.00    +0.000 A 
ATOM     32  C   UNL     1      24.015  37.460  16.566  0.00  0.00    +0.000 A 
BRANCH  32  11
ATOM     11  O   UNL     1      24.206  38.308  17.614  0.00  0.00    +0.000 OA
ATOM     39  H   UNL     1      25.159  38.467  17.722  0.00  0.00    +0.000 HD
ENDBRANCH  32  11
ENDBRANCH  25  27
BRANCH  20   8
ATOM      8  O   UNL     1      22.182  29.621   9.832  0.00  0.00    +0.000 OA
ATOM     37  H   UNL     1      23.008  29.465   9.341  0.00  0.00    +0.000 HD
ENDBRANCH  20   8
BRANCH  23   9
ATOM      9  O   UNL     1      22.804  32.149   9.015  0.00  0.00    +0.000 OA
ATOM     38  H   UNL     1      22.370  31.448   8.503  0.00  0.00    +0.000 HD
ENDBRANCH  23   9
BRANCH  18   2
ATOM      2  O   UNL     1      22.016  29.025  12.527  0.00  0.00    +0.000 OA
BRANCH   2  16
ATOM      1  O   UNL     1      22.093  27.078  11.243  0.00  0.00    +0.000 OA
ATOM     12  C   UNL     1      24.232  26.011  12.836  0.00  0.00    +0.000 C 
ATOM     13  C   UNL     1      23.440  25.155  11.848  0.00  0.00    +0.000 C 
ATOM     14  C   UNL     1      23.437  27.247  13.258  0.00  0.00    +0.000 C 
ATOM     15  C   UNL     1      22.882  26.014  10.710  0.00  0.00    +0.000 C 
ATOM     16  C   UNL     1      22.855  27.975  12.047  0.00  0.00    +0.000 C 
BRANCH  12   3
ATOM      3  O   UNL     1      24.516  25.211  13.985  0.00  0.00    +0.000 OA
ATOM     33  H   UNL     1      24.098  24.344  13.846  0.00  0.00    +0.000 HD
ENDBRANCH  12   3
BRANCH  13   4
ATOM      4  O   UNL     1      24.292  24.150  11.305  0.00  0.00    +0.000 OA
ATOM     34  H   UNL     1      23.812  23.304  11.329  0.00  0.00    +0.000 HD
ENDBRANCH  13   4
BRANCH  14   5
ATOM      5  O   UNL     1      24.299  28.150  13.951  0.00  0.00    +0.000 OA
ATOM     35  H   UNL     1      23.872  28.394  14.788  0.00  0.00    +0.000 HD
ENDBRANCH  14   5
BRANCH  15  17
ATOM     17  C   UNL     1      21.991  25.204   9.775  0.00  0.00    +0.000 C 
BRANCH  17   6
ATOM      6  O   UNL     1      21.422  24.134  10.506  0.00  0.00    +0.000 OA
ATOM     36  H   UNL     1      20.787  23.683   9.923  0.00  0.00    +0.000 HD
ENDBRANCH  17   6
ENDBRANCH  15  17
ENDBRANCH   2  16
ENDBRANCH  18   2
TORSDOF 11
ENDMDL
MODEL 8
REMARK VINA RESULT:     -10.2     19.940     22.382
REMARK  Name = 5320623
REMARK  11 active torsions:
REMARK  status: ('A' for Active; 'I' for Inactive)
REMARK    1  A    between atoms: O_2  and  C_16
REMARK    2  A    between atoms: O_2  and  C_18
REMARK    3  A    between atoms: O_3  and  C_12
REMARK    4  A    between atoms: O_4  and  C_13
REMARK    5  A    between atoms: O_5  and  C_14
REMARK    6  A    between atoms: O_6  and  C_17
REMARK    7  A    between atoms: O_8  and  C_20
REMARK    8  A    between atoms: O_9  and  C_23
REMARK    9  A    between atoms: O_11  and  C_32
REMARK   10  A    between atoms: C_15  and  C_17
REMARK   11  A    between atoms: C_25  and  C_27
REMARK                            x       y       z     vdW  Elec       q    Type
REMARK                         _______ _______ _______ _____ _____    ______ ____
ROOT
ATOM      7  O   UNL     1      22.097  29.575  12.390  0.00  0.00    +0.000 OA
ATOM     10  O   UNL     1      22.536  30.633   8.480  0.00  0.00    +0.000 OA
ATOM     18  C   UNL     1      23.112  33.044  12.855  0.00  0.00    +0.000 A 
ATOM     19  C   UNL     1      22.715  31.733  13.122  0.00  0.00    +0.000 A 
ATOM     20  C   UNL     1      23.279  33.471  11.537  0.00  0.00    +0.000 A 
ATOM     21  C   UNL     1      22.486  30.850  12.067  0.00  0.00    +0.000 A 
ATOM     22  C   UNL     1      22.653  31.278  10.750  0.00  0.00    +0.000 A 
ATOM     23  C   UNL     1      23.051  32.589  10.480  0.00  0.00    +0.000 A 
ATOM     24  C   UNL     1      22.405  30.326   9.658  0.00  0.00    +0.000 A 
ATOM     25  C   UNL     1      21.854  28.677  11.362  0.00  0.00    +0.000 A 
ATOM     26  C   UNL     1      21.987  28.968  10.058  0.00  0.00    +0.000 A 
ENDROOT
BRANCH  25  27
ATOM     27  C   UNL     1      21.449  27.333  11.822  0.00  0.00    +0.000 A 
ATOM     28  C   UNL     1      21.973  26.194  11.208  0.00  0.00    +0.000 A 
ATOM     29  C   UNL     1      20.536  27.197  12.871  0.00  0.00    +0.000 A 
ATOM     30  C   UNL     1      21.590  24.925  11.643  0.00  0.00    +0.000 A 
ATOM     31  C   UNL     1      20.152  25.928  13.305  0.00  0.00    +0.000 A 
ATOM     32  C   UNL     1      20.678  24.792  12.690  0.00  0.00    +0.000 A 
BRANCH  32  11
ATOM     11  O   UNL     1      20.304  23.554  13.114  0.00  0.00    +0.000 OA
ATOM     39  H   UNL     1      21.062  23.128  13.550  0.00  0.00    +0.000 HD
ENDBRANCH  32  11
ENDBRANCH  25  27
BRANCH  20   8
ATOM      8  O   UNL     1      23.668  34.755  11.286  0.00  0.00    +0.000 OA
ATOM     37  H   UNL     1      22.915  35.344  11.464  0.00  0.00    +0.000 HD
ENDBRANCH  20   8
BRANCH  23   9
ATOM      9  O   UNL     1      23.223  33.044   9.207  0.00  0.00    +0.000 OA
ATOM     38  H   UNL     1      23.064  34.000   9.158  0.00  0.00    +0.000 HD
ENDBRANCH  23   9
BRANCH  18   2
ATOM      2  O   UNL     1      23.333  33.900  13.895  0.00  0.00    +0.000 OA
BRANCH   2  16
ATOM      1  O   UNL     1      23.609  36.218  13.891  0.00  0.00    +0.000 OA
ATOM     12  C   UNL     1      21.054  36.607  15.145  0.00  0.00    +0.000 C 
ATOM     13  C   UNL     1      22.091  37.724  15.033  0.00  0.00    +0.000 C 
ATOM     14  C   UNL     1      21.710  35.230  15.039  0.00  0.00    +0.000 C 
ATOM     15  C   UNL     1      22.997  37.506  13.818  0.00  0.00    +0.000 C 
ATOM     16  C   UNL     1      22.658  35.156  13.842  0.00  0.00    +0.000 C 
BRANCH  12   3
ATOM      3  O   UNL     1      20.407  36.730  16.413  0.00  0.00    +0.000 OA
ATOM     33  H   UNL     1      20.883  36.159  17.039  0.00  0.00    +0.000 HD
ENDBRANCH  12   3
BRANCH  13   4
ATOM      4  O   UNL     1      21.424  38.977  14.905  0.00  0.00    +0.000 OA
ATOM     34  H   UNL     1      21.276  39.142  13.958  0.00  0.00    +0.000 HD
ENDBRANCH  13   4
BRANCH  14   5
ATOM      5  O   UNL     1      20.699  34.236  14.871  0.00  0.00    +0.000 OA
ATOM     35  H   UNL     1      21.046  33.392  15.206  0.00  0.00    +0.000 HD
ENDBRANCH  14   5
BRANCH  15  17
ATOM     17  C   UNL     1      24.113  38.542  13.751  0.00  0.00    +0.000 C 
BRANCH  17   6
ATOM      6  O   UNL     1      24.484  38.894  15.072  0.00  0.00    +0.000 OA
ATOM     36  H   UNL     1      23.676  38.892  15.614  0.00  0.00    +0.000 HD
ENDBRANCH  17   6
ENDBRANCH  15  17
ENDBRANCH   2  16
ENDBRANCH  18   2
TORSDOF 11
ENDMDL
MODEL 9
REMARK VINA RESULT:     -10.0     17.778     21.390
REMARK  Name = 5320623
REMARK  11 active torsions:
REMARK  status: ('A' for Active; 'I' for Inactive)
REMARK    1  A    between atoms: O_2  and  C_16
REMARK    2  A    between atoms: O_2  and  C_18
REMARK    3  A    between atoms: O_3  and  C_12
REMARK    4  A    between atoms: O_4  and  C_13
REMARK    5  A    between atoms: O_5  and  C_14
REMARK    6  A    between atoms: O_6  and  C_17
REMARK    7  A    between atoms: O_8  and  C_20
REMARK    8  A    between atoms: O_9  and  C_23
REMARK    9  A    between atoms: O_11  and  C_32
REMARK   10  A    between atoms: C_15  and  C_17
REMARK   11  A    between atoms: C_25  and  C_27
REMARK                            x       y       z     vdW  Elec       q    Type
REMARK                         _______ _______ _______ _____ _____    ______ ____
ROOT
ATOM      7  O   UNL     1      17.649  35.992  27.292  0.00  0.00    +0.000 OA
ATOM     10  O   UNL     1      19.659  38.350  24.646  0.00  0.00    +0.000 OA
ATOM     18  C   UNL     1      15.739  39.067  27.712  0.00  0.00    +0.000 A 
ATOM     19  C   UNL     1      16.178  37.751  27.856  0.00  0.00    +0.000 A 
ATOM     20  C   UNL     1      16.383  39.927  26.820  0.00  0.00    +0.000 A 
ATOM     21  C   UNL     1      17.263  37.296  27.107  0.00  0.00    +0.000 A 
ATOM     22  C   UNL     1      17.906  38.156  26.217  0.00  0.00    +0.000 A 
ATOM     23  C   UNL     1      17.470  39.474  26.070  0.00  0.00    +0.000 A 
ATOM     24  C   UNL     1      19.048  37.650  25.442  0.00  0.00    +0.000 A 
ATOM     25  C   UNL     1      18.720  35.509  26.555  0.00  0.00    +0.000 A 
ATOM     26  C   UNL     1      19.422  36.240  25.674  0.00  0.00    +0.000 A 
ENDROOT
BRANCH  25  27
ATOM     27  C   UNL     1      19.054  34.099  26.836  0.00  0.00    +0.000 A 
ATOM     28  C   UNL     1      18.365  33.398  27.829  0.00  0.00    +0.000 A 
ATOM     29  C   UNL     1      20.062  33.459  26.110  0.00  0.00    +0.000 A 
ATOM     30  C   UNL     1      18.682  32.066  28.094  0.00  0.00    +0.000 A 
ATOM     31  C   UNL     1      20.379  32.127  26.375  0.00  0.00    +0.000 A 
ATOM     32  C   UNL     1      19.689  31.430  27.368  0.00  0.00    +0.000 A 
BRANCH  32  11
ATOM     11  O   UNL     1      19.998  30.130  27.627  0.00  0.00    +0.000 OA
ATOM     39  H   UNL     1      19.211  29.582  27.468  0.00  0.00    +0.000 HD
ENDBRANCH  32  11
ENDBRANCH  25  27
BRANCH  20   8
ATOM      8  O   UNL     1      15.948  41.213  26.686  0.00  0.00    +0.000 OA
ATOM     37  H   UNL     1      15.525  41.304  25.815  0.00  0.00    +0.000 HD
ENDBRANCH  20   8
BRANCH  23   9
ATOM      9  O   UNL     1      18.071  40.343  25.210  0.00  0.00    +0.000 OA
ATOM     38  H   UNL     1      17.716  41.239  25.321  0.00  0.00    +0.000 HD
ENDBRANCH  23   9
BRANCH  18   2
ATOM      2  O   UNL     1      14.676  39.502  28.449  0.00  0.00    +0.000 OA
BRANCH   2  16
ATOM      1  O   UNL     1      15.530  38.822  30.512  0.00  0.00    +0.000 OA
ATOM     12  C   UNL     1      13.811  40.645  31.918  0.00  0.00    +0.000 C 
ATOM     13  C   UNL     1      14.577  39.528  32.627  0.00  0.00    +0.000 C 
ATOM     14  C   UNL     1      13.632  40.337  30.431  0.00  0.00    +0.000 C 
ATOM     15  C   UNL     1      15.852  39.171  31.859  0.00  0.00    +0.000 C 
ATOM     16  C   UNL     1      14.952  39.907  29.789  0.00  0.00    +0.000 C 
BRANCH  12   3
ATOM      3  O   UNL     1      12.530  40.764  32.537  0.00  0.00    +0.000 OA
ATOM     33  H   UNL     1      12.282  39.882  32.864  0.00  0.00    +0.000 HD
ENDBRANCH  12   3
BRANCH  13   4
ATOM      4  O   UNL     1      14.923  39.953  33.942  0.00  0.00    +0.000 OA
ATOM     34  H   UNL     1      14.566  40.849  34.071  0.00  0.00    +0.000 HD
ENDBRANCH  13   4
BRANCH  14   5
ATOM      5  O   UNL     1      13.168  41.506  29.758  0.00  0.00    +0.000 OA
ATOM     35  H   UNL     1      12.259  41.685  30.053  0.00  0.00    +0.000 HD
ENDBRANCH  14   5
BRANCH  15  17
ATOM     17  C   UNL     1      16.573  37.980  32.481  0.00  0.00    +0.000 C 
BRANCH  17   6
ATOM      6  O   UNL     1      17.349  37.348  31.481  0.00  0.00    +0.000 OA
ATOM     36  H   UNL     1      16.774  37.203  30.710  0.00  0.00    +0.000 HD
ENDBRANCH  17   6
ENDBRANCH  15  17
ENDBRANCH   2  16
ENDBRANCH  18   2
TORSDOF 11
ENDMDL
