MODEL 1
REMARK VINA RESULT:     -12.0      0.000      0.000
REMARK  Name = 5320623
REMARK  11 active torsions:
REMARK  status: ('A' for Active; 'I' for Inactive)
REMARK    1  A    between atoms: O_2  and  C_16
REMARK    2  A    between atoms: O_2  and  C_18
REMARK    3  A    between atoms: O_3  and  C_12
REMARK    4  A    between atoms: O_4  and  C_13
REMARK    5  A    between atoms: O_5  and  C_14
REMARK    6  A    between atoms: O_6  and  C_17
REMARK    7  A    between atoms: O_8  and  C_20
REMARK    8  A    between atoms: O_9  and  C_23
REMARK    9  A    between atoms: O_11  and  C_32
REMARK   10  A    between atoms: C_15  and  C_17
REMARK   11  A    between atoms: C_25  and  C_27
REMARK                            x       y       z     vdW  Elec       q    Type
REMARK                         _______ _______ _______ _____ _____    ______ ____
ROOT
ATOM      7  O   UNL     1       9.733  42.220  84.705  0.00  0.00    +0.000 OA
ATOM     10  O   UNL     1      11.633  39.989  81.875  0.00  0.00    +0.000 OA
ATOM     18  C   UNL     1       9.375  38.936  86.242  0.00  0.00    +0.000 A 
ATOM     19  C   UNL     1       9.290  40.310  86.021  0.00  0.00    +0.000 A 
ATOM     20  C   UNL     1      10.014  38.115  85.312  0.00  0.00    +0.000 A 
ATOM     21  C   UNL     1       9.847  40.863  84.868  0.00  0.00    +0.000 A 
ATOM     22  C   UNL     1      10.485  40.041  83.940  0.00  0.00    +0.000 A 
ATOM     23  C   UNL     1      10.571  38.664  84.157  0.00  0.00    +0.000 A 
ATOM     24  C   UNL     1      11.062  40.650  82.732  0.00  0.00    +0.000 A 
ATOM     25  C   UNL     1      10.283  42.798  83.571  0.00  0.00    +0.000 A 
ATOM     26  C   UNL     1      10.915  42.114  82.605  0.00  0.00    +0.000 A 
ENDROOT
BRANCH  25  27
ATOM     27  C   UNL     1      10.098  44.262  83.494  0.00  0.00    +0.000 A 
ATOM     28  C   UNL     1       9.308  44.920  84.438  0.00  0.00    +0.000 A 
ATOM     29  C   UNL     1      10.711  44.993  82.473  0.00  0.00    +0.000 A 
ATOM     30  C   UNL     1       9.133  46.302  84.364  0.00  0.00    +0.000 A 
ATOM     31  C   UNL     1      10.536  46.375  82.399  0.00  0.00    +0.000 A 
ATOM     32  C   UNL     1       9.746  47.029  83.344  0.00  0.00    +0.000 A 
BRANCH  32  11
ATOM     11  O   UNL     1       9.575  48.378  83.271  0.00  0.00    +0.000 OA
ATOM     39  H   UNL     1      10.367  48.815  83.628  0.00  0.00    +0.000 HD
ENDBRANCH  32  11
ENDBRANCH  25  27
BRANCH  20   8
ATOM      8  O   UNL     1      10.091  36.771  85.536  0.00  0.00    +0.000 OA
ATOM     37  H   UNL     1      11.002  36.556  85.805  0.00  0.00    +0.000 HD
ENDBRANCH  20   8
BRANCH  23   9
ATOM      9  O   UNL     1      11.188  37.830  83.274  0.00  0.00    +0.000 OA
ATOM     38  H   UNL     1      10.541  37.261  82.829  0.00  0.00    +0.000 HD
ENDBRANCH  23   9
BRANCH  18   2
ATOM      2  O   UNL     1       8.827  38.406  87.375  0.00  0.00    +0.000 OA
BRANCH   2  16
ATOM      1  O   UNL     1       7.151  39.837  88.141  0.00  0.00    +0.000 OA
ATOM     12  C   UNL     1       5.439  37.622  88.788  0.00  0.00    +0.000 C 
ATOM     13  C   UNL     1       5.161  39.044  89.277  0.00  0.00    +0.000 C 
ATOM     14  C   UNL     1       6.915  37.438  88.434  0.00  0.00    +0.000 C 
ATOM     15  C   UNL     1       5.753  40.076  88.314  0.00  0.00    +0.000 C 
ATOM     16  C   UNL     1       7.420  38.572  87.541  0.00  0.00    +0.000 C 
BRANCH  12   3
ATOM      3  O   UNL     1       5.083  36.718  89.834  0.00  0.00    +0.000 OA
ATOM     33  H   UNL     1       4.730  35.914  89.416  0.00  0.00    +0.000 HD
ENDBRANCH  12   3
BRANCH  13   4
ATOM      4  O   UNL     1       3.754  39.243  89.374  0.00  0.00    +0.000 OA
ATOM     34  H   UNL     1       3.403  38.599  90.013  0.00  0.00    +0.000 HD
ENDBRANCH  13   4
BRANCH  14   5
ATOM      5  O   UNL     1       7.082  36.207  87.730  0.00  0.00    +0.000 OA
ATOM     35  H   UNL     1       6.388  35.594  88.024  0.00  0.00    +0.000 HD
ENDBRANCH  14   5
BRANCH  15  17
ATOM     17  C   UNL     1       5.592  41.498  88.839  0.00  0.00    +0.000 C 
BRANCH  17   6
ATOM      6  O   UNL     1       4.320  41.983  88.450  0.00  0.00    +0.000 OA
ATOM     36  H   UNL     1       3.733  41.215  88.344  0.00  0.00    +0.000 HD
ENDBRANCH  17   6
ENDBRANCH  15  17
ENDBRANCH   2  16
ENDBRANCH  18   2
TORSDOF 11
ENDMDL
MODEL 2
REMARK VINA RESULT:     -11.6      2.370      3.564
REMARK  Name = 5320623
REMARK  11 active torsions:
REMARK  status: ('A' for Active; 'I' for Inactive)
REMARK    1  A    between atoms: O_2  and  C_16
REMARK    2  A    between atoms: O_2  and  C_18
REMARK    3  A    between atoms: O_3  and  C_12
REMARK    4  A    between atoms: O_4  and  C_13
REMARK    5  A    between atoms: O_5  and  C_14
REMARK    6  A    between atoms: O_6  and  C_17
REMARK    7  A    between atoms: O_8  and  C_20
REMARK    8  A    between atoms: O_9  and  C_23
REMARK    9  A    between atoms: O_11  and  C_32
REMARK   10  A    between atoms: C_15  and  C_17
REMARK   11  A    between atoms: C_25  and  C_27
REMARK                            x       y       z     vdW  Elec       q    Type
REMARK                         _______ _______ _______ _____ _____    ______ ____
ROOT
ATOM      7  O   UNL     1       9.811  42.690  84.516  0.00  0.00    +0.000 OA
ATOM     10  O   UNL     1      12.405  42.899  81.381  0.00  0.00    +0.000 OA
ATOM     18  C   UNL     1      10.702  39.163  84.284  0.00  0.00    +0.000 A 
ATOM     19  C   UNL     1      10.112  40.355  84.706  0.00  0.00    +0.000 A 
ATOM     20  C   UNL     1      11.601  39.166  83.217  0.00  0.00    +0.000 A 
ATOM     21  C   UNL     1      10.423  41.550  84.057  0.00  0.00    +0.000 A 
ATOM     22  C   UNL     1      11.321  41.551  82.991  0.00  0.00    +0.000 A 
ATOM     23  C   UNL     1      11.913  40.360  82.566  0.00  0.00    +0.000 A 
ATOM     24  C   UNL     1      11.629  42.825  82.324  0.00  0.00    +0.000 A 
ATOM     25  C   UNL     1      10.107  43.894  83.896  0.00  0.00    +0.000 A 
ATOM     26  C   UNL     1      10.948  44.022  82.857  0.00  0.00    +0.000 A 
ENDROOT
BRANCH  25  27
ATOM     27  C   UNL     1       9.391  45.053  84.464  0.00  0.00    +0.000 A 
ATOM     28  C   UNL     1       9.494  46.308  83.859  0.00  0.00    +0.000 A 
ATOM     29  C   UNL     1       8.608  44.901  85.611  0.00  0.00    +0.000 A 
ATOM     30  C   UNL     1       8.818  47.403  84.396  0.00  0.00    +0.000 A 
ATOM     31  C   UNL     1       7.931  45.996  86.148  0.00  0.00    +0.000 A 
ATOM     32  C   UNL     1       8.037  47.247  85.542  0.00  0.00    +0.000 A 
BRANCH  32  11
ATOM     11  O   UNL     1       7.377  48.316  86.066  0.00  0.00    +0.000 OA
ATOM     39  H   UNL     1       6.879  48.757  85.357  0.00  0.00    +0.000 HD
ENDBRANCH  32  11
ENDBRANCH  25  27
BRANCH  20   8
ATOM      8  O   UNL     1      12.173  37.996  82.811  0.00  0.00    +0.000 OA
ATOM     37  H   UNL     1      12.726  38.179  82.031  0.00  0.00    +0.000 HD
ENDBRANCH  20   8
BRANCH  23   9
ATOM      9  O   UNL     1      12.796  40.322  81.528  0.00  0.00    +0.000 OA
ATOM     38  H   UNL     1      12.399  40.692  80.725  0.00  0.00    +0.000 HD
ENDBRANCH  23   9
BRANCH  18   2
ATOM      2  O   UNL     1      10.391  38.000  84.927  0.00  0.00    +0.000 OA
BRANCH   2  16
ATOM      1  O   UNL     1       8.878  37.383  86.593  0.00  0.00    +0.000 OA
ATOM     12  C   UNL     1       7.054  36.304  84.653  0.00  0.00    +0.000 C 
ATOM     13  C   UNL     1       6.914  36.032  86.151  0.00  0.00    +0.000 C 
ATOM     14  C   UNL     1       8.486  36.702  84.294  0.00  0.00    +0.000 C 
ATOM     15  C   UNL     1       7.516  37.176  86.970  0.00  0.00    +0.000 C 
ATOM     16  C   UNL     1       9.014  37.788  85.232  0.00  0.00    +0.000 C 
BRANCH  12   3
ATOM      3  O   UNL     1       6.701  35.111  83.952  0.00  0.00    +0.000 OA
ATOM     33  H   UNL     1       7.304  34.409  84.252  0.00  0.00    +0.000 HD
ENDBRANCH  12   3
BRANCH  13   4
ATOM      4  O   UNL     1       5.534  35.893  86.478  0.00  0.00    +0.000 OA
ATOM     34  H   UNL     1       5.019  36.411  85.835  0.00  0.00    +0.000 HD
ENDBRANCH  13   4
BRANCH  14   5
ATOM      5  O   UNL     1       8.516  37.210  82.961  0.00  0.00    +0.000 OA
ATOM     35  H   UNL     1       7.729  36.882  82.495  0.00  0.00    +0.000 HD
ENDBRANCH  14   5
BRANCH  15  17
ATOM     17  C   UNL     1       7.494  36.874  88.465  0.00  0.00    +0.000 C 
BRANCH  17   6
ATOM      6  O   UNL     1       7.536  35.471  88.643  0.00  0.00    +0.000 OA
ATOM     36  H   UNL     1       7.671  35.299  89.591  0.00  0.00    +0.000 HD
ENDBRANCH  17   6
ENDBRANCH  15  17
ENDBRANCH   2  16
ENDBRANCH  18   2
TORSDOF 11
ENDMDL
MODEL 3
REMARK VINA RESULT:      -9.6     19.414     22.769
REMARK  Name = 5320623
REMARK  11 active torsions:
REMARK  status: ('A' for Active; 'I' for Inactive)
REMARK    1  A    between atoms: O_2  and  C_16
REMARK    2  A    between atoms: O_2  and  C_18
REMARK    3  A    between atoms: O_3  and  C_12
REMARK    4  A    between atoms: O_4  and  C_13
REMARK    5  A    between atoms: O_5  and  C_14
REMARK    6  A    between atoms: O_6  and  C_17
REMARK    7  A    between atoms: O_8  and  C_20
REMARK    8  A    between atoms: O_9  and  C_23
REMARK    9  A    between atoms: O_11  and  C_32
REMARK   10  A    between atoms: C_15  and  C_17
REMARK   11  A    between atoms: C_25  and  C_27
REMARK                            x       y       z     vdW  Elec       q    Type
REMARK                         _______ _______ _______ _____ _____    ______ ____
ROOT
ATOM      7  O   UNL     1      19.313  30.993 102.129  0.00  0.00    +0.000 OA
ATOM     10  O   UNL     1      19.706  30.477 106.151  0.00  0.00    +0.000 OA
ATOM     18  C   UNL     1      19.166  34.485 103.162  0.00  0.00    +0.000 A 
ATOM     19  C   UNL     1      19.173  33.338 102.368  0.00  0.00    +0.000 A 
ATOM     20  C   UNL     1      19.298  34.377 104.548  0.00  0.00    +0.000 A 
ATOM     21  C   UNL     1      19.313  32.084 102.961  0.00  0.00    +0.000 A 
ATOM     22  C   UNL     1      19.445  31.978 104.345  0.00  0.00    +0.000 A 
ATOM     23  C   UNL     1      19.437  33.124 105.144  0.00  0.00    +0.000 A 
ATOM     24  C   UNL     1      19.589  30.644 104.945  0.00  0.00    +0.000 A 
ATOM     25  C   UNL     1      19.458  29.734 102.690  0.00  0.00    +0.000 A 
ATOM     26  C   UNL     1      19.586  29.503 104.007  0.00  0.00    +0.000 A 
ENDROOT
BRANCH  25  27
ATOM     27  C   UNL     1      19.438  28.632 101.706  0.00  0.00    +0.000 A 
ATOM     28  C   UNL     1      18.563  28.678 100.619  0.00  0.00    +0.000 A 
ATOM     29  C   UNL     1      20.293  27.538 101.861  0.00  0.00    +0.000 A 
ATOM     30  C   UNL     1      18.544  27.638  99.691  0.00  0.00    +0.000 A 
ATOM     31  C   UNL     1      20.274  26.498 100.932  0.00  0.00    +0.000 A 
ATOM     32  C   UNL     1      19.399  26.547  99.848  0.00  0.00    +0.000 A 
BRANCH  32  11
ATOM     11  O   UNL     1      19.381  25.531  98.941  0.00  0.00    +0.000 OA
ATOM     39  H   UNL     1      20.182  25.583  98.394  0.00  0.00    +0.000 HD
ENDBRANCH  32  11
ENDBRANCH  25  27
BRANCH  20   8
ATOM      8  O   UNL     1      19.289  35.505 105.317  0.00  0.00    +0.000 OA
ATOM     37  H   UNL     1      18.815  35.307 106.144  0.00  0.00    +0.000 HD
ENDBRANCH  20   8
BRANCH  23   9
ATOM      9  O   UNL     1      19.565  33.061 106.499  0.00  0.00    +0.000 OA
ATOM     38  H   UNL     1      20.500  33.058 106.757  0.00  0.00    +0.000 HD
ENDBRANCH  23   9
BRANCH  18   2
ATOM      2  O   UNL     1      19.030  35.707 102.571  0.00  0.00    +0.000 OA
BRANCH   2  16
ATOM      1  O   UNL     1      20.700  35.827 100.945  0.00  0.00    +0.000 OA
ATOM     12  C   UNL     1      18.968  37.254  99.152  0.00  0.00    +0.000 C 
ATOM     13  C   UNL     1      20.476  37.148  98.924  0.00  0.00    +0.000 C 
ATOM     14  C   UNL     1      18.612  37.026 100.621  0.00  0.00    +0.000 C 
ATOM     15  C   UNL     1      21.032  35.869  99.557  0.00  0.00    +0.000 C 
ATOM     16  C   UNL     1      19.293  35.772 101.170  0.00  0.00    +0.000 C 
BRANCH  12   3
ATOM      3  O   UNL     1      18.554  38.564  98.759  0.00  0.00    +0.000 OA
ATOM     33  H   UNL     1      18.206  39.008  99.551  0.00  0.00    +0.000 HD
ENDBRANCH  12   3
BRANCH  13   4
ATOM      4  O   UNL     1      20.743  37.135  97.525  0.00  0.00    +0.000 OA
ATOM     34  H   UNL     1      20.646  36.220  97.209  0.00  0.00    +0.000 HD
ENDBRANCH  13   4
BRANCH  14   5
ATOM      5  O   UNL     1      17.200  36.859 100.746  0.00  0.00    +0.000 OA
ATOM     35  H   UNL     1      16.874  36.430  99.937  0.00  0.00    +0.000 HD
ENDBRANCH  14   5
BRANCH  15  17
ATOM     17  C   UNL     1      22.551  35.798  99.446  0.00  0.00    +0.000 C 
BRANCH  17   6
ATOM      6  O   UNL     1      23.043  37.087  99.131  0.00  0.00    +0.000 OA
ATOM     36  H   UNL     1      22.762  37.296  98.223  0.00  0.00    +0.000 HD
ENDBRANCH  17   6
ENDBRANCH  15  17
ENDBRANCH   2  16
ENDBRANCH  18   2
TORSDOF 11
ENDMDL
MODEL 4
REMARK VINA RESULT:      -9.3     22.951     26.541
REMARK  Name = 5320623
REMARK  11 active torsions:
REMARK  status: ('A' for Active; 'I' for Inactive)
REMARK    1  A    between atoms: O_2  and  C_16
REMARK    2  A    between atoms: O_2  and  C_18
REMARK    3  A    between atoms: O_3  and  C_12
REMARK    4  A    between atoms: O_4  and  C_13
REMARK    5  A    between atoms: O_5  and  C_14
REMARK    6  A    between atoms: O_6  and  C_17
REMARK    7  A    between atoms: O_8  and  C_20
REMARK    8  A    between atoms: O_9  and  C_23
REMARK    9  A    between atoms: O_11  and  C_32
REMARK   10  A    between atoms: C_15  and  C_17
REMARK   11  A    between atoms: C_25  and  C_27
REMARK                            x       y       z     vdW  Elec       q    Type
REMARK                         _______ _______ _______ _____ _____    ______ ____
ROOT
ATOM      7  O   UNL     1      33.761  47.400  76.887  0.00  0.00    +0.000 OA
ATOM     10  O   UNL     1      37.227  46.518  74.935  0.00  0.00    +0.000 OA
ATOM     18  C   UNL     1      32.396  45.320  74.224  0.00  0.00    +0.000 A 
ATOM     19  C   UNL     1      32.488  46.133  75.354  0.00  0.00    +0.000 A 
ATOM     20  C   UNL     1      33.546  44.980  73.510  0.00  0.00    +0.000 A 
ATOM     21  C   UNL     1      33.733  46.605  75.769  0.00  0.00    +0.000 A 
ATOM     22  C   UNL     1      34.881  46.264  75.055  0.00  0.00    +0.000 A 
ATOM     23  C   UNL     1      34.793  45.450  73.923  0.00  0.00    +0.000 A 
ATOM     24  C   UNL     1      36.181  46.776  75.515  0.00  0.00    +0.000 A 
ATOM     25  C   UNL     1      34.986  47.877  77.328  0.00  0.00    +0.000 A 
ATOM     26  C   UNL     1      36.157  47.624  76.723  0.00  0.00    +0.000 A 
ENDROOT
BRANCH  25  27
ATOM     27  C   UNL     1      34.900  48.726  78.533  0.00  0.00    +0.000 A 
ATOM     28  C   UNL     1      34.189  49.928  78.496  0.00  0.00    +0.000 A 
ATOM     29  C   UNL     1      35.533  48.332  79.715  0.00  0.00    +0.000 A 
ATOM     30  C   UNL     1      34.109  50.729  79.635  0.00  0.00    +0.000 A 
ATOM     31  C   UNL     1      35.453  49.134  80.854  0.00  0.00    +0.000 A 
ATOM     32  C   UNL     1      34.742  50.333  80.813  0.00  0.00    +0.000 A 
BRANCH  32  11
ATOM     11  O   UNL     1      34.663  51.116  81.924  0.00  0.00    +0.000 OA
ATOM     39  H   UNL     1      34.070  51.864  81.741  0.00  0.00    +0.000 HD
ENDBRANCH  32  11
ENDBRANCH  25  27
BRANCH  20   8
ATOM      8  O   UNL     1      33.447  44.185  72.405  0.00  0.00    +0.000 OA
ATOM     37  H   UNL     1      32.505  44.093  72.178  0.00  0.00    +0.000 HD
ENDBRANCH  20   8
BRANCH  23   9
ATOM      9  O   UNL     1      35.893  45.095  73.201  0.00  0.00    +0.000 OA
ATOM     38  H   UNL     1      35.635  44.683  72.362  0.00  0.00    +0.000 HD
ENDBRANCH  23   9
BRANCH  18   2
ATOM      2  O   UNL     1      31.172  44.864  73.826  0.00  0.00    +0.000 OA
BRANCH   2  16
ATOM      1  O   UNL     1      30.344  44.051  75.851  0.00  0.00    +0.000 OA
ATOM     12  C   UNL     1      27.635  44.564  75.044  0.00  0.00    +0.000 C 
ATOM     13  C   UNL     1      27.979  43.704  76.260  0.00  0.00    +0.000 C 
ATOM     14  C   UNL     1      28.805  44.629  74.062  0.00  0.00    +0.000 C 
ATOM     15  C   UNL     1      29.328  44.118  76.853  0.00  0.00    +0.000 C 
ATOM     16  C   UNL     1      30.114  44.963  74.778  0.00  0.00    +0.000 C 
BRANCH  12   3
ATOM      3  O   UNL     1      26.502  43.981  74.397  0.00  0.00    +0.000 OA
ATOM     33  H   UNL     1      26.031  44.696  73.936  0.00  0.00    +0.000 HD
ENDBRANCH  12   3
BRANCH  13   4
ATOM      4  O   UNL     1      26.964  43.856  77.248  0.00  0.00    +0.000 OA
ATOM     34  H   UNL     1      26.108  43.649  76.834  0.00  0.00    +0.000 HD
ENDBRANCH  13   4
BRANCH  14   5
ATOM      5  O   UNL     1      28.554  45.647  73.093  0.00  0.00    +0.000 OA
ATOM     35  H   UNL     1      28.141  46.401  73.546  0.00  0.00    +0.000 HD
ENDBRANCH  14   5
BRANCH  15  17
ATOM     17  C   UNL     1      29.750  43.199  77.995  0.00  0.00    +0.000 C 
BRANCH  17   6
ATOM      6  O   UNL     1      29.202  43.697  79.202  0.00  0.00    +0.000 OA
ATOM     36  H   UNL     1      29.587  43.183  79.933  0.00  0.00    +0.000 HD
ENDBRANCH  17   6
ENDBRANCH  15  17
ENDBRANCH   2  16
ENDBRANCH  18   2
TORSDOF 11
ENDMDL
