MODEL 1
REMARK VINA RESULT:      -6.4      0.000      0.000
REMARK  Name = 3PE
REMARK  37 active torsions:
REMARK  status: ('A' for Active; 'I' for Inactive)
REMARK    1  A    between atoms: P_1  and  O_3
REMARK    2  A    between atoms: P_1  and  O_5
REMARK    3  A    between atoms: O_3  and  C_9
REMARK    4  A    between atoms: O_5  and  C_7
REMARK    5  A    between atoms: C_7  and  C_8
REMARK    6  A    between atoms: C_9  and  C_10
REMARK    7  A    between atoms: C_10  and  C_11
REMARK    8  A    between atoms: C_10  and  O_31
REMARK    9  A    between atoms: C_11  and  O_12
REMARK   10  A    between atoms: O_12  and  C_14
REMARK   11  A    between atoms: C_14  and  C_15
REMARK   12  A    between atoms: C_15  and  C_16
REMARK   13  A    between atoms: C_16  and  C_17
REMARK   14  A    between atoms: C_17  and  C_18
REMARK   15  A    between atoms: C_18  and  C_19
REMARK   16  A    between atoms: C_19  and  C_20
REMARK   17  A    between atoms: C_20  and  C_21
REMARK   18  A    between atoms: C_21  and  C_22
REMARK   19  A    between atoms: C_22  and  C_23
REMARK   20  A    between atoms: C_23  and  C_24
REMARK   21  A    between atoms: C_24  and  C_25
REMARK   22  A    between atoms: C_25  and  C_26
REMARK   23  A    between atoms: C_26  and  C_27
REMARK   24  A    between atoms: C_27  and  C_28
REMARK   25  A    between atoms: C_28  and  C_29
REMARK   26  A    between atoms: O_31  and  C_33
REMARK   27  A    between atoms: C_33  and  C_34
REMARK   28  A    between atoms: C_34  and  C_35
REMARK   29  A    between atoms: C_35  and  C_36
REMARK   30  A    between atoms: C_36  and  C_37
REMARK   31  A    between atoms: C_37  and  C_38
REMARK   32  A    between atoms: C_38  and  C_39
REMARK   33  A    between atoms: C_39  and  C_40
REMARK   34  A    between atoms: C_40  and  C_41
REMARK   35  A    between atoms: C_41  and  C_42
REMARK   36  A    between atoms: C_42  and  C_43
REMARK   37  A    between atoms: C_43  and  C_44
REMARK                            x       y       z     vdW  Elec       q    Type
REMARK                         _______ _______ _______ _____ _____    ______ ____
ROOT
ATOM      1  C   UNL     1     151.975 152.659 146.929  0.00  0.00    +0.242 C 
ENDROOT
BRANCH   1   2
ATOM      2  C   UNL     1     151.396 153.252 148.209  0.00  0.00    +0.196 C 
BRANCH   2   3
ATOM      3  O   UNL     1     152.181 152.825 149.298  0.00  0.00    -0.310 OA
BRANCH   3   4
ATOM      4  P   UNL     1     151.687 153.143 150.832  0.00  0.00    +0.214 P 
ATOM      5  O   UNL     1     151.482 154.609 151.012  0.00  0.00    -0.517 OA
ATOM      6  O   UNL     1     150.649 152.115 151.128  0.00  0.00    -0.437 OA
BRANCH   4   7
ATOM      7  O   UNL     1     153.056 152.813 151.697  0.00  0.00    -0.312 OA
BRANCH   7   8
ATOM      8  C   UNL     1     153.699 153.855 152.392  0.00  0.00    +0.170 C 
BRANCH   8   9
ATOM      9  C   UNL     1     154.864 154.339 151.558  0.00  0.00    +0.142 C 
ATOM     10  N   UNL     1     156.016 154.739 152.403  0.00  0.00    -0.129 NA
ENDBRANCH   8   9
ENDBRANCH   7   8
ENDBRANCH   4   7
ENDBRANCH   3   4
ENDBRANCH   2   3
ENDBRANCH   1   2
BRANCH   1  11
ATOM     11  C   UNL     1     152.935 151.527 147.227  0.00  0.00    +0.254 C 
BRANCH  11  12
ATOM     12  O   UNL     1     153.848 151.465 146.136  0.00  0.00    -0.444 OA
BRANCH  12  13
ATOM     13  C   UNL     1     153.819 150.396 145.347  0.00  0.00    +0.317 C 
ATOM     14  O   UNL     1     154.250 150.398 144.224  0.00  0.00    -0.250 OA
BRANCH  13  15
ATOM     15  C   UNL     1     153.196 149.222 146.046  0.00  0.00    +0.110 C 
BRANCH  15  16
ATOM     16  C   UNL     1     152.435 148.282 145.128  0.00  0.00    +0.012 C 
BRANCH  16  17
ATOM     17  C   UNL     1     153.268 147.055 144.787  0.00  0.00    +0.001 C 
BRANCH  17  18
ATOM     18  C   UNL     1     153.587 146.934 143.304  0.00  0.00    +0.000 C 
BRANCH  18  19
ATOM     19  C   UNL     1     152.566 147.622 142.411  0.00  0.00    +0.000 C 
BRANCH  19  20
ATOM     20  C   UNL     1     151.512 146.669 141.865  0.00  0.00    +0.000 C 
BRANCH  20  21
ATOM     21  C   UNL     1     150.642 147.295 140.786  0.00  0.00    +0.000 C 
BRANCH  21  22
ATOM     22  C   UNL     1     149.601 146.345 140.211  0.00  0.00    +0.000 C 
BRANCH  22  23
ATOM     23  C   UNL     1     148.515 147.061 139.419  0.00  0.00    +0.000 C 
BRANCH  23  24
ATOM     24  C   UNL     1     147.176 147.115 140.142  0.00  0.00    +0.000 C 
BRANCH  24  25
ATOM     25  C   UNL     1     146.929 148.447 140.836  0.00  0.00    +0.000 C 
BRANCH  25  26
ATOM     26  C   UNL     1     146.390 148.316 142.252  0.00  0.00    +0.000 C 
BRANCH  26  27
ATOM     27  C   UNL     1     147.203 149.103 143.269  0.00  0.00    +0.000 C 
BRANCH  27  28
ATOM     28  C   UNL     1     148.230 150.027 142.629  0.00  0.00    +0.000 C 
BRANCH  28  29
ATOM     29  C   UNL     1     149.638 149.829 143.176  0.00  0.00    +0.000 C 
ATOM     30  C   UNL     1     150.653 150.806 142.597  0.00  0.00    +0.000 C 
ENDBRANCH  28  29
ENDBRANCH  27  28
ENDBRANCH  26  27
ENDBRANCH  25  26
ENDBRANCH  24  25
ENDBRANCH  23  24
ENDBRANCH  22  23
ENDBRANCH  21  22
ENDBRANCH  20  21
ENDBRANCH  19  20
ENDBRANCH  18  19
ENDBRANCH  17  18
ENDBRANCH  16  17
ENDBRANCH  15  16
ENDBRANCH  13  15
ENDBRANCH  12  13
ENDBRANCH  11  12
ENDBRANCH   1  11
BRANCH   1  31
ATOM     31  O   UNL     1     150.998 152.070 146.056  0.00  0.00    -0.446 OA
BRANCH  31  32
ATOM     32  C   UNL     1     149.944 151.412 146.491  0.00  0.00    +0.317 C 
ATOM     33  O   UNL     1     150.022 150.413 147.174  0.00  0.00    -0.250 OA
BRANCH  32  34
ATOM     34  C   UNL     1     148.659 152.056 146.049  0.00  0.00    +0.110 C 
BRANCH  34  35
ATOM     35  C   UNL     1     148.821 153.419 145.400  0.00  0.00    +0.012 C 
BRANCH  35  36
ATOM     36  C   UNL     1     148.356 154.533 146.327  0.00  0.00    +0.001 C 
BRANCH  36  37
ATOM     37  C   UNL     1     147.580 154.021 147.533  0.00  0.00    +0.000 C 
BRANCH  37  38
ATOM     38  C   UNL     1     146.086 154.295 147.424  0.00  0.00    +0.000 C 
BRANCH  38  39
ATOM     39  C   UNL     1     145.494 154.958 148.660  0.00  0.00    +0.000 C 
BRANCH  39  40
ATOM     40  C   UNL     1     144.870 156.318 148.381  0.00  0.00    +0.000 C 
BRANCH  40  41
ATOM     41  C   UNL     1     145.433 157.431 149.255  0.00  0.00    +0.000 C 
BRANCH  41  42
ATOM     42  C   UNL     1     146.921 157.674 149.036  0.00  0.00    +0.000 C 
BRANCH  42  43
ATOM     43  C   UNL     1     147.753 157.569 150.307  0.00  0.00    +0.000 C 
BRANCH  43  44
ATOM     44  C   UNL     1     148.514 156.253 150.415  0.00  0.00    +0.000 C 
ATOM     45  C   UNL     1     147.833 155.225 151.311  0.00  0.00    +0.000 C 
ENDBRANCH  43  44
ENDBRANCH  42  43
ENDBRANCH  41  42
ENDBRANCH  40  41
ENDBRANCH  39  40
ENDBRANCH  38  39
ENDBRANCH  37  38
ENDBRANCH  36  37
ENDBRANCH  35  36
ENDBRANCH  34  35
ENDBRANCH  32  34
ENDBRANCH  31  32
ENDBRANCH   1  31
TORSDOF 37
ENDMDL
MODEL 2
REMARK VINA RESULT:      -6.3      2.029      4.110
REMARK  Name = 3PE
REMARK  37 active torsions:
REMARK  status: ('A' for Active; 'I' for Inactive)
REMARK    1  A    between atoms: P_1  and  O_3
REMARK    2  A    between atoms: P_1  and  O_5
REMARK    3  A    between atoms: O_3  and  C_9
REMARK    4  A    between atoms: O_5  and  C_7
REMARK    5  A    between atoms: C_7  and  C_8
REMARK    6  A    between atoms: C_9  and  C_10
REMARK    7  A    between atoms: C_10  and  C_11
REMARK    8  A    between atoms: C_10  and  O_31
REMARK    9  A    between atoms: C_11  and  O_12
REMARK   10  A    between atoms: O_12  and  C_14
REMARK   11  A    between atoms: C_14  and  C_15
REMARK   12  A    between atoms: C_15  and  C_16
REMARK   13  A    between atoms: C_16  and  C_17
REMARK   14  A    between atoms: C_17  and  C_18
REMARK   15  A    between atoms: C_18  and  C_19
REMARK   16  A    between atoms: C_19  and  C_20
REMARK   17  A    between atoms: C_20  and  C_21
REMARK   18  A    between atoms: C_21  and  C_22
REMARK   19  A    between atoms: C_22  and  C_23
REMARK   20  A    between atoms: C_23  and  C_24
REMARK   21  A    between atoms: C_24  and  C_25
REMARK   22  A    between atoms: C_25  and  C_26
REMARK   23  A    between atoms: C_26  and  C_27
REMARK   24  A    between atoms: C_27  and  C_28
REMARK   25  A    between atoms: C_28  and  C_29
REMARK   26  A    between atoms: O_31  and  C_33
REMARK   27  A    between atoms: C_33  and  C_34
REMARK   28  A    between atoms: C_34  and  C_35
REMARK   29  A    between atoms: C_35  and  C_36
REMARK   30  A    between atoms: C_36  and  C_37
REMARK   31  A    between atoms: C_37  and  C_38
REMARK   32  A    between atoms: C_38  and  C_39
REMARK   33  A    between atoms: C_39  and  C_40
REMARK   34  A    between atoms: C_40  and  C_41
REMARK   35  A    between atoms: C_41  and  C_42
REMARK   36  A    between atoms: C_42  and  C_43
REMARK   37  A    between atoms: C_43  and  C_44
REMARK                            x       y       z     vdW  Elec       q    Type
REMARK                         _______ _______ _______ _____ _____    ______ ____
ROOT
ATOM      1  C   UNL     1     151.277 154.201 150.092  0.00  0.00    +0.242 C 
ENDROOT
BRANCH   1   2
ATOM      2  C   UNL     1     152.637 154.651 150.618  0.00  0.00    +0.196 C 
BRANCH   2   3
ATOM      3  O   UNL     1     152.475 155.124 151.935  0.00  0.00    -0.310 OA
BRANCH   3   4
ATOM      4  P   UNL     1     153.736 155.053 152.986  0.00  0.00    +0.214 P 
ATOM      5  O   UNL     1     153.283 154.501 154.295  0.00  0.00    -0.517 OA
ATOM      6  O   UNL     1     154.871 154.497 152.197  0.00  0.00    -0.437 OA
BRANCH   4   7
ATOM      7  O   UNL     1     154.005 156.656 153.290  0.00  0.00    -0.312 OA
BRANCH   7   8
ATOM      8  C   UNL     1     153.524 157.618 152.383  0.00  0.00    +0.170 C 
BRANCH   8   9
ATOM      9  C   UNL     1     154.707 158.254 151.688  0.00  0.00    +0.142 C 
ATOM     10  N   UNL     1     155.045 157.552 150.425  0.00  0.00    -0.129 NA
ENDBRANCH   8   9
ENDBRANCH   7   8
ENDBRANCH   4   7
ENDBRANCH   3   4
ENDBRANCH   2   3
ENDBRANCH   1   2
BRANCH   1  11
ATOM     11  C   UNL     1     151.283 152.732 149.726  0.00  0.00    +0.254 C 
BRANCH  11  12
ATOM     12  O   UNL     1     151.734 152.647 148.378  0.00  0.00    -0.444 OA
BRANCH  12  13
ATOM     13  C   UNL     1     151.304 151.637 147.629  0.00  0.00    +0.317 C 
ATOM     14  O   UNL     1     150.203 151.163 147.736  0.00  0.00    -0.250 OA
BRANCH  13  15
ATOM     15  C   UNL     1     152.360 151.194 146.657  0.00  0.00    +0.110 C 
BRANCH  15  16
ATOM     16  C   UNL     1     152.237 149.745 146.220  0.00  0.00    +0.012 C 
BRANCH  16  17
ATOM     17  C   UNL     1     153.560 149.220 145.684  0.00  0.00    +0.001 C 
BRANCH  17  18
ATOM     18  C   UNL     1     153.449 147.847 145.037  0.00  0.00    +0.000 C 
BRANCH  18  19
ATOM     19  C   UNL     1     152.394 146.962 145.684  0.00  0.00    +0.000 C 
BRANCH  19  20
ATOM     20  C   UNL     1     151.597 146.148 144.675  0.00  0.00    +0.000 C 
BRANCH  20  21
ATOM     21  C   UNL     1     150.471 146.939 144.026  0.00  0.00    +0.000 C 
BRANCH  21  22
ATOM     22  C   UNL     1     150.725 147.276 142.563  0.00  0.00    +0.000 C 
BRANCH  22  23
ATOM     23  C   UNL     1     150.356 148.711 142.210  0.00  0.00    +0.000 C 
BRANCH  23  24
ATOM     24  C   UNL     1     151.469 149.709 142.505  0.00  0.00    +0.000 C 
BRANCH  24  25
ATOM     25  C   UNL     1     150.959 151.001 143.127  0.00  0.00    +0.000 C 
BRANCH  25  26
ATOM     26  C   UNL     1     149.442 151.099 143.193  0.00  0.00    +0.000 C 
BRANCH  26  27
ATOM     27  C   UNL     1     148.898 150.891 144.598  0.00  0.00    +0.000 C 
BRANCH  27  28
ATOM     28  C   UNL     1     147.444 150.439 144.618  0.00  0.00    +0.000 C 
BRANCH  28  29
ATOM     29  C   UNL     1     147.246 149.032 144.073  0.00  0.00    +0.000 C 
ATOM     30  C   UNL     1     146.544 149.001 142.720  0.00  0.00    +0.000 C 
ENDBRANCH  28  29
ENDBRANCH  27  28
ENDBRANCH  26  27
ENDBRANCH  25  26
ENDBRANCH  24  25
ENDBRANCH  23  24
ENDBRANCH  22  23
ENDBRANCH  21  22
ENDBRANCH  20  21
ENDBRANCH  19  20
ENDBRANCH  18  19
ENDBRANCH  17  18
ENDBRANCH  16  17
ENDBRANCH  15  16
ENDBRANCH  13  15
ENDBRANCH  12  13
ENDBRANCH  11  12
ENDBRANCH   1  11
BRANCH   1  31
ATOM     31  O   UNL     1     150.208 154.322 151.044  0.00  0.00    -0.446 OA
BRANCH  31  32
ATOM     32  C   UNL     1     148.965 154.596 150.704  0.00  0.00    +0.317 C 
ATOM     33  O   UNL     1     148.034 153.857 150.943  0.00  0.00    -0.250 OA
BRANCH  32  34
ATOM     34  C   UNL     1     148.855 155.923 150.007  0.00  0.00    +0.110 C 
BRANCH  34  35
ATOM     35  C   UNL     1     147.681 156.779 150.448  0.00  0.00    +0.012 C 
BRANCH  35  36
ATOM     36  C   UNL     1     146.678 156.968 149.319  0.00  0.00    +0.001 C 
BRANCH  36  37
ATOM     37  C   UNL     1     145.640 155.856 149.249  0.00  0.00    +0.000 C 
BRANCH  37  38
ATOM     38  C   UNL     1     145.687 155.098 147.930  0.00  0.00    +0.000 C 
BRANCH  38  39
ATOM     39  C   UNL     1     146.306 153.712 148.043  0.00  0.00    +0.000 C 
BRANCH  39  40
ATOM     40  C   UNL     1     147.226 153.360 146.881  0.00  0.00    +0.000 C 
BRANCH  40  41
ATOM     41  C   UNL     1     148.523 154.158 146.876  0.00  0.00    +0.000 C 
BRANCH  41  42
ATOM     42  C   UNL     1     148.621 155.144 145.719  0.00  0.00    +0.000 C 
BRANCH  42  43
ATOM     43  C   UNL     1     148.654 156.602 146.158  0.00  0.00    +0.000 C 
BRANCH  43  44
ATOM     44  C   UNL     1     149.356 157.510 145.155  0.00  0.00    +0.000 C 
ATOM     45  C   UNL     1     148.773 157.434 143.749  0.00  0.00    +0.000 C 
ENDBRANCH  43  44
ENDBRANCH  42  43
ENDBRANCH  41  42
ENDBRANCH  40  41
ENDBRANCH  39  40
ENDBRANCH  38  39
ENDBRANCH  37  38
ENDBRANCH  36  37
ENDBRANCH  35  36
ENDBRANCH  34  35
ENDBRANCH  32  34
ENDBRANCH  31  32
ENDBRANCH   1  31
TORSDOF 37
ENDMDL
MODEL 3
REMARK VINA RESULT:      -6.2      2.492      4.452
REMARK  Name = 3PE
REMARK  37 active torsions:
REMARK  status: ('A' for Active; 'I' for Inactive)
REMARK    1  A    between atoms: P_1  and  O_3
REMARK    2  A    between atoms: P_1  and  O_5
REMARK    3  A    between atoms: O_3  and  C_9
REMARK    4  A    between atoms: O_5  and  C_7
REMARK    5  A    between atoms: C_7  and  C_8
REMARK    6  A    between atoms: C_9  and  C_10
REMARK    7  A    between atoms: C_10  and  C_11
REMARK    8  A    between atoms: C_10  and  O_31
REMARK    9  A    between atoms: C_11  and  O_12
REMARK   10  A    between atoms: O_12  and  C_14
REMARK   11  A    between atoms: C_14  and  C_15
REMARK   12  A    between atoms: C_15  and  C_16
REMARK   13  A    between atoms: C_16  and  C_17
REMARK   14  A    between atoms: C_17  and  C_18
REMARK   15  A    between atoms: C_18  and  C_19
REMARK   16  A    between atoms: C_19  and  C_20
REMARK   17  A    between atoms: C_20  and  C_21
REMARK   18  A    between atoms: C_21  and  C_22
REMARK   19  A    between atoms: C_22  and  C_23
REMARK   20  A    between atoms: C_23  and  C_24
REMARK   21  A    between atoms: C_24  and  C_25
REMARK   22  A    between atoms: C_25  and  C_26
REMARK   23  A    between atoms: C_26  and  C_27
REMARK   24  A    between atoms: C_27  and  C_28
REMARK   25  A    between atoms: C_28  and  C_29
REMARK   26  A    between atoms: O_31  and  C_33
REMARK   27  A    between atoms: C_33  and  C_34
REMARK   28  A    between atoms: C_34  and  C_35
REMARK   29  A    between atoms: C_35  and  C_36
REMARK   30  A    between atoms: C_36  and  C_37
REMARK   31  A    between atoms: C_37  and  C_38
REMARK   32  A    between atoms: C_38  and  C_39
REMARK   33  A    between atoms: C_39  and  C_40
REMARK   34  A    between atoms: C_40  and  C_41
REMARK   35  A    between atoms: C_41  and  C_42
REMARK   36  A    between atoms: C_42  and  C_43
REMARK   37  A    between atoms: C_43  and  C_44
REMARK                            x       y       z     vdW  Elec       q    Type
REMARK                         _______ _______ _______ _____ _____    ______ ____
ROOT
ATOM      1  C   UNL     1     152.576 153.490 150.206  0.00  0.00    +0.242 C 
ENDROOT
BRANCH   1   2
ATOM      2  C   UNL     1     153.789 153.396 151.126  0.00  0.00    +0.196 C 
BRANCH   2   3
ATOM      3  O   UNL     1     154.441 154.644 151.138  0.00  0.00    -0.310 OA
BRANCH   3   4
ATOM      4  P   UNL     1     154.899 155.311 152.568  0.00  0.00    +0.214 P 
ATOM      5  O   UNL     1     153.872 155.037 153.614  0.00  0.00    -0.517 OA
ATOM      6  O   UNL     1     156.343 154.971 152.712  0.00  0.00    -0.437 OA
BRANCH   4   7
ATOM      7  O   UNL     1     154.737 156.924 152.250  0.00  0.00    -0.312 OA
BRANCH   7   8
ATOM      8  C   UNL     1     154.192 157.331 151.018  0.00  0.00    +0.170 C 
BRANCH   8   9
ATOM      9  C   UNL     1     155.242 158.119 150.267  0.00  0.00    +0.142 C 
ATOM     10  N   UNL     1     155.757 159.255 151.070  0.00  0.00    -0.129 NA
ENDBRANCH   8   9
ENDBRANCH   7   8
ENDBRANCH   4   7
ENDBRANCH   3   4
ENDBRANCH   2   3
ENDBRANCH   1   2
BRANCH   1  11
ATOM     11  C   UNL     1     152.362 152.203 149.438  0.00  0.00    +0.254 C 
BRANCH  11  12
ATOM     12  O   UNL     1     152.353 152.547 148.056  0.00  0.00    -0.444 OA
BRANCH  12  13
ATOM     13  C   UNL     1     151.480 151.940 147.258  0.00  0.00    +0.317 C 
ATOM     14  O   UNL     1     150.585 151.249 147.670  0.00  0.00    -0.250 OA
BRANCH  13  15
ATOM     15  C   UNL     1     151.761 152.244 145.815  0.00  0.00    +0.110 C 
BRANCH  15  16
ATOM     16  C   UNL     1     153.018 153.065 145.585  0.00  0.00    +0.012 C 
BRANCH  16  17
ATOM     17  C   UNL     1     154.084 152.246 144.872  0.00  0.00    +0.001 C 
BRANCH  17  18
ATOM     18  C   UNL     1     153.544 151.444 143.696  0.00  0.00    +0.000 C 
BRANCH  18  19
ATOM     19  C   UNL     1     154.421 150.258 143.324  0.00  0.00    +0.000 C 
BRANCH  19  20
ATOM     20  C   UNL     1     153.622 149.030 142.913  0.00  0.00    +0.000 C 
BRANCH  20  21
ATOM     21  C   UNL     1     154.024 147.774 143.672  0.00  0.00    +0.000 C 
BRANCH  21  22
ATOM     22  C   UNL     1     153.840 147.885 145.179  0.00  0.00    +0.000 C 
BRANCH  22  23
ATOM     23  C   UNL     1     152.809 146.906 145.726  0.00  0.00    +0.000 C 
BRANCH  23  24
ATOM     24  C   UNL     1     151.921 146.301 144.647  0.00  0.00    +0.000 C 
BRANCH  24  25
ATOM     25  C   UNL     1     150.449 146.644 144.828  0.00  0.00    +0.000 C 
BRANCH  25  26
ATOM     26  C   UNL     1     150.205 147.992 145.488  0.00  0.00    +0.000 C 
BRANCH  26  27
ATOM     27  C   UNL     1     150.261 149.150 144.503  0.00  0.00    +0.000 C 
BRANCH  27  28
ATOM     28  C   UNL     1     149.051 150.070 144.589  0.00  0.00    +0.000 C 
BRANCH  28  29
ATOM     29  C   UNL     1     148.852 150.917 143.339  0.00  0.00    +0.000 C 
ATOM     30  C   UNL     1     150.150 151.216 142.599  0.00  0.00    +0.000 C 
ENDBRANCH  28  29
ENDBRANCH  27  28
ENDBRANCH  26  27
ENDBRANCH  25  26
ENDBRANCH  24  25
ENDBRANCH  23  24
ENDBRANCH  22  23
ENDBRANCH  21  22
ENDBRANCH  20  21
ENDBRANCH  19  20
ENDBRANCH  18  19
ENDBRANCH  17  18
ENDBRANCH  16  17
ENDBRANCH  15  16
ENDBRANCH  13  15
ENDBRANCH  12  13
ENDBRANCH  11  12
ENDBRANCH   1  11
BRANCH   1  31
ATOM     31  O   UNL     1     151.331 153.702 150.891  0.00  0.00    -0.446 OA
BRANCH  31  32
ATOM     32  C   UNL     1     150.777 154.888 151.034  0.00  0.00    +0.317 C 
ATOM     33  O   UNL     1     151.193 155.725 151.806  0.00  0.00    -0.250 OA
BRANCH  32  34
ATOM     34  C   UNL     1     149.593 155.066 150.125  0.00  0.00    +0.110 C 
BRANCH  34  35
ATOM     35  C   UNL     1     149.309 156.504 149.725  0.00  0.00    +0.012 C 
BRANCH  35  36
ATOM     36  C   UNL     1     149.344 156.675 148.213  0.00  0.00    +0.001 C 
BRANCH  36  37
ATOM     37  C   UNL     1     150.107 155.565 147.503  0.00  0.00    +0.000 C 
BRANCH  37  38
ATOM     38  C   UNL     1     149.705 155.424 146.041  0.00  0.00    +0.000 C 
BRANCH  38  39
ATOM     39  C   UNL     1     148.358 154.743 145.840  0.00  0.00    +0.000 C 
BRANCH  39  40
ATOM     40  C   UNL     1     148.113 153.585 146.798  0.00  0.00    +0.000 C 
BRANCH  40  41
ATOM     41  C   UNL     1     146.663 153.471 147.248  0.00  0.00    +0.000 C 
BRANCH  41  42
ATOM     42  C   UNL     1     146.030 154.815 147.588  0.00  0.00    +0.000 C 
BRANCH  42  43
ATOM     43  C   UNL     1     146.008 155.121 149.080  0.00  0.00    +0.000 C 
BRANCH  43  44
ATOM     44  C   UNL     1     145.430 156.495 149.397  0.00  0.00    +0.000 C 
ATOM     45  C   UNL     1     143.913 156.564 149.273  0.00  0.00    +0.000 C 
ENDBRANCH  43  44
ENDBRANCH  42  43
ENDBRANCH  41  42
ENDBRANCH  40  41
ENDBRANCH  39  40
ENDBRANCH  38  39
ENDBRANCH  37  38
ENDBRANCH  36  37
ENDBRANCH  35  36
ENDBRANCH  34  35
ENDBRANCH  32  34
ENDBRANCH  31  32
ENDBRANCH   1  31
TORSDOF 37
ENDMDL
MODEL 4
REMARK VINA RESULT:      -6.2      2.877      7.482
REMARK  Name = 3PE
REMARK  37 active torsions:
REMARK  status: ('A' for Active; 'I' for Inactive)
REMARK    1  A    between atoms: P_1  and  O_3
REMARK    2  A    between atoms: P_1  and  O_5
REMARK    3  A    between atoms: O_3  and  C_9
REMARK    4  A    between atoms: O_5  and  C_7
REMARK    5  A    between atoms: C_7  and  C_8
REMARK    6  A    between atoms: C_9  and  C_10
REMARK    7  A    between atoms: C_10  and  C_11
REMARK    8  A    between atoms: C_10  and  O_31
REMARK    9  A    between atoms: C_11  and  O_12
REMARK   10  A    between atoms: O_12  and  C_14
REMARK   11  A    between atoms: C_14  and  C_15
REMARK   12  A    between atoms: C_15  and  C_16
REMARK   13  A    between atoms: C_16  and  C_17
REMARK   14  A    between atoms: C_17  and  C_18
REMARK   15  A    between atoms: C_18  and  C_19
REMARK   16  A    between atoms: C_19  and  C_20
REMARK   17  A    between atoms: C_20  and  C_21
REMARK   18  A    between atoms: C_21  and  C_22
REMARK   19  A    between atoms: C_22  and  C_23
REMARK   20  A    between atoms: C_23  and  C_24
REMARK   21  A    between atoms: C_24  and  C_25
REMARK   22  A    between atoms: C_25  and  C_26
REMARK   23  A    between atoms: C_26  and  C_27
REMARK   24  A    between atoms: C_27  and  C_28
REMARK   25  A    between atoms: C_28  and  C_29
REMARK   26  A    between atoms: O_31  and  C_33
REMARK   27  A    between atoms: C_33  and  C_34
REMARK   28  A    between atoms: C_34  and  C_35
REMARK   29  A    between atoms: C_35  and  C_36
REMARK   30  A    between atoms: C_36  and  C_37
REMARK   31  A    between atoms: C_37  and  C_38
REMARK   32  A    between atoms: C_38  and  C_39
REMARK   33  A    between atoms: C_39  and  C_40
REMARK   34  A    between atoms: C_40  and  C_41
REMARK   35  A    between atoms: C_41  and  C_42
REMARK   36  A    between atoms: C_42  and  C_43
REMARK   37  A    between atoms: C_43  and  C_44
REMARK                            x       y       z     vdW  Elec       q    Type
REMARK                         _______ _______ _______ _____ _____    ______ ____
ROOT
ATOM      1  C   UNL     1     149.615 154.514 147.339  0.00  0.00    +0.242 C 
ENDROOT
BRANCH   1   2
ATOM      2  C   UNL     1     148.724 155.637 146.818  0.00  0.00    +0.196 C 
BRANCH   2   3
ATOM      3  O   UNL     1     147.399 155.383 147.222  0.00  0.00    -0.310 OA
BRANCH   3   4
ATOM      4  P   UNL     1     146.579 156.516 148.085  0.00  0.00    +0.214 P 
ATOM      5  O   UNL     1     147.429 157.725 148.283  0.00  0.00    -0.517 OA
ATOM      6  O   UNL     1     145.214 156.548 147.487  0.00  0.00    -0.437 OA
BRANCH   4   7
ATOM      7  O   UNL     1     146.514 155.813 149.579  0.00  0.00    -0.312 OA
BRANCH   7   8
ATOM      8  C   UNL     1     147.489 156.145 150.538  0.00  0.00    +0.170 C 
BRANCH   8   9
ATOM      9  C   UNL     1     147.496 155.072 151.604  0.00  0.00    +0.142 C 
ATOM     10  N   UNL     1     147.406 153.713 151.017  0.00  0.00    -0.129 NA
ENDBRANCH   8   9
ENDBRANCH   7   8
ENDBRANCH   4   7
ENDBRANCH   3   4
ENDBRANCH   2   3
ENDBRANCH   1   2
BRANCH   1  11
ATOM     11  C   UNL     1     150.004 154.740 148.785  0.00  0.00    +0.254 C 
BRANCH  11  12
ATOM     12  O   UNL     1     150.258 153.456 149.347  0.00  0.00    -0.444 OA
BRANCH  12  13
ATOM     13  C   UNL     1     151.440 153.236 149.912  0.00  0.00    +0.317 C 
ATOM     14  O   UNL     1     151.629 152.363 150.719  0.00  0.00    -0.250 OA
BRANCH  13  15
ATOM     15  C   UNL     1     152.473 154.201 149.405  0.00  0.00    +0.110 C 
BRANCH  15  16
ATOM     16  C   UNL     1     153.719 153.541 148.840  0.00  0.00    +0.012 C 
BRANCH  16  17
ATOM     17  C   UNL     1     153.376 152.645 147.659  0.00  0.00    +0.001 C 
BRANCH  17  18
ATOM     18  C   UNL     1     153.046 153.418 146.390  0.00  0.00    +0.000 C 
BRANCH  18  19
ATOM     19  C   UNL     1     153.270 152.611 145.120  0.00  0.00    +0.000 C 
BRANCH  19  20
ATOM     20  C   UNL     1     152.789 151.171 145.234  0.00  0.00    +0.000 C 
BRANCH  20  21
ATOM     21  C   UNL     1     153.905 150.153 145.054  0.00  0.00    +0.000 C 
BRANCH  21  22
ATOM     22  C   UNL     1     154.444 150.081 143.633  0.00  0.00    +0.000 C 
BRANCH  22  23
ATOM     23  C   UNL     1     153.844 148.937 142.826  0.00  0.00    +0.000 C 
BRANCH  23  24
ATOM     24  C   UNL     1     154.359 147.567 143.247  0.00  0.00    +0.000 C 
BRANCH  24  25
ATOM     25  C   UNL     1     153.250 146.630 143.705  0.00  0.00    +0.000 C 
BRANCH  25  26
ATOM     26  C   UNL     1     153.082 146.563 145.215  0.00  0.00    +0.000 C 
BRANCH  26  27
ATOM     27  C   UNL     1     151.632 146.384 145.640  0.00  0.00    +0.000 C 
BRANCH  27  28
ATOM     28  C   UNL     1     150.657 146.411 144.471  0.00  0.00    +0.000 C 
BRANCH  28  29
ATOM     29  C   UNL     1     149.271 146.908 144.858  0.00  0.00    +0.000 C 
ATOM     30  C   UNL     1     149.297 148.023 145.897  0.00  0.00    +0.000 C 
ENDBRANCH  28  29
ENDBRANCH  27  28
ENDBRANCH  26  27
ENDBRANCH  25  26
ENDBRANCH  24  25
ENDBRANCH  23  24
ENDBRANCH  22  23
ENDBRANCH  21  22
ENDBRANCH  20  21
ENDBRANCH  19  20
ENDBRANCH  18  19
ENDBRANCH  17  18
ENDBRANCH  16  17
ENDBRANCH  15  16
ENDBRANCH  13  15
ENDBRANCH  12  13
ENDBRANCH  11  12
ENDBRANCH   1  11
BRANCH   1  31
ATOM     31  O   UNL     1     148.991 153.219 147.342  0.00  0.00    -0.446 OA
BRANCH  31  32
ATOM     32  C   UNL     1     149.454 152.193 146.660  0.00  0.00    +0.317 C 
ATOM     33  O   UNL     1     149.870 151.182 147.185  0.00  0.00    -0.250 OA
BRANCH  32  34
ATOM     34  C   UNL     1     149.386 152.429 145.177  0.00  0.00    +0.110 C 
BRANCH  34  35
ATOM     35  C   UNL     1     148.865 151.254 144.368  0.00  0.00    +0.012 C 
BRANCH  35  36
ATOM     36  C   UNL     1     149.515 151.196 142.993  0.00  0.00    +0.001 C 
BRANCH  36  37
ATOM     37  C   UNL     1     150.381 149.959 142.794  0.00  0.00    +0.000 C 
BRANCH  37  38
ATOM     38  C   UNL     1     149.761 148.964 141.823  0.00  0.00    +0.000 C 
BRANCH  38  39
ATOM     39  C   UNL     1     150.730 147.891 141.345  0.00  0.00    +0.000 C 
BRANCH  39  40
ATOM     40  C   UNL     1     150.041 146.658 140.777  0.00  0.00    +0.000 C 
BRANCH  40  41
ATOM     41  C   UNL     1     148.555 146.867 140.512  0.00  0.00    +0.000 C 
BRANCH  41  42
ATOM     42  C   UNL     1     147.658 146.108 141.482  0.00  0.00    +0.000 C 
BRANCH  42  43
ATOM     43  C   UNL     1     146.312 146.778 141.723  0.00  0.00    +0.000 C 
BRANCH  43  44
ATOM     44  C   UNL     1     146.241 148.192 141.159  0.00  0.00    +0.000 C 
ATOM     45  C   UNL     1     146.211 149.277 142.230  0.00  0.00    +0.000 C 
ENDBRANCH  43  44
ENDBRANCH  42  43
ENDBRANCH  41  42
ENDBRANCH  40  41
ENDBRANCH  39  40
ENDBRANCH  38  39
ENDBRANCH  37  38
ENDBRANCH  36  37
ENDBRANCH  35  36
ENDBRANCH  34  35
ENDBRANCH  32  34
ENDBRANCH  31  32
ENDBRANCH   1  31
TORSDOF 37
ENDMDL
MODEL 5
REMARK VINA RESULT:      -6.1      2.164      4.470
REMARK  Name = 3PE
REMARK  37 active torsions:
REMARK  status: ('A' for Active; 'I' for Inactive)
REMARK    1  A    between atoms: P_1  and  O_3
REMARK    2  A    between atoms: P_1  and  O_5
REMARK    3  A    between atoms: O_3  and  C_9
REMARK    4  A    between atoms: O_5  and  C_7
REMARK    5  A    between atoms: C_7  and  C_8
REMARK    6  A    between atoms: C_9  and  C_10
REMARK    7  A    between atoms: C_10  and  C_11
REMARK    8  A    between atoms: C_10  and  O_31
REMARK    9  A    between atoms: C_11  and  O_12
REMARK   10  A    between atoms: O_12  and  C_14
REMARK   11  A    between atoms: C_14  and  C_15
REMARK   12  A    between atoms: C_15  and  C_16
REMARK   13  A    between atoms: C_16  and  C_17
REMARK   14  A    between atoms: C_17  and  C_18
REMARK   15  A    between atoms: C_18  and  C_19
REMARK   16  A    between atoms: C_19  and  C_20
REMARK   17  A    between atoms: C_20  and  C_21
REMARK   18  A    between atoms: C_21  and  C_22
REMARK   19  A    between atoms: C_22  and  C_23
REMARK   20  A    between atoms: C_23  and  C_24
REMARK   21  A    between atoms: C_24  and  C_25
REMARK   22  A    between atoms: C_25  and  C_26
REMARK   23  A    between atoms: C_26  and  C_27
REMARK   24  A    between atoms: C_27  and  C_28
REMARK   25  A    between atoms: C_28  and  C_29
REMARK   26  A    between atoms: O_31  and  C_33
REMARK   27  A    between atoms: C_33  and  C_34
REMARK   28  A    between atoms: C_34  and  C_35
REMARK   29  A    between atoms: C_35  and  C_36
REMARK   30  A    between atoms: C_36  and  C_37
REMARK   31  A    between atoms: C_37  and  C_38
REMARK   32  A    between atoms: C_38  and  C_39
REMARK   33  A    between atoms: C_39  and  C_40
REMARK   34  A    between atoms: C_40  and  C_41
REMARK   35  A    between atoms: C_41  and  C_42
REMARK   36  A    between atoms: C_42  and  C_43
REMARK   37  A    between atoms: C_43  and  C_44
REMARK                            x       y       z     vdW  Elec       q    Type
REMARK                         _______ _______ _______ _____ _____    ______ ____
ROOT
ATOM      1  C   UNL     1     151.581 153.701 149.847  0.00  0.00    +0.242 C 
ENDROOT
BRANCH   1   2
ATOM      2  C   UNL     1     152.025 153.804 151.303  0.00  0.00    +0.196 C 
BRANCH   2   3
ATOM      3  O   UNL     1     153.021 154.794 151.401  0.00  0.00    -0.310 OA
BRANCH   3   4
ATOM      4  P   UNL     1     153.955 154.880 152.751  0.00  0.00    +0.214 P 
ATOM      5  O   UNL     1     153.246 154.257 153.905  0.00  0.00    -0.517 OA
ATOM      6  O   UNL     1     155.321 154.489 152.304  0.00  0.00    -0.437 OA
BRANCH   4   7
ATOM      7  O   UNL     1     153.919 156.500 153.076  0.00  0.00    -0.312 OA
BRANCH   7   8
ATOM      8  C   UNL     1     152.937 157.303 152.468  0.00  0.00    +0.170 C 
BRANCH   8   9
ATOM      9  C   UNL     1     153.613 158.513 151.865  0.00  0.00    +0.142 C 
ATOM     10  N   UNL     1     155.029 158.624 152.296  0.00  0.00    -0.129 NA
ENDBRANCH   8   9
ENDBRANCH   7   8
ENDBRANCH   4   7
ENDBRANCH   3   4
ENDBRANCH   2   3
ENDBRANCH   1   2
BRANCH   1  11
ATOM     11  C   UNL     1     152.041 152.403 149.218  0.00  0.00    +0.254 C 
BRANCH  11  12
ATOM     12  O   UNL     1     150.943 151.904 148.460  0.00  0.00    -0.444 OA
BRANCH  12  13
ATOM     13  C   UNL     1     151.181 151.420 147.245  0.00  0.00    +0.317 C 
ATOM     14  O   UNL     1     152.134 151.742 146.586  0.00  0.00    -0.250 OA
BRANCH  13  15
ATOM     15  C   UNL     1     150.122 150.437 146.836  0.00  0.00    +0.110 C 
BRANCH  15  16
ATOM     16  C   UNL     1     150.305 149.869 145.439  0.00  0.00    +0.012 C 
BRANCH  16  17
ATOM     17  C   UNL     1     148.981 149.384 144.867  0.00  0.00    +0.001 C 
BRANCH  17  18
ATOM     18  C   UNL     1     148.629 150.024 143.532  0.00  0.00    +0.000 C 
BRANCH  18  19
ATOM     19  C   UNL     1     148.396 149.011 142.422  0.00  0.00    +0.000 C 
BRANCH  19  20
ATOM     20  C   UNL     1     149.609 148.131 142.153  0.00  0.00    +0.000 C 
BRANCH  20  21
ATOM     21  C   UNL     1     149.293 146.644 142.213  0.00  0.00    +0.000 C 
BRANCH  21  22
ATOM     22  C   UNL     1     149.614 146.005 143.557  0.00  0.00    +0.000 C 
BRANCH  22  23
ATOM     23  C   UNL     1     151.108 145.941 143.844  0.00  0.00    +0.000 C 
BRANCH  23  24
ATOM     24  C   UNL     1     151.483 146.492 145.213  0.00  0.00    +0.000 C 
BRANCH  24  25
ATOM     25  C   UNL     1     152.987 146.621 145.410  0.00  0.00    +0.000 C 
BRANCH  25  26
ATOM     26  C   UNL     1     153.494 148.055 145.375  0.00  0.00    +0.000 C 
BRANCH  26  27
ATOM     27  C   UNL     1     154.116 148.428 144.038  0.00  0.00    +0.000 C 
BRANCH  27  28
ATOM     28  C   UNL     1     153.113 149.008 143.051  0.00  0.00    +0.000 C 
BRANCH  28  29
ATOM     29  C   UNL     1     153.065 150.530 143.068  0.00  0.00    +0.000 C 
ATOM     30  C   UNL     1     151.862 151.105 142.330  0.00  0.00    +0.000 C 
ENDBRANCH  28  29
ENDBRANCH  27  28
ENDBRANCH  26  27
ENDBRANCH  25  26
ENDBRANCH  24  25
ENDBRANCH  23  24
ENDBRANCH  22  23
ENDBRANCH  21  22
ENDBRANCH  20  21
ENDBRANCH  19  20
ENDBRANCH  18  19
ENDBRANCH  17  18
ENDBRANCH  16  17
ENDBRANCH  15  16
ENDBRANCH  13  15
ENDBRANCH  12  13
ENDBRANCH  11  12
ENDBRANCH   1  11
BRANCH   1  31
ATOM     31  O   UNL     1     150.156 153.696 149.663  0.00  0.00    -0.446 OA
BRANCH  31  32
ATOM     32  C   UNL     1     149.329 154.400 150.407  0.00  0.00    +0.317 C 
ATOM     33  O   UNL     1     148.640 153.911 151.277  0.00  0.00    -0.250 OA
BRANCH  32  34
ATOM     34  C   UNL     1     149.361 155.860 150.051  0.00  0.00    +0.110 C 
BRANCH  34  35
ATOM     35  C   UNL     1     148.055 156.600 150.283  0.00  0.00    +0.012 C 
BRANCH  35  36
ATOM     36  C   UNL     1     147.138 156.498 149.073  0.00  0.00    +0.001 C 
BRANCH  36  37
ATOM     37  C   UNL     1     145.954 155.567 149.298  0.00  0.00    +0.000 C 
BRANCH  37  38
ATOM     38  C   UNL     1     146.164 154.195 148.670  0.00  0.00    +0.000 C 
BRANCH  38  39
ATOM     39  C   UNL     1     146.648 154.250 147.228  0.00  0.00    +0.000 C 
BRANCH  39  40
ATOM     40  C   UNL     1     147.933 153.470 146.987  0.00  0.00    +0.000 C 
BRANCH  40  41
ATOM     41  C   UNL     1     148.985 154.262 146.222  0.00  0.00    +0.000 C 
BRANCH  41  42
ATOM     42  C   UNL     1     148.408 155.444 145.453  0.00  0.00    +0.000 C 
BRANCH  42  43
ATOM     43  C   UNL     1     149.208 156.730 145.615  0.00  0.00    +0.000 C 
BRANCH  43  44
ATOM     44  C   UNL     1     150.509 156.529 146.383  0.00  0.00    +0.000 C 
ATOM     45  C   UNL     1     150.874 157.703 147.284  0.00  0.00    +0.000 C 
ENDBRANCH  43  44
ENDBRANCH  42  43
ENDBRANCH  41  42
ENDBRANCH  40  41
ENDBRANCH  39  40
ENDBRANCH  38  39
ENDBRANCH  37  38
ENDBRANCH  36  37
ENDBRANCH  35  36
ENDBRANCH  34  35
ENDBRANCH  32  34
ENDBRANCH  31  32
ENDBRANCH   1  31
TORSDOF 37
ENDMDL
MODEL 6
REMARK VINA RESULT:      -6.1      1.954      4.119
REMARK  Name = 3PE
REMARK  37 active torsions:
REMARK  status: ('A' for Active; 'I' for Inactive)
REMARK    1  A    between atoms: P_1  and  O_3
REMARK    2  A    between atoms: P_1  and  O_5
REMARK    3  A    between atoms: O_3  and  C_9
REMARK    4  A    between atoms: O_5  and  C_7
REMARK    5  A    between atoms: C_7  and  C_8
REMARK    6  A    between atoms: C_9  and  C_10
REMARK    7  A    between atoms: C_10  and  C_11
REMARK    8  A    between atoms: C_10  and  O_31
REMARK    9  A    between atoms: C_11  and  O_12
REMARK   10  A    between atoms: O_12  and  C_14
REMARK   11  A    between atoms: C_14  and  C_15
REMARK   12  A    between atoms: C_15  and  C_16
REMARK   13  A    between atoms: C_16  and  C_17
REMARK   14  A    between atoms: C_17  and  C_18
REMARK   15  A    between atoms: C_18  and  C_19
REMARK   16  A    between atoms: C_19  and  C_20
REMARK   17  A    between atoms: C_20  and  C_21
REMARK   18  A    between atoms: C_21  and  C_22
REMARK   19  A    between atoms: C_22  and  C_23
REMARK   20  A    between atoms: C_23  and  C_24
REMARK   21  A    between atoms: C_24  and  C_25
REMARK   22  A    between atoms: C_25  and  C_26
REMARK   23  A    between atoms: C_26  and  C_27
REMARK   24  A    between atoms: C_27  and  C_28
REMARK   25  A    between atoms: C_28  and  C_29
REMARK   26  A    between atoms: O_31  and  C_33
REMARK   27  A    between atoms: C_33  and  C_34
REMARK   28  A    between atoms: C_34  and  C_35
REMARK   29  A    between atoms: C_35  and  C_36
REMARK   30  A    between atoms: C_36  and  C_37
REMARK   31  A    between atoms: C_37  and  C_38
REMARK   32  A    between atoms: C_38  and  C_39
REMARK   33  A    between atoms: C_39  and  C_40
REMARK   34  A    between atoms: C_40  and  C_41
REMARK   35  A    between atoms: C_41  and  C_42
REMARK   36  A    between atoms: C_42  and  C_43
REMARK   37  A    between atoms: C_43  and  C_44
REMARK                            x       y       z     vdW  Elec       q    Type
REMARK                         _______ _______ _______ _____ _____    ______ ____
ROOT
ATOM      1  C   UNL     1     151.331 154.881 149.407  0.00  0.00    +0.242 C 
ENDROOT
BRANCH   1   2
ATOM      2  C   UNL     1     152.566 155.140 150.264  0.00  0.00    +0.196 C 
BRANCH   2   3
ATOM      3  O   UNL     1     152.340 154.609 151.548  0.00  0.00    -0.310 OA
BRANCH   3   4
ATOM      4  P   UNL     1     153.619 154.220 152.505  0.00  0.00    +0.214 P 
ATOM      5  O   UNL     1     153.214 154.249 153.939  0.00  0.00    -0.517 OA
ATOM      6  O   UNL     1     154.257 153.046 151.844  0.00  0.00    -0.437 OA
BRANCH   4   7
ATOM      7  O   UNL     1     154.584 155.550 152.326  0.00  0.00    -0.312 OA
BRANCH   7   8
ATOM      8  C   UNL     1     154.197 156.765 152.918  0.00  0.00    +0.170 C 
BRANCH   8   9
ATOM      9  C   UNL     1     154.951 157.889 152.244  0.00  0.00    +0.142 C 
ATOM     10  N   UNL     1     154.053 159.011 151.874  0.00  0.00    -0.129 NA
ENDBRANCH   8   9
ENDBRANCH   7   8
ENDBRANCH   4   7
ENDBRANCH   3   4
ENDBRANCH   2   3
ENDBRANCH   1   2
BRANCH   1  11
ATOM     11  C   UNL     1     151.380 153.512 148.763  0.00  0.00    +0.254 C 
BRANCH  11  12
ATOM     12  O   UNL     1     151.690 153.716 147.389  0.00  0.00    -0.444 OA
BRANCH  12  13
ATOM     13  C   UNL     1     151.786 152.652 146.597  0.00  0.00    +0.317 C 
ATOM     14  O   UNL     1     152.455 152.636 145.597  0.00  0.00    -0.250 OA
BRANCH  13  15
ATOM     15  C   UNL     1     150.968 151.508 147.125  0.00  0.00    +0.110 C 
BRANCH  15  16
ATOM     16  C   UNL     1     150.220 150.731 146.054  0.00  0.00    +0.012 C 
BRANCH  16  17
ATOM     17  C   UNL     1     150.774 149.321 145.915  0.00  0.00    +0.001 C 
BRANCH  17  18
ATOM     18  C   UNL     1     149.696 148.246 145.917  0.00  0.00    +0.000 C 
BRANCH  18  19
ATOM     19  C   UNL     1     150.137 146.952 145.249  0.00  0.00    +0.000 C 
BRANCH  19  20
ATOM     20  C   UNL     1     151.572 146.567 145.582  0.00  0.00    +0.000 C 
BRANCH  20  21
ATOM     21  C   UNL     1     152.331 146.004 144.390  0.00  0.00    +0.000 C 
BRANCH  21  22
ATOM     22  C   UNL     1     153.422 146.928 143.867  0.00  0.00    +0.000 C 
BRANCH  22  23
ATOM     23  C   UNL     1     153.016 147.669 142.600  0.00  0.00    +0.000 C 
BRANCH  23  24
ATOM     24  C   UNL     1     151.848 147.020 141.870  0.00  0.00    +0.000 C 
BRANCH  24  25
ATOM     25  C   UNL     1     150.772 148.018 141.465  0.00  0.00    +0.000 C 
BRANCH  25  26
ATOM     26  C   UNL     1     150.792 149.308 142.270  0.00  0.00    +0.000 C 
BRANCH  26  27
ATOM     27  C   UNL     1     149.397 149.835 142.573  0.00  0.00    +0.000 C 
BRANCH  27  28
ATOM     28  C   UNL     1     148.294 148.840 142.241  0.00  0.00    +0.000 C 
BRANCH  28  29
ATOM     29  C   UNL     1     146.958 149.188 142.883  0.00  0.00    +0.000 C 
ATOM     30  C   UNL     1     147.096 150.035 144.143  0.00  0.00    +0.000 C 
ENDBRANCH  28  29
ENDBRANCH  27  28
ENDBRANCH  26  27
ENDBRANCH  25  26
ENDBRANCH  24  25
ENDBRANCH  23  24
ENDBRANCH  22  23
ENDBRANCH  21  22
ENDBRANCH  20  21
ENDBRANCH  19  20
ENDBRANCH  18  19
ENDBRANCH  17  18
ENDBRANCH  16  17
ENDBRANCH  15  16
ENDBRANCH  13  15
ENDBRANCH  12  13
ENDBRANCH  11  12
ENDBRANCH   1  11
BRANCH   1  31
ATOM     31  O   UNL     1     150.094 154.881 150.139  0.00  0.00    -0.446 OA
BRANCH  31  32
ATOM     32  C   UNL     1     149.372 155.964 150.338  0.00  0.00    +0.317 C 
ATOM     33  O   UNL     1     149.829 157.086 150.282  0.00  0.00    -0.250 OA
BRANCH  32  34
ATOM     34  C   UNL     1     147.934 155.633 150.624  0.00  0.00    +0.110 C 
BRANCH  34  35
ATOM     35  C   UNL     1     146.924 156.548 149.954  0.00  0.00    +0.012 C 
BRANCH  35  36
ATOM     36  C   UNL     1     145.689 155.779 149.508  0.00  0.00    +0.001 C 
BRANCH  36  37
ATOM     37  C   UNL     1     145.810 155.222 148.096  0.00  0.00    +0.000 C 
BRANCH  37  38
ATOM     38  C   UNL     1     146.079 153.723 148.082  0.00  0.00    +0.000 C 
BRANCH  38  39
ATOM     39  C   UNL     1     147.117 153.298 147.053  0.00  0.00    +0.000 C 
BRANCH  39  40
ATOM     40  C   UNL     1     148.302 154.250 146.955  0.00  0.00    +0.000 C 
BRANCH  40  41
ATOM     41  C   UNL     1     148.628 154.663 145.526  0.00  0.00    +0.000 C 
BRANCH  41  42
ATOM     42  C   UNL     1     148.981 156.139 145.390  0.00  0.00    +0.000 C 
BRANCH  42  43
ATOM     43  C   UNL     1     149.456 156.776 146.689  0.00  0.00    +0.000 C 
BRANCH  43  44
ATOM     44  C   UNL     1     148.639 158.000 147.087  0.00  0.00    +0.000 C 
ATOM     45  C   UNL     1     147.294 158.094 146.375  0.00  0.00    +0.000 C 
ENDBRANCH  43  44
ENDBRANCH  42  43
ENDBRANCH  41  42
ENDBRANCH  40  41
ENDBRANCH  39  40
ENDBRANCH  38  39
ENDBRANCH  37  38
ENDBRANCH  36  37
ENDBRANCH  35  36
ENDBRANCH  34  35
ENDBRANCH  32  34
ENDBRANCH  31  32
ENDBRANCH   1  31
TORSDOF 37
ENDMDL
MODEL 7
REMARK VINA RESULT:      -6.1      3.266      7.695
REMARK  Name = 3PE
REMARK  37 active torsions:
REMARK  status: ('A' for Active; 'I' for Inactive)
REMARK    1  A    between atoms: P_1  and  O_3
REMARK    2  A    between atoms: P_1  and  O_5
REMARK    3  A    between atoms: O_3  and  C_9
REMARK    4  A    between atoms: O_5  and  C_7
REMARK    5  A    between atoms: C_7  and  C_8
REMARK    6  A    between atoms: C_9  and  C_10
REMARK    7  A    between atoms: C_10  and  C_11
REMARK    8  A    between atoms: C_10  and  O_31
REMARK    9  A    between atoms: C_11  and  O_12
REMARK   10  A    between atoms: O_12  and  C_14
REMARK   11  A    between atoms: C_14  and  C_15
REMARK   12  A    between atoms: C_15  and  C_16
REMARK   13  A    between atoms: C_16  and  C_17
REMARK   14  A    between atoms: C_17  and  C_18
REMARK   15  A    between atoms: C_18  and  C_19
REMARK   16  A    between atoms: C_19  and  C_20
REMARK   17  A    between atoms: C_20  and  C_21
REMARK   18  A    between atoms: C_21  and  C_22
REMARK   19  A    between atoms: C_22  and  C_23
REMARK   20  A    between atoms: C_23  and  C_24
REMARK   21  A    between atoms: C_24  and  C_25
REMARK   22  A    between atoms: C_25  and  C_26
REMARK   23  A    between atoms: C_26  and  C_27
REMARK   24  A    between atoms: C_27  and  C_28
REMARK   25  A    between atoms: C_28  and  C_29
REMARK   26  A    between atoms: O_31  and  C_33
REMARK   27  A    between atoms: C_33  and  C_34
REMARK   28  A    between atoms: C_34  and  C_35
REMARK   29  A    between atoms: C_35  and  C_36
REMARK   30  A    between atoms: C_36  and  C_37
REMARK   31  A    between atoms: C_37  and  C_38
REMARK   32  A    between atoms: C_38  and  C_39
REMARK   33  A    between atoms: C_39  and  C_40
REMARK   34  A    between atoms: C_40  and  C_41
REMARK   35  A    between atoms: C_41  and  C_42
REMARK   36  A    between atoms: C_42  and  C_43
REMARK   37  A    between atoms: C_43  and  C_44
REMARK                            x       y       z     vdW  Elec       q    Type
REMARK                         _______ _______ _______ _____ _____    ______ ____
ROOT
ATOM      1  C   UNL     1     149.923 154.600 147.346  0.00  0.00    +0.242 C 
ENDROOT
BRANCH   1   2
ATOM      2  C   UNL     1     149.248 155.788 146.667  0.00  0.00    +0.196 C 
BRANCH   2   3
ATOM      3  O   UNL     1     147.891 155.809 147.045  0.00  0.00    -0.310 OA
BRANCH   3   4
ATOM      4  P   UNL     1     147.182 157.234 147.454  0.00  0.00    +0.214 P 
ATOM      5  O   UNL     1     145.739 157.214 147.080  0.00  0.00    -0.517 OA
ATOM      6  O   UNL     1     147.682 157.539 148.824  0.00  0.00    -0.437 OA
BRANCH   4   7
ATOM      7  O   UNL     1     147.871 158.272 146.368  0.00  0.00    -0.312 OA
BRANCH   7   8
ATOM      8  C   UNL     1     147.321 158.381 145.077  0.00  0.00    +0.170 C 
BRANCH   8   9
ATOM      9  C   UNL     1     148.410 158.835 144.130  0.00  0.00    +0.142 C 
ATOM     10  N   UNL     1     149.136 157.685 143.536  0.00  0.00    -0.129 NA
ENDBRANCH   8   9
ENDBRANCH   7   8
ENDBRANCH   4   7
ENDBRANCH   3   4
ENDBRANCH   2   3
ENDBRANCH   1   2
BRANCH   1  11
ATOM     11  C   UNL     1     150.286 154.916 148.782  0.00  0.00    +0.254 C 
BRANCH  11  12
ATOM     12  O   UNL     1     150.027 153.737 149.538  0.00  0.00    -0.444 OA
BRANCH  12  13
ATOM     13  C   UNL     1     151.037 153.169 150.190  0.00  0.00    +0.317 C 
ATOM     14  O   UNL     1     150.896 152.232 150.930  0.00  0.00    -0.250 OA
BRANCH  13  15
ATOM     15  C   UNL     1     152.339 153.845 149.868  0.00  0.00    +0.110 C 
BRANCH  15  16
ATOM     16  C   UNL     1     153.407 152.912 149.323  0.00  0.00    +0.012 C 
BRANCH  16  17
ATOM     17  C   UNL     1     152.956 152.264 148.023  0.00  0.00    +0.001 C 
BRANCH  17  18
ATOM     18  C   UNL     1     153.223 153.123 146.795  0.00  0.00    +0.000 C 
BRANCH  18  19
ATOM     19  C   UNL     1     152.753 152.480 145.498  0.00  0.00    +0.000 C 
BRANCH  19  20
ATOM     20  C   UNL     1     152.633 150.966 145.591  0.00  0.00    +0.000 C 
BRANCH  20  21
ATOM     21  C   UNL     1     153.918 150.241 145.221  0.00  0.00    +0.000 C 
BRANCH  21  22
ATOM     22  C   UNL     1     154.297 150.379 143.753  0.00  0.00    +0.000 C 
BRANCH  22  23
ATOM     23  C   UNL     1     153.776 149.234 142.894  0.00  0.00    +0.000 C 
BRANCH  23  24
ATOM     24  C   UNL     1     154.465 147.906 143.179  0.00  0.00    +0.000 C 
BRANCH  24  25
ATOM     25  C   UNL     1     153.496 146.816 143.614  0.00  0.00    +0.000 C 
BRANCH  25  26
ATOM     26  C   UNL     1     153.599 146.449 145.087  0.00  0.00    +0.000 C 
BRANCH  26  27
ATOM     27  C   UNL     1     152.265 146.541 145.813  0.00  0.00    +0.000 C 
BRANCH  27  28
ATOM     28  C   UNL     1     151.137 147.056 144.931  0.00  0.00    +0.000 C 
BRANCH  28  29
ATOM     29  C   UNL     1     150.338 148.182 145.574  0.00  0.00    +0.000 C 
ATOM     30  C   UNL     1     148.954 147.749 146.043  0.00  0.00    +0.000 C 
ENDBRANCH  28  29
ENDBRANCH  27  28
ENDBRANCH  26  27
ENDBRANCH  25  26
ENDBRANCH  24  25
ENDBRANCH  23  24
ENDBRANCH  22  23
ENDBRANCH  21  22
ENDBRANCH  20  21
ENDBRANCH  19  20
ENDBRANCH  18  19
ENDBRANCH  17  18
ENDBRANCH  16  17
ENDBRANCH  15  16
ENDBRANCH  13  15
ENDBRANCH  12  13
ENDBRANCH  11  12
ENDBRANCH   1  11
BRANCH   1  31
ATOM     31  O   UNL     1     149.098 153.428 147.442  0.00  0.00    -0.446 OA
BRANCH  31  32
ATOM     32  C   UNL     1     149.298 152.342 146.725  0.00  0.00    +0.317 C 
ATOM     33  O   UNL     1     149.734 151.311 147.190  0.00  0.00    -0.250 OA
BRANCH  32  34
ATOM     34  C   UNL     1     148.911 152.543 145.285  0.00  0.00    +0.110 C 
BRANCH  34  35
ATOM     35  C   UNL     1     148.808 151.265 144.470  0.00  0.00    +0.012 C 
BRANCH  35  36
ATOM     36  C   UNL     1     149.417 151.440 143.087  0.00  0.00    +0.001 C 
BRANCH  36  37
ATOM     37  C   UNL     1     150.423 150.353 142.735  0.00  0.00    +0.000 C 
BRANCH  37  38
ATOM     38  C   UNL     1     149.811 149.242 141.893  0.00  0.00    +0.000 C 
BRANCH  38  39
ATOM     39  C   UNL     1     150.796 148.142 141.522  0.00  0.00    +0.000 C 
BRANCH  39  40
ATOM     40  C   UNL     1     150.155 146.765 141.407  0.00  0.00    +0.000 C 
BRANCH  40  41
ATOM     41  C   UNL     1     148.632 146.806 141.430  0.00  0.00    +0.000 C 
BRANCH  41  42
ATOM     42  C   UNL     1     148.039 146.405 142.775  0.00  0.00    +0.000 C 
BRANCH  42  43
ATOM     43  C   UNL     1     146.700 147.065 143.075  0.00  0.00    +0.000 C 
BRANCH  43  44
ATOM     44  C   UNL     1     146.239 148.007 141.969  0.00  0.00    +0.000 C 
ATOM     45  C   UNL     1     146.203 149.472 142.390  0.00  0.00    +0.000 C 
ENDBRANCH  43  44
ENDBRANCH  42  43
ENDBRANCH  41  42
ENDBRANCH  40  41
ENDBRANCH  39  40
ENDBRANCH  38  39
ENDBRANCH  37  38
ENDBRANCH  36  37
ENDBRANCH  35  36
ENDBRANCH  34  35
ENDBRANCH  32  34
ENDBRANCH  31  32
ENDBRANCH   1  31
TORSDOF 37
ENDMDL
MODEL 8
REMARK VINA RESULT:      -6.1      2.793      8.373
REMARK  Name = 3PE
REMARK  37 active torsions:
REMARK  status: ('A' for Active; 'I' for Inactive)
REMARK    1  A    between atoms: P_1  and  O_3
REMARK    2  A    between atoms: P_1  and  O_5
REMARK    3  A    between atoms: O_3  and  C_9
REMARK    4  A    between atoms: O_5  and  C_7
REMARK    5  A    between atoms: C_7  and  C_8
REMARK    6  A    between atoms: C_9  and  C_10
REMARK    7  A    between atoms: C_10  and  C_11
REMARK    8  A    between atoms: C_10  and  O_31
REMARK    9  A    between atoms: C_11  and  O_12
REMARK   10  A    between atoms: O_12  and  C_14
REMARK   11  A    between atoms: C_14  and  C_15
REMARK   12  A    between atoms: C_15  and  C_16
REMARK   13  A    between atoms: C_16  and  C_17
REMARK   14  A    between atoms: C_17  and  C_18
REMARK   15  A    between atoms: C_18  and  C_19
REMARK   16  A    between atoms: C_19  and  C_20
REMARK   17  A    between atoms: C_20  and  C_21
REMARK   18  A    between atoms: C_21  and  C_22
REMARK   19  A    between atoms: C_22  and  C_23
REMARK   20  A    between atoms: C_23  and  C_24
REMARK   21  A    between atoms: C_24  and  C_25
REMARK   22  A    between atoms: C_25  and  C_26
REMARK   23  A    between atoms: C_26  and  C_27
REMARK   24  A    between atoms: C_27  and  C_28
REMARK   25  A    between atoms: C_28  and  C_29
REMARK   26  A    between atoms: O_31  and  C_33
REMARK   27  A    between atoms: C_33  and  C_34
REMARK   28  A    between atoms: C_34  and  C_35
REMARK   29  A    between atoms: C_35  and  C_36
REMARK   30  A    between atoms: C_36  and  C_37
REMARK   31  A    between atoms: C_37  and  C_38
REMARK   32  A    between atoms: C_38  and  C_39
REMARK   33  A    between atoms: C_39  and  C_40
REMARK   34  A    between atoms: C_40  and  C_41
REMARK   35  A    between atoms: C_41  and  C_42
REMARK   36  A    between atoms: C_42  and  C_43
REMARK   37  A    between atoms: C_43  and  C_44
REMARK                            x       y       z     vdW  Elec       q    Type
REMARK                         _______ _______ _______ _____ _____    ______ ____
ROOT
ATOM      1  C   UNL     1     152.188 153.154 149.877  0.00  0.00    +0.242 C 
ENDROOT
BRANCH   1   2
ATOM      2  C   UNL     1     153.463 153.582 150.597  0.00  0.00    +0.196 C 
BRANCH   2   3
ATOM      3  O   UNL     1     153.107 154.207 151.808  0.00  0.00    -0.310 OA
BRANCH   3   4
ATOM      4  P   UNL     1     153.811 155.632 152.226  0.00  0.00    +0.214 P 
ATOM      5  O   UNL     1     152.879 156.438 153.065  0.00  0.00    -0.517 OA
ATOM      6  O   UNL     1     155.199 155.275 152.634  0.00  0.00    -0.437 OA
BRANCH   4   7
ATOM      7  O   UNL     1     153.844 156.424 150.776  0.00  0.00    -0.312 OA
BRANCH   7   8
ATOM      8  C   UNL     1     152.871 157.403 150.505  0.00  0.00    +0.170 C 
BRANCH   8   9
ATOM      9  C   UNL     1     153.551 158.753 150.455  0.00  0.00    +0.142 C 
ATOM     10  N   UNL     1     153.126 159.626 151.578  0.00  0.00    -0.129 NA
ENDBRANCH   8   9
ENDBRANCH   7   8
ENDBRANCH   4   7
ENDBRANCH   3   4
ENDBRANCH   2   3
ENDBRANCH   1   2
BRANCH   1  11
ATOM     11  C   UNL     1     150.979 153.259 150.783  0.00  0.00    +0.254 C 
BRANCH  11  12
ATOM     12  O   UNL     1     149.968 153.932 150.040  0.00  0.00    -0.444 OA
BRANCH  12  13
ATOM     13  C   UNL     1     148.931 154.441 150.699  0.00  0.00    +0.317 C 
ATOM     14  O   UNL     1     148.164 153.768 151.336  0.00  0.00    -0.250 OA
BRANCH  13  15
ATOM     15  C   UNL     1     148.869 155.934 150.542  0.00  0.00    +0.110 C 
BRANCH  15  16
ATOM     16  C   UNL     1     147.460 156.502 150.550  0.00  0.00    +0.012 C 
BRANCH  16  17
ATOM     17  C   UNL     1     147.282 157.539 149.451  0.00  0.00    +0.001 C 
BRANCH  17  18
ATOM     18  C   UNL     1     145.891 157.534 148.835  0.00  0.00    +0.000 C 
BRANCH  18  19
ATOM     19  C   UNL     1     145.192 156.186 148.938  0.00  0.00    +0.000 C 
BRANCH  19  20
ATOM     20  C   UNL     1     145.450 155.286 147.738  0.00  0.00    +0.000 C 
BRANCH  20  21
ATOM     21  C   UNL     1     146.178 154.001 148.102  0.00  0.00    +0.000 C 
BRANCH  21  22
ATOM     22  C   UNL     1     147.474 153.793 147.331  0.00  0.00    +0.000 C 
BRANCH  22  23
ATOM     23  C   UNL     1     147.851 154.990 146.468  0.00  0.00    +0.000 C 
BRANCH  23  24
ATOM     24  C   UNL     1     149.092 155.722 146.960  0.00  0.00    +0.000 C 
BRANCH  24  25
ATOM     25  C   UNL     1     149.873 156.390 145.838  0.00  0.00    +0.000 C 
BRANCH  25  26
ATOM     26  C   UNL     1     149.301 157.730 145.400  0.00  0.00    +0.000 C 
BRANCH  26  27
ATOM     27  C   UNL     1     149.452 157.976 143.906  0.00  0.00    +0.000 C 
BRANCH  27  28
ATOM     28  C   UNL     1     149.111 159.401 143.495  0.00  0.00    +0.000 C 
BRANCH  28  29
ATOM     29  C   UNL     1     150.215 160.074 142.691  0.00  0.00    +0.000 C 
ATOM     30  C   UNL     1     151.616 159.649 143.114  0.00  0.00    +0.000 C 
ENDBRANCH  28  29
ENDBRANCH  27  28
ENDBRANCH  26  27
ENDBRANCH  25  26
ENDBRANCH  24  25
ENDBRANCH  23  24
ENDBRANCH  22  23
ENDBRANCH  21  22
ENDBRANCH  20  21
ENDBRANCH  19  20
ENDBRANCH  18  19
ENDBRANCH  17  18
ENDBRANCH  16  17
ENDBRANCH  15  16
ENDBRANCH  13  15
ENDBRANCH  12  13
ENDBRANCH  11  12
ENDBRANCH   1  11
BRANCH   1  31
ATOM     31  O   UNL     1     151.849 153.970 148.744  0.00  0.00    -0.446 OA
BRANCH  31  32
ATOM     32  C   UNL     1     152.713 154.299 147.806  0.00  0.00    +0.317 C 
ATOM     33  O   UNL     1     153.080 155.438 147.613  0.00  0.00    -0.250 OA
BRANCH  32  34
ATOM     34  C   UNL     1     153.183 153.099 147.032  0.00  0.00    +0.110 C 
BRANCH  34  35
ATOM     35  C   UNL     1     152.689 153.033 145.597  0.00  0.00    +0.012 C 
BRANCH  35  36
ATOM     36  C   UNL     1     153.584 152.147 144.743  0.00  0.00    +0.001 C 
BRANCH  36  37
ATOM     37  C   UNL     1     153.312 150.661 144.936  0.00  0.00    +0.000 C 
BRANCH  37  38
ATOM     38  C   UNL     1     152.701 150.016 143.699  0.00  0.00    +0.000 C 
BRANCH  38  39
ATOM     39  C   UNL     1     152.418 151.000 142.573  0.00  0.00    +0.000 C 
BRANCH  39  40
ATOM     40  C   UNL     1     150.936 151.153 142.257  0.00  0.00    +0.000 C 
BRANCH  40  41
ATOM     41  C   UNL     1     150.094 149.975 142.730  0.00  0.00    +0.000 C 
BRANCH  41  42
ATOM     42  C   UNL     1     149.034 150.364 143.753  0.00  0.00    +0.000 C 
BRANCH  42  43
ATOM     43  C   UNL     1     149.360 151.641 144.517  0.00  0.00    +0.000 C 
BRANCH  43  44
ATOM     44  C   UNL     1     149.460 151.426 146.022  0.00  0.00    +0.000 C 
ATOM     45  C   UNL     1     150.010 150.058 146.409  0.00  0.00    +0.000 C 
ENDBRANCH  43  44
ENDBRANCH  42  43
ENDBRANCH  41  42
ENDBRANCH  40  41
ENDBRANCH  39  40
ENDBRANCH  38  39
ENDBRANCH  37  38
ENDBRANCH  36  37
ENDBRANCH  35  36
ENDBRANCH  34  35
ENDBRANCH  32  34
ENDBRANCH  31  32
ENDBRANCH   1  31
TORSDOF 37
ENDMDL
MODEL 9
REMARK VINA RESULT:      -6.0      1.865      4.234
REMARK  Name = 3PE
REMARK  37 active torsions:
REMARK  status: ('A' for Active; 'I' for Inactive)
REMARK    1  A    between atoms: P_1  and  O_3
REMARK    2  A    between atoms: P_1  and  O_5
REMARK    3  A    between atoms: O_3  and  C_9
REMARK    4  A    between atoms: O_5  and  C_7
REMARK    5  A    between atoms: C_7  and  C_8
REMARK    6  A    between atoms: C_9  and  C_10
REMARK    7  A    between atoms: C_10  and  C_11
REMARK    8  A    between atoms: C_10  and  O_31
REMARK    9  A    between atoms: C_11  and  O_12
REMARK   10  A    between atoms: O_12  and  C_14
REMARK   11  A    between atoms: C_14  and  C_15
REMARK   12  A    between atoms: C_15  and  C_16
REMARK   13  A    between atoms: C_16  and  C_17
REMARK   14  A    between atoms: C_17  and  C_18
REMARK   15  A    between atoms: C_18  and  C_19
REMARK   16  A    between atoms: C_19  and  C_20
REMARK   17  A    between atoms: C_20  and  C_21
REMARK   18  A    between atoms: C_21  and  C_22
REMARK   19  A    between atoms: C_22  and  C_23
REMARK   20  A    between atoms: C_23  and  C_24
REMARK   21  A    between atoms: C_24  and  C_25
REMARK   22  A    between atoms: C_25  and  C_26
REMARK   23  A    between atoms: C_26  and  C_27
REMARK   24  A    between atoms: C_27  and  C_28
REMARK   25  A    between atoms: C_28  and  C_29
REMARK   26  A    between atoms: O_31  and  C_33
REMARK   27  A    between atoms: C_33  and  C_34
REMARK   28  A    between atoms: C_34  and  C_35
REMARK   29  A    between atoms: C_35  and  C_36
REMARK   30  A    between atoms: C_36  and  C_37
REMARK   31  A    between atoms: C_37  and  C_38
REMARK   32  A    between atoms: C_38  and  C_39
REMARK   33  A    between atoms: C_39  and  C_40
REMARK   34  A    between atoms: C_40  and  C_41
REMARK   35  A    between atoms: C_41  and  C_42
REMARK   36  A    between atoms: C_42  and  C_43
REMARK   37  A    between atoms: C_43  and  C_44
REMARK                            x       y       z     vdW  Elec       q    Type
REMARK                         _______ _______ _______ _____ _____    ______ ____
ROOT
ATOM      1  C   UNL     1     151.525 153.815 148.772  0.00  0.00    +0.242 C 
ENDROOT
BRANCH   1   2
ATOM      2  C   UNL     1     153.008 153.511 148.962  0.00  0.00    +0.196 C 
BRANCH   2   3
ATOM      3  O   UNL     1     153.740 154.693 148.738  0.00  0.00    -0.310 OA
BRANCH   3   4
ATOM      4  P   UNL     1     154.497 155.432 149.996  0.00  0.00    +0.214 P 
ATOM      5  O   UNL     1     155.970 155.223 149.902  0.00  0.00    -0.517 OA
ATOM      6  O   UNL     1     153.852 156.771 150.107  0.00  0.00    -0.437 OA
BRANCH   4   7
ATOM      7  O   UNL     1     154.031 154.484 151.267  0.00  0.00    -0.312 OA
BRANCH   7   8
ATOM      8  C   UNL     1     154.053 155.019 152.568  0.00  0.00    +0.170 C 
BRANCH   8   9
ATOM      9  C   UNL     1     153.156 154.177 153.447  0.00  0.00    +0.142 C 
ATOM     10  N   UNL     1     153.354 154.481 154.886  0.00  0.00    -0.129 NA
ENDBRANCH   8   9
ENDBRANCH   7   8
ENDBRANCH   4   7
ENDBRANCH   3   4
ENDBRANCH   2   3
ENDBRANCH   1   2
BRANCH   1  11
ATOM     11  C   UNL     1     150.940 153.023 147.622  0.00  0.00    +0.254 C 
BRANCH  11  12
ATOM     12  O   UNL     1     151.014 151.649 147.990  0.00  0.00    -0.444 OA
BRANCH  12  13
ATOM     13  C   UNL     1     151.536 150.789 147.122  0.00  0.00    +0.317 C 
ATOM     14  O   UNL     1     152.697 150.474 147.128  0.00  0.00    -0.250 OA
BRANCH  13  15
ATOM     15  C   UNL     1     150.492 150.278 146.169  0.00  0.00    +0.110 C 
BRANCH  15  16
ATOM     16  C   UNL     1     150.645 148.812 145.806  0.00  0.00    +0.012 C 
BRANCH  16  17
ATOM     17  C   UNL     1     149.366 148.040 146.097  0.00  0.00    +0.001 C 
BRANCH  17  18
ATOM     18  C   UNL     1     149.034 147.000 145.037  0.00  0.00    +0.000 C 
BRANCH  18  19
ATOM     19  C   UNL     1     147.889 147.415 144.125  0.00  0.00    +0.000 C 
BRANCH  19  20
ATOM     20  C   UNL     1     147.176 148.674 144.597  0.00  0.00    +0.000 C 
BRANCH  20  21
ATOM     21  C   UNL     1     147.347 149.849 143.646  0.00  0.00    +0.000 C 
BRANCH  21  22
ATOM     22  C   UNL     1     148.279 149.560 142.478  0.00  0.00    +0.000 C 
BRANCH  22  23
ATOM     23  C   UNL     1     149.607 150.300 142.579  0.00  0.00    +0.000 C 
BRANCH  23  24
ATOM     24  C   UNL     1     150.808 149.438 142.215  0.00  0.00    +0.000 C 
BRANCH  24  25
ATOM     25  C   UNL     1     150.420 148.148 141.507  0.00  0.00    +0.000 C 
BRANCH  25  26
ATOM     26  C   UNL     1     151.493 147.070 141.555  0.00  0.00    +0.000 C 
BRANCH  26  27
ATOM     27  C   UNL     1     152.336 147.133 142.819  0.00  0.00    +0.000 C 
BRANCH  27  28
ATOM     28  C   UNL     1     153.781 147.534 142.556  0.00  0.00    +0.000 C 
BRANCH  28  29
ATOM     29  C   UNL     1     154.334 148.502 143.594  0.00  0.00    +0.000 C 
ATOM     30  C   UNL     1     154.111 148.040 145.029  0.00  0.00    +0.000 C 
ENDBRANCH  28  29
ENDBRANCH  27  28
ENDBRANCH  26  27
ENDBRANCH  25  26
ENDBRANCH  24  25
ENDBRANCH  23  24
ENDBRANCH  22  23
ENDBRANCH  21  22
ENDBRANCH  20  21
ENDBRANCH  19  20
ENDBRANCH  18  19
ENDBRANCH  17  18
ENDBRANCH  16  17
ENDBRANCH  15  16
ENDBRANCH  13  15
ENDBRANCH  12  13
ENDBRANCH  11  12
ENDBRANCH   1  11
BRANCH   1  31
ATOM     31  O   UNL     1     150.702 153.461 149.896  0.00  0.00    -0.446 OA
BRANCH  31  32
ATOM     32  C   UNL     1     149.778 154.256 150.394  0.00  0.00    +0.317 C 
ATOM     33  O   UNL     1     148.808 153.848 150.995  0.00  0.00    -0.250 OA
BRANCH  32  34
ATOM     34  C   UNL     1     150.087 155.704 150.134  0.00  0.00    +0.110 C 
BRANCH  34  35
ATOM     35  C   UNL     1     148.995 156.673 150.555  0.00  0.00    +0.012 C 
BRANCH  35  36
ATOM     36  C   UNL     1     148.772 157.748 149.501  0.00  0.00    +0.001 C 
BRANCH  36  37
ATOM     37  C   UNL     1     148.247 159.054 150.081  0.00  0.00    +0.000 C 
BRANCH  37  38
ATOM     38  C   UNL     1     146.786 159.301 149.732  0.00  0.00    +0.000 C 
BRANCH  38  39
ATOM     39  C   UNL     1     146.166 158.202 148.881  0.00  0.00    +0.000 C 
BRANCH  39  40
ATOM     40  C   UNL     1     144.927 157.574 149.507  0.00  0.00    +0.000 C 
BRANCH  40  41
ATOM     41  C   UNL     1     144.590 156.205 148.932  0.00  0.00    +0.000 C 
BRANCH  41  42
ATOM     42  C   UNL     1     145.781 155.255 148.901  0.00  0.00    +0.000 C 
BRANCH  42  43
ATOM     43  C   UNL     1     145.997 154.587 147.549  0.00  0.00    +0.000 C 
BRANCH  43  44
ATOM     44  C   UNL     1     147.464 154.302 147.253  0.00  0.00    +0.000 C 
ATOM     45  C   UNL     1     147.693 153.007 146.484  0.00  0.00    +0.000 C 
ENDBRANCH  43  44
ENDBRANCH  42  43
ENDBRANCH  41  42
ENDBRANCH  40  41
ENDBRANCH  39  40
ENDBRANCH  38  39
ENDBRANCH  37  38
ENDBRANCH  36  37
ENDBRANCH  35  36
ENDBRANCH  34  35
ENDBRANCH  32  34
ENDBRANCH  31  32
ENDBRANCH   1  31
TORSDOF 37
ENDMDL
MODEL 10
REMARK VINA RESULT:      -6.0     16.603     20.776
REMARK  Name = 3PE
REMARK  37 active torsions:
REMARK  status: ('A' for Active; 'I' for Inactive)
REMARK    1  A    between atoms: P_1  and  O_3
REMARK    2  A    between atoms: P_1  and  O_5
REMARK    3  A    between atoms: O_3  and  C_9
REMARK    4  A    between atoms: O_5  and  C_7
REMARK    5  A    between atoms: C_7  and  C_8
REMARK    6  A    between atoms: C_9  and  C_10
REMARK    7  A    between atoms: C_10  and  C_11
REMARK    8  A    between atoms: C_10  and  O_31
REMARK    9  A    between atoms: C_11  and  O_12
REMARK   10  A    between atoms: O_12  and  C_14
REMARK   11  A    between atoms: C_14  and  C_15
REMARK   12  A    between atoms: C_15  and  C_16
REMARK   13  A    between atoms: C_16  and  C_17
REMARK   14  A    between atoms: C_17  and  C_18
REMARK   15  A    between atoms: C_18  and  C_19
REMARK   16  A    between atoms: C_19  and  C_20
REMARK   17  A    between atoms: C_20  and  C_21
REMARK   18  A    between atoms: C_21  and  C_22
REMARK   19  A    between atoms: C_22  and  C_23
REMARK   20  A    between atoms: C_23  and  C_24
REMARK   21  A    between atoms: C_24  and  C_25
REMARK   22  A    between atoms: C_25  and  C_26
REMARK   23  A    between atoms: C_26  and  C_27
REMARK   24  A    between atoms: C_27  and  C_28
REMARK   25  A    between atoms: C_28  and  C_29
REMARK   26  A    between atoms: O_31  and  C_33
REMARK   27  A    between atoms: C_33  and  C_34
REMARK   28  A    between atoms: C_34  and  C_35
REMARK   29  A    between atoms: C_35  and  C_36
REMARK   30  A    between atoms: C_36  and  C_37
REMARK   31  A    between atoms: C_37  and  C_38
REMARK   32  A    between atoms: C_38  and  C_39
REMARK   33  A    between atoms: C_39  and  C_40
REMARK   34  A    between atoms: C_40  and  C_41
REMARK   35  A    between atoms: C_41  and  C_42
REMARK   36  A    between atoms: C_42  and  C_43
REMARK   37  A    between atoms: C_43  and  C_44
REMARK                            x       y       z     vdW  Elec       q    Type
REMARK                         _______ _______ _______ _____ _____    ______ ____
ROOT
ATOM      1  C   UNL     1     163.336 159.934 134.724  0.00  0.00    +0.242 C 
ENDROOT
BRANCH   1   2
ATOM      2  C   UNL     1     162.828 160.571 133.434  0.00  0.00    +0.196 C 
BRANCH   2   3
ATOM      3  O   UNL     1     163.835 161.413 132.923  0.00  0.00    -0.310 OA
BRANCH   3   4
ATOM      4  P   UNL     1     164.620 160.998 131.541  0.00  0.00    +0.214 P 
ATOM      5  O   UNL     1     164.336 161.996 130.470  0.00  0.00    -0.517 OA
ATOM      6  O   UNL     1     165.991 160.609 131.974  0.00  0.00    -0.437 OA
BRANCH   4   7
ATOM      7  O   UNL     1     163.782 159.651 131.075  0.00  0.00    -0.312 OA
BRANCH   7   8
ATOM      8  C   UNL     1     164.480 158.569 130.509  0.00  0.00    +0.170 C 
BRANCH   8   9
ATOM      9  C   UNL     1     164.302 158.616 129.008  0.00  0.00    +0.142 C 
ATOM     10  N   UNL     1     163.070 157.908 128.578  0.00  0.00    -0.129 NA
ENDBRANCH   8   9
ENDBRANCH   7   8
ENDBRANCH   4   7
ENDBRANCH   3   4
ENDBRANCH   2   3
ENDBRANCH   1   2
BRANCH   1  11
ATOM     11  C   UNL     1     162.898 160.721 135.941  0.00  0.00    +0.254 C 
BRANCH  11  12
ATOM     12  O   UNL     1     164.056 160.907 136.748  0.00  0.00    -0.444 OA
BRANCH  12  13
ATOM     13  C   UNL     1     163.988 160.588 138.036  0.00  0.00    +0.317 C 
ATOM     14  O   UNL     1     164.083 159.459 138.439  0.00  0.00    -0.250 OA
BRANCH  13  15
ATOM     15  C   UNL     1     163.788 161.810 138.887  0.00  0.00    +0.110 C 
BRANCH  15  16
ATOM     16  C   UNL     1     164.862 162.870 138.716  0.00  0.00    +0.012 C 
BRANCH  16  17
ATOM     17  C   UNL     1     166.174 162.427 139.347  0.00  0.00    +0.001 C 
BRANCH  17  18
ATOM     18  C   UNL     1     166.446 163.079 140.695  0.00  0.00    +0.000 C 
BRANCH  18  19
ATOM     19  C   UNL     1     166.591 162.077 141.830  0.00  0.00    +0.000 C 
BRANCH  19  20
ATOM     20  C   UNL     1     165.254 161.586 142.367  0.00  0.00    +0.000 C 
BRANCH  20  21
ATOM     21  C   UNL     1     165.000 160.113 142.083  0.00  0.00    +0.000 C 
BRANCH  21  22
ATOM     22  C   UNL     1     163.524 159.750 142.006  0.00  0.00    +0.000 C 
BRANCH  22  23
ATOM     23  C   UNL     1     162.624 160.771 142.692  0.00  0.00    +0.000 C 
BRANCH  23  24
ATOM     24  C   UNL     1     161.499 161.279 141.799  0.00  0.00    +0.000 C 
BRANCH  24  25
ATOM     25  C   UNL     1     160.400 160.248 141.585  0.00  0.00    +0.000 C 
BRANCH  25  26
ATOM     26  C   UNL     1     159.676 160.385 140.253  0.00  0.00    +0.000 C 
BRANCH  26  27
ATOM     27  C   UNL     1     160.509 159.899 139.077  0.00  0.00    +0.000 C 
BRANCH  27  28
ATOM     28  C   UNL     1     159.703 159.103 138.060  0.00  0.00    +0.000 C 
BRANCH  28  29
ATOM     29  C   UNL     1     160.464 157.915 137.487  0.00  0.00    +0.000 C 
ATOM     30  C   UNL     1     159.558 156.867 136.851  0.00  0.00    +0.000 C 
ENDBRANCH  28  29
ENDBRANCH  27  28
ENDBRANCH  26  27
ENDBRANCH  25  26
ENDBRANCH  24  25
ENDBRANCH  23  24
ENDBRANCH  22  23
ENDBRANCH  21  22
ENDBRANCH  20  21
ENDBRANCH  19  20
ENDBRANCH  18  19
ENDBRANCH  17  18
ENDBRANCH  16  17
ENDBRANCH  15  16
ENDBRANCH  13  15
ENDBRANCH  12  13
ENDBRANCH  11  12
ENDBRANCH   1  11
BRANCH   1  31
ATOM     31  O   UNL     1     162.834 158.609 134.964  0.00  0.00    -0.446 OA
BRANCH  31  32
ATOM     32  C   UNL     1     163.465 157.517 134.585  0.00  0.00    +0.317 C 
ATOM     33  O   UNL     1     164.360 157.519 133.767  0.00  0.00    -0.250 OA
BRANCH  32  34
ATOM     34  C   UNL     1     162.949 156.297 135.296  0.00  0.00    +0.110 C 
BRANCH  34  35
ATOM     35  C   UNL     1     162.351 155.237 134.387  0.00  0.00    +0.012 C 
BRANCH  35  36
ATOM     36  C   UNL     1     161.109 155.754 133.676  0.00  0.00    +0.001 C 
BRANCH  36  37
ATOM     37  C   UNL     1     161.000 155.270 132.236  0.00  0.00    +0.000 C 
BRANCH  37  38
ATOM     38  C   UNL     1     162.065 155.879 131.335  0.00  0.00    +0.000 C 
BRANCH  38  39
ATOM     39  C   UNL     1     162.856 154.849 130.540  0.00  0.00    +0.000 C 
BRANCH  39  40
ATOM     40  C   UNL     1     164.070 154.308 131.283  0.00  0.00    +0.000 C 
BRANCH  40  41
ATOM     41  C   UNL     1     164.426 152.878 130.898  0.00  0.00    +0.000 C 
BRANCH  41  42
ATOM     42  C   UNL     1     163.342 151.870 131.258  0.00  0.00    +0.000 C 
BRANCH  42  43
ATOM     43  C   UNL     1     163.199 151.633 132.756  0.00  0.00    +0.000 C 
BRANCH  43  44
ATOM     44  C   UNL     1     161.764 151.778 133.248  0.00  0.00    +0.000 C 
ATOM     45  C   UNL     1     160.719 151.405 132.203  0.00  0.00    +0.000 C 
ENDBRANCH  43  44
ENDBRANCH  42  43
ENDBRANCH  41  42
ENDBRANCH  40  41
ENDBRANCH  39  40
ENDBRANCH  38  39
ENDBRANCH  37  38
ENDBRANCH  36  37
ENDBRANCH  35  36
ENDBRANCH  34  35
ENDBRANCH  32  34
ENDBRANCH  31  32
ENDBRANCH   1  31
TORSDOF 37
ENDMDL
