MODEL 1
REMARK VINA RESULT:      -7.5      0.000      0.000
REMARK  Name = 5281643
REMARK                            x       y       z     vdW  Elec       q    Type
REMARK                         _______ _______ _______ _____ _____    ______ ____
ROOT
ATOM     13  C   LIG    1      185.989 186.535 170.757  0.00  0.00    +0.214 A 
ATOM     14  C   LIG    1      187.441 186.318 170.544  0.00  0.00    +0.238 A 
ATOM     15  C   LIG    1      187.838 185.824 169.217  0.00  0.00    +0.109 A 
ATOM     16  C   LIG    1      189.182 185.592 168.914  0.00  0.00    +0.135 A 
ATOM     17  C   LIG    1      189.531 185.120 167.649  0.00  0.00    +0.091 A 
ATOM     18  C   LIG    1      188.544 184.882 166.692  0.00  0.00    +0.124 A 
ATOM     19  C   LIG    1      187.203 185.115 166.998  0.00  0.00    +0.092 A 
ATOM     24  C   LIG    1      186.852 185.587 168.262  0.00  0.00    +0.147 A 
ATOM     25  O   LIG    1      185.519 185.796 168.504  0.00  0.00    -0.451 OA
ATOM     26  O   LIG    1      188.262 186.538 171.424  0.00  0.00    -0.283 OA
ATOM     27  C   LIG    1      185.139 186.275 169.748  0.00  0.00    +0.181 A 
ENDROOT
BRANCH  27  28
ATOM     28  C   LIG    1      183.681 186.453 169.875  0.00  0.00    +0.025 A 
ATOM     29  C   LIG    1      183.089 187.659 169.501  0.00  0.00    +0.015 A 
ATOM     30  C   LIG    1      181.710 187.827 169.623  0.00  0.00    +0.050 A 
ATOM     31  C   LIG    1      180.922 186.788 170.118  0.00  0.00    +0.158 A 
ATOM     32  C   LIG    1      181.514 185.581 170.493  0.00  0.00    +0.159 A 
ATOM     37  C   LIG    1      182.893 185.413 170.372  0.00  0.00    +0.060 A 
BRANCH  32  33
ATOM     33  O   LIG    1      180.754 184.560 170.978  0.00  0.00    -0.503 OA
ATOM     34  H   LIG    1      179.901 184.563 170.508  0.00  0.00    +0.292 HD
ENDBRANCH  32  33
BRANCH  31  35
ATOM     35  O   LIG    1      179.576 186.965 170.233  0.00  0.00    -0.503 OA
ATOM     36  H   LIG    1      179.127 186.134 169.997  0.00  0.00    +0.292 HD
ENDBRANCH  31  35
ENDBRANCH  27  28
BRANCH  18  20
ATOM     20  O   LIG    1      188.889 184.419 165.460  0.00  0.00    -0.507 OA
ATOM     21  H   LIG    1      189.472 185.068 165.030  0.00  0.00    +0.292 HD
ENDBRANCH  18  20
BRANCH  16  22
ATOM     22  O   LIG    1      190.185 185.806 169.811  0.00  0.00    -0.506 OA
ATOM     23  H   LIG    1      190.362 186.755 169.905  0.00  0.00    +0.292 HD
ENDBRANCH  16  22
BRANCH  13  12
ATOM     12  O   LIG    1      185.576 186.980 171.994  0.00  0.00    -0.453 OA
BRANCH  12   2
ATOM      1  O   LIG    1      184.443 185.294 173.146  0.00  0.00    -0.331 OA
ATOM      2  C   LIG    1      185.695 185.960 172.986  0.00  0.00    +0.340 C 
ATOM      3  C   LIG    1      186.135 186.625 174.293  0.00  0.00    +0.214 C 
ATOM      4  C   LIG    1      186.134 185.616 175.440  0.00  0.00    +0.180 C 
ATOM      5  C   LIG    1      184.806 184.861 175.507  0.00  0.00    +0.177 C 
ATOM     38  C   LIG    1      184.481 184.259 174.137  0.00  0.00    +0.179 C 
BRANCH   5   6
ATOM      6  O   LIG    1      183.761 185.763 175.880  0.00  0.00    -0.386 OA
ATOM      7  H   LIG    1      183.005 185.587 175.296  0.00  0.00    +0.210 HD
ENDBRANCH   5   6
BRANCH   4   8
ATOM      8  O   LIG    1      186.373 186.300 176.667  0.00  0.00    -0.386 OA
ATOM      9  H   LIG    1      186.188 187.242 176.516  0.00  0.00    +0.210 HD
ENDBRANCH   4   8
BRANCH   3  10
ATOM     10  O   LIG    1      187.455 187.138 174.119  0.00  0.00    -0.383 OA
ATOM     11  H   LIG    1      187.376 187.958 173.602  0.00  0.00    +0.210 HD
ENDBRANCH   3  10
BRANCH  38  39
ATOM     39  C   LIG    1      183.125 183.561 174.116  0.00  0.00    +0.190 C 
BRANCH  39  40
ATOM     40  O   LIG    1      182.139 184.501 173.732  0.00  0.00    -0.392 OA
ATOM     41  H   LIG    1      181.391 184.006 173.355  0.00  0.00    +0.210 HD
ENDBRANCH  39  40
ENDBRANCH  38  39
ENDBRANCH  12   2
ENDBRANCH  13  12
TORSDOF 12
ENDMDL
MODEL 2
REMARK VINA RESULT:      -7.4      2.778      4.252
REMARK  Name = 5281643
REMARK                            x       y       z     vdW  Elec       q    Type
REMARK                         _______ _______ _______ _____ _____    ______ ____
ROOT
ATOM     13  C   LIG    1      185.549 184.020 169.716  0.00  0.00    +0.214 A 
ATOM     14  C   LIG    1      186.458 183.861 168.555  0.00  0.00    +0.238 A 
ATOM     15  C   LIG    1      186.362 182.591 167.820  0.00  0.00    +0.109 A 
ATOM     16  C   LIG    1      187.173 182.345 166.709  0.00  0.00    +0.135 A 
ATOM     17  C   LIG    1      187.063 181.130 166.032  0.00  0.00    +0.091 A 
ATOM     18  C   LIG    1      186.149 180.168 166.462  0.00  0.00    +0.124 A 
ATOM     19  C   LIG    1      185.342 180.416 167.572  0.00  0.00    +0.092 A 
ATOM     24  C   LIG    1      185.450 181.630 168.250  0.00  0.00    +0.147 A 
ATOM     25  O   LIG    1      184.631 181.816 169.334  0.00  0.00    -0.451 OA
ATOM     26  O   LIG    1      187.246 184.738 168.228  0.00  0.00    -0.283 OA
ATOM     27  C   LIG    1      184.706 183.017 170.022  0.00  0.00    +0.181 A 
ENDROOT
BRANCH  27  28
ATOM     28  C   LIG    1      183.776 183.085 171.164  0.00  0.00    +0.025 A 
ATOM     29  C   LIG    1      182.724 184.001 171.153  0.00  0.00    +0.015 A 
ATOM     30  C   LIG    1      181.845 184.066 172.234  0.00  0.00    +0.050 A 
ATOM     31  C   LIG    1      182.017 183.215 173.325  0.00  0.00    +0.158 A 
ATOM     32  C   LIG    1      183.069 182.299 173.337  0.00  0.00    +0.159 A 
ATOM     37  C   LIG    1      183.949 182.234 172.256  0.00  0.00    +0.060 A 
BRANCH  32  33
ATOM     33  O   LIG    1      183.247 181.462 174.397  0.00  0.00    -0.503 OA
ATOM     34  H   LIG    1      182.690 180.675 174.262  0.00  0.00    +0.292 HD
ENDBRANCH  32  33
BRANCH  31  35
ATOM     35  O   LIG    1      181.152 183.288 174.375  0.00  0.00    -0.503 OA
ATOM     36  H   LIG    1      180.290 182.931 174.100  0.00  0.00    +0.292 HD
ENDBRANCH  31  35
ENDBRANCH  27  28
BRANCH  18  20
ATOM     20  O   LIG    1      186.048 178.983 165.800  0.00  0.00    -0.507 OA
ATOM     21  H   LIG    1      186.633 178.333 166.225  0.00  0.00    +0.292 HD
ENDBRANCH  18  20
BRANCH  16  22
ATOM     22  O   LIG    1      188.081 183.250 166.248  0.00  0.00    -0.506 OA
ATOM     23  H   LIG    1      188.890 182.803 165.956  0.00  0.00    +0.292 HD
ENDBRANCH  16  22
BRANCH  13  12
ATOM     12  O   LIG    1      185.623 185.189 170.442  0.00  0.00    -0.453 OA
BRANCH  12   2
ATOM      1  O   LIG    1      186.261 184.871 172.665  0.00  0.00    -0.331 OA
ATOM      2  C   LIG    1      186.724 185.175 171.350  0.00  0.00    +0.340 C 
ATOM      3  C   LIG    1      187.387 186.554 171.306  0.00  0.00    +0.214 C 
ATOM      4  C   LIG    1      188.480 186.663 172.368  0.00  0.00    +0.180 C 
ATOM      5  C   LIG    1      187.959 186.233 173.740  0.00  0.00    +0.177 C 
ATOM     38  C   LIG    1      187.312 184.848 173.639  0.00  0.00    +0.179 C 
BRANCH   5   6
ATOM      6  O   LIG    1      186.982 187.172 174.196  0.00  0.00    -0.386 OA
ATOM      7  H   LIG    1      187.243 187.450 175.090  0.00  0.00    +0.210 HD
ENDBRANCH   5   6
BRANCH   4   8
ATOM      8  O   LIG    1      188.952 188.006 172.420  0.00  0.00    -0.386 OA
ATOM      9  H   LIG    1      189.511 188.088 173.211  0.00  0.00    +0.210 HD
ENDBRANCH   4   8
BRANCH   3  10
ATOM     10  O   LIG    1      187.966 186.738 170.015  0.00  0.00    -0.383 OA
ATOM     11  H   LIG    1      188.138 185.853 169.651  0.00  0.00    +0.210 HD
ENDBRANCH   3  10
BRANCH  38  39
ATOM     39  C   LIG    1      186.697 184.397 174.960  0.00  0.00    +0.190 C 
BRANCH  39  40
ATOM     40  O   LIG    1      187.554 184.793 176.015  0.00  0.00    -0.392 OA
ATOM     41  H   LIG    1      187.534 184.091 176.689  0.00  0.00    +0.210 HD
ENDBRANCH  39  40
ENDBRANCH  38  39
ENDBRANCH  12   2
ENDBRANCH  13  12
TORSDOF 12
ENDMDL
MODEL 3
REMARK VINA RESULT:      -7.4      3.070      5.912
REMARK  Name = 5281643
REMARK                            x       y       z     vdW  Elec       q    Type
REMARK                         _______ _______ _______ _____ _____    ______ ____
ROOT
ATOM     13  C   LIG    1      184.193 185.754 170.930  0.00  0.00    +0.214 A 
ATOM     14  C   LIG    1      183.492 186.379 169.782  0.00  0.00    +0.238 A 
ATOM     15  C   LIG    1      183.794 187.796 169.527  0.00  0.00    +0.109 A 
ATOM     16  C   LIG    1      183.188 188.476 168.467  0.00  0.00    +0.135 A 
ATOM     17  C   LIG    1      183.490 189.820 168.250  0.00  0.00    +0.091 A 
ATOM     18  C   LIG    1      184.391 190.481 169.086  0.00  0.00    +0.124 A 
ATOM     19  C   LIG    1      184.993 189.799 170.144  0.00  0.00    +0.092 A 
ATOM     24  C   LIG    1      184.693 188.455 170.362  0.00  0.00    +0.147 A 
ATOM     25  O   LIG    1      185.315 187.839 171.417  0.00  0.00    -0.451 OA
ATOM     26  O   LIG    1      182.706 185.751 169.087  0.00  0.00    -0.283 OA
ATOM     27  C   LIG    1      185.046 186.500 171.654  0.00  0.00    +0.181 A 
ENDROOT
BRANCH  27  28
ATOM     28  C   LIG    1      185.777 185.963 172.816  0.00  0.00    +0.025 A 
ATOM     29  C   LIG    1      186.755 184.985 172.635  0.00  0.00    +0.015 A 
ATOM     30  C   LIG    1      187.446 184.476 173.735  0.00  0.00    +0.050 A 
ATOM     31  C   LIG    1      187.159 184.946 175.016  0.00  0.00    +0.158 A 
ATOM     32  C   LIG    1      186.181 185.925 175.198  0.00  0.00    +0.159 A 
ATOM     37  C   LIG    1      185.490 186.433 174.099  0.00  0.00    +0.060 A 
BRANCH  32  33
ATOM     33  O   LIG    1      185.894 186.392 176.445  0.00  0.00    -0.503 OA
ATOM     34  H   LIG    1      185.132 186.994 176.378  0.00  0.00    +0.292 HD
ENDBRANCH  32  33
BRANCH  31  35
ATOM     35  O   LIG    1      187.840 184.442 176.083  0.00  0.00    -0.503 OA
ATOM     36  H   LIG    1      188.560 183.872 175.758  0.00  0.00    +0.292 HD
ENDBRANCH  31  35
ENDBRANCH  27  28
BRANCH  18  20
ATOM     20  O   LIG    1      184.679 191.794 168.872  0.00  0.00    -0.507 OA
ATOM     21  H   LIG    1      185.615 191.875 168.619  0.00  0.00    +0.292 HD
ENDBRANCH  18  20
BRANCH  16  22
ATOM     22  O   LIG    1      182.302 187.879 167.623  0.00  0.00    -0.506 OA
ATOM     23  H   LIG    1      181.449 188.340 167.640  0.00  0.00    +0.292 HD
ENDBRANCH  16  22
BRANCH  13  12
ATOM     12  O   LIG    1      183.922 184.432 171.212  0.00  0.00    -0.453 OA
BRANCH  12   2
ATOM      1  O   LIG    1      183.809 183.558 173.374  0.00  0.00    -0.331 OA
ATOM      2  C   LIG    1      183.108 184.300 172.377  0.00  0.00    +0.340 C 
ATOM      3  C   LIG    1      181.816 183.589 171.969  0.00  0.00    +0.214 C 
ATOM      4  C   LIG    1      180.961 183.274 173.196  0.00  0.00    +0.180 C 
ATOM      5  C   LIG    1      181.783 182.565 174.272  0.00  0.00    +0.177 C 
ATOM     38  C   LIG    1      183.049 183.374 174.575  0.00  0.00    +0.179 C 
BRANCH   5   6
ATOM      6  O   LIG    1      182.160 181.266 173.809  0.00  0.00    -0.386 OA
ATOM      7  H   LIG    1      182.571 181.379 172.936  0.00  0.00    +0.210 HD
ENDBRANCH   5   6
BRANCH   4   8
ATOM      8  O   LIG    1      179.859 182.460 172.804  0.00  0.00    -0.386 OA
ATOM      9  H   LIG    1      180.222 181.660 172.387  0.00  0.00    +0.210 HD
ENDBRANCH   4   8
BRANCH   3  10
ATOM     10  O   LIG    1      181.084 184.445 171.093  0.00  0.00    -0.383 OA
ATOM     11  H   LIG    1      181.574 185.283 171.038  0.00  0.00    +0.210 HD
ENDBRANCH   3  10
BRANCH  38  39
ATOM     39  C   LIG    1      183.956 182.677 175.584  0.00  0.00    +0.190 C 
BRANCH  39  40
ATOM     40  O   LIG    1      183.166 181.813 176.380  0.00  0.00    -0.392 OA
ATOM     41  H   LIG    1      182.722 182.357 177.053  0.00  0.00    +0.210 HD
ENDBRANCH  39  40
ENDBRANCH  38  39
ENDBRANCH  12   2
ENDBRANCH  13  12
TORSDOF 12
ENDMDL
MODEL 4
REMARK VINA RESULT:      -7.2      7.338     10.313
REMARK  Name = 5281643
REMARK                            x       y       z     vdW  Elec       q    Type
REMARK                         _______ _______ _______ _____ _____    ______ ____
ROOT
ATOM     13  C   LIG    1      180.382 179.072 172.344  0.00  0.00    +0.214 A 
ATOM     14  C   LIG    1      181.698 179.705 172.602  0.00  0.00    +0.238 A 
ATOM     15  C   LIG    1      181.713 181.174 172.671  0.00  0.00    +0.109 A 
ATOM     16  C   LIG    1      182.903 181.865 172.913  0.00  0.00    +0.135 A 
ATOM     17  C   LIG    1      182.889 183.259 172.970  0.00  0.00    +0.091 A 
ATOM     18  C   LIG    1      181.696 183.957 172.786  0.00  0.00    +0.124 A 
ATOM     19  C   LIG    1      180.510 183.264 172.544  0.00  0.00    +0.092 A 
ATOM     24  C   LIG    1      180.521 181.870 172.487  0.00  0.00    +0.147 A 
ATOM     25  O   LIG    1      179.325 181.245 172.244  0.00  0.00    -0.451 OA
ATOM     26  O   LIG    1      182.715 179.041 172.748  0.00  0.00    -0.283 OA
ATOM     27  C   LIG    1      179.301 179.860 172.193  0.00  0.00    +0.181 A 
ENDROOT
BRANCH  27  28
ATOM     28  C   LIG    1      177.957 179.318 171.924  0.00  0.00    +0.025 A 
ATOM     29  C   LIG    1      177.305 178.555 172.893  0.00  0.00    +0.015 A 
ATOM     30  C   LIG    1      176.034 178.041 172.638  0.00  0.00    +0.050 A 
ATOM     31  C   LIG    1      175.414 178.290 171.414  0.00  0.00    +0.158 A 
ATOM     32  C   LIG    1      176.066 179.052 170.444  0.00  0.00    +0.159 A 
ATOM     37  C   LIG    1      177.337 179.566 170.699  0.00  0.00    +0.060 A 
BRANCH  32  33
ATOM     33  O   LIG    1      175.469 179.302 169.245  0.00  0.00    -0.503 OA
ATOM     34  H   LIG    1      175.219 178.451 168.844  0.00  0.00    +0.292 HD
ENDBRANCH  32  33
BRANCH  31  35
ATOM     35  O   LIG    1      174.173 177.782 171.176  0.00  0.00    -0.503 OA
ATOM     36  H   LIG    1      174.058 177.661 170.217  0.00  0.00    +0.292 HD
ENDBRANCH  31  35
ENDBRANCH  27  28
BRANCH  18  20
ATOM     20  O   LIG    1      181.689 185.317 172.840  0.00  0.00    -0.507 OA
ATOM     21  H   LIG    1      181.756 185.598 173.769  0.00  0.00    +0.292 HD
ENDBRANCH  18  20
BRANCH  16  22
ATOM     22  O   LIG    1      184.095 181.233 173.098  0.00  0.00    -0.506 OA
ATOM     23  H   LIG    1      184.725 181.480 172.404  0.00  0.00    +0.292 HD
ENDBRANCH  16  22
BRANCH  13  12
ATOM     12  O   LIG    1      180.329 177.698 172.254  0.00  0.00    -0.453 OA
BRANCH  12   2
ATOM      1  O   LIG    1      178.991 176.619 170.673  0.00  0.00    -0.331 OA
ATOM      2  C   LIG    1      180.245 177.264 170.897  0.00  0.00    +0.340 C 
ATOM      3  C   LIG    1      181.409 176.306 170.637  0.00  0.00    +0.214 C 
ATOM      4  C   LIG    1      181.295 175.679 169.247  0.00  0.00    +0.180 C 
ATOM      5  C   LIG    1      179.903 175.088 169.024  0.00  0.00    +0.177 C 
ATOM     38  C   LIG    1      178.836 176.144 169.331  0.00  0.00    +0.179 C 
BRANCH   5   6
ATOM      6  O   LIG    1      179.713 173.968 169.892  0.00  0.00    -0.386 OA
ATOM      7  H   LIG    1      179.881 173.166 169.369  0.00  0.00    +0.210 HD
ENDBRANCH   5   6
BRANCH   4   8
ATOM      8  O   LIG    1      182.287 174.666 169.106  0.00  0.00    -0.386 OA
ATOM      9  H   LIG    1      183.056 174.936 169.636  0.00  0.00    +0.210 HD
ENDBRANCH   4   8
BRANCH   3  10
ATOM     10  O   LIG    1      182.630 177.041 170.721  0.00  0.00    -0.383 OA
ATOM     11  H   LIG    1      182.607 177.713 170.019  0.00  0.00    +0.210 HD
ENDBRANCH   3  10
BRANCH  38  39
ATOM     39  C   LIG    1      177.420 175.592 169.206  0.00  0.00    +0.190 C 
BRANCH  39  40
ATOM     40  O   LIG    1      176.971 175.202 170.491  0.00  0.00    -0.392 OA
ATOM     41  H   LIG    1      176.050 175.500 170.584  0.00  0.00    +0.210 HD
ENDBRANCH  39  40
ENDBRANCH  38  39
ENDBRANCH  12   2
ENDBRANCH  13  12
TORSDOF 12
ENDMDL
MODEL 5
REMARK VINA RESULT:      -7.1      1.905      6.441
REMARK  Name = 5281643
REMARK                            x       y       z     vdW  Elec       q    Type
REMARK                         _______ _______ _______ _____ _____    ______ ____
ROOT
ATOM     13  C   LIG    1      182.829 184.978 171.117  0.00  0.00    +0.214 A 
ATOM     14  C   LIG    1      181.349 185.071 171.148  0.00  0.00    +0.238 A 
ATOM     15  C   LIG    1      180.757 186.264 170.524  0.00  0.00    +0.109 A 
ATOM     16  C   LIG    1      179.371 186.443 170.498  0.00  0.00    +0.135 A 
ATOM     17  C   LIG    1      178.836 187.585 169.903  0.00  0.00    +0.091 A 
ATOM     18  C   LIG    1      179.679 188.542 169.338  0.00  0.00    +0.124 A 
ATOM     19  C   LIG    1      181.062 188.361 169.366  0.00  0.00    +0.092 A 
ATOM     24  C   LIG    1      181.599 187.219 169.961  0.00  0.00    +0.147 A 
ATOM     25  O   LIG    1      182.965 187.097 169.959  0.00  0.00    -0.451 OA
ATOM     26  O   LIG    1      180.660 184.202 171.665  0.00  0.00    -0.283 OA
ATOM     27  C   LIG    1      183.529 185.968 170.532  0.00  0.00    +0.181 A 
ENDROOT
BRANCH  27  28
ATOM     28  C   LIG    1      185.001 185.963 170.464  0.00  0.00    +0.025 A 
ATOM     29  C   LIG    1      185.658 185.083 169.604  0.00  0.00    +0.015 A 
ATOM     30  C   LIG    1      187.051 185.077 169.542  0.00  0.00    +0.050 A 
ATOM     31  C   LIG    1      187.789 185.953 170.338  0.00  0.00    +0.158 A 
ATOM     32  C   LIG    1      187.132 186.834 171.199  0.00  0.00    +0.159 A 
ATOM     37  C   LIG    1      185.739 186.839 171.262  0.00  0.00    +0.060 A 
BRANCH  32  33
ATOM     33  O   LIG    1      187.842 187.694 171.982  0.00  0.00    -0.503 OA
ATOM     34  H   LIG    1      187.272 187.979 172.718  0.00  0.00    +0.292 HD
ENDBRANCH  32  33
BRANCH  31  35
ATOM     35  O   LIG    1      189.149 185.938 170.269  0.00  0.00    -0.503 OA
ATOM     36  H   LIG    1      189.420 185.452 169.471  0.00  0.00    +0.292 HD
ENDBRANCH  31  35
ENDBRANCH  27  28
BRANCH  18  20
ATOM     20  O   LIG    1      179.152 189.657 168.762  0.00  0.00    -0.507 OA
ATOM     21  H   LIG    1      178.956 189.467 167.828  0.00  0.00    +0.292 HD
ENDBRANCH  18  20
BRANCH  16  22
ATOM     22  O   LIG    1      178.504 185.540 171.036  0.00  0.00    -0.506 OA
ATOM     23  H   LIG    1      177.619 185.650 170.656  0.00  0.00    +0.292 HD
ENDBRANCH  16  22
BRANCH  13  12
ATOM     12  O   LIG    1      183.423 183.884 171.707  0.00  0.00    -0.453 OA
BRANCH  12   2
ATOM      1  O   LIG    1      184.947 184.430 173.390  0.00  0.00    -0.331 OA
ATOM      2  C   LIG    1      183.593 184.074 173.112  0.00  0.00    +0.340 C 
ATOM      3  C   LIG    1      183.215 182.766 173.811  0.00  0.00    +0.214 C 
ATOM      4  C   LIG    1      183.521 182.844 175.307  0.00  0.00    +0.180 C 
ATOM      5  C   LIG    1      184.952 183.324 175.551  0.00  0.00    +0.177 C 
ATOM     38  C   LIG    1      185.200 184.628 174.787  0.00  0.00    +0.179 C 
BRANCH   5   6
ATOM      6  O   LIG    1      185.874 182.332 175.092  0.00  0.00    -0.386 OA
ATOM      7  H   LIG    1      186.039 181.726 175.834  0.00  0.00    +0.210 HD
ENDBRANCH   5   6
BRANCH   4   8
ATOM      8  O   LIG    1      183.326 181.560 175.894  0.00  0.00    -0.386 OA
ATOM      9  H   LIG    1      182.718 181.672 176.644  0.00  0.00    +0.210 HD
ENDBRANCH   4   8
BRANCH   3  10
ATOM     10  O   LIG    1      181.818 182.541 173.629  0.00  0.00    -0.383 OA
ATOM     11  H   LIG    1      181.479 182.165 174.459  0.00  0.00    +0.210 HD
ENDBRANCH   3  10
BRANCH  38  39
ATOM     39  C   LIG    1      186.638 185.117 174.923  0.00  0.00    +0.190 C 
BRANCH  39  40
ATOM     40  O   LIG    1      186.661 186.517 174.716  0.00  0.00    -0.392 OA
ATOM     41  H   LIG    1      186.125 186.707 173.926  0.00  0.00    +0.210 HD
ENDBRANCH  39  40
ENDBRANCH  38  39
ENDBRANCH  12   2
ENDBRANCH  13  12
TORSDOF 12
ENDMDL
MODEL 6
REMARK VINA RESULT:      -7.1      2.366      7.474
REMARK  Name = 5281643
REMARK                            x       y       z     vdW  Elec       q    Type
REMARK                         _______ _______ _______ _____ _____    ______ ____
ROOT
ATOM     13  C   LIG    1      182.894 184.828 172.426  0.00  0.00    +0.214 A 
ATOM     14  C   LIG    1      181.668 184.518 171.652  0.00  0.00    +0.238 A 
ATOM     15  C   LIG    1      181.113 183.167 171.822  0.00  0.00    +0.109 A 
ATOM     16  C   LIG    1      179.957 182.778 171.139  0.00  0.00    +0.135 A 
ATOM     17  C   LIG    1      179.454 181.489 171.316  0.00  0.00    +0.091 A 
ATOM     18  C   LIG    1      180.100 180.595 172.170  0.00  0.00    +0.124 A 
ATOM     19  C   LIG    1      181.254 180.987 172.850  0.00  0.00    +0.092 A 
ATOM     24  C   LIG    1      181.759 182.275 172.674  0.00  0.00    +0.147 A 
ATOM     25  O   LIG    1      182.895 182.601 173.367  0.00  0.00    -0.451 OA
ATOM     26  O   LIG    1      181.147 185.342 170.911  0.00  0.00    -0.283 OA
ATOM     27  C   LIG    1      183.415 183.877 173.223  0.00  0.00    +0.181 A 
ENDROOT
BRANCH  27  28
ATOM     28  C   LIG    1      184.636 184.095 174.020  0.00  0.00    +0.025 A 
ATOM     29  C   LIG    1      185.746 183.271 173.837  0.00  0.00    +0.015 A 
ATOM     30  C   LIG    1      186.901 183.477 174.592  0.00  0.00    +0.050 A 
ATOM     31  C   LIG    1      186.946 184.508 175.530  0.00  0.00    +0.158 A 
ATOM     32  C   LIG    1      185.835 185.333 175.714  0.00  0.00    +0.159 A 
ATOM     37  C   LIG    1      184.681 185.127 174.959  0.00  0.00    +0.060 A 
BRANCH  32  33
ATOM     33  O   LIG    1      185.868 186.343 176.627  0.00  0.00    -0.503 OA
ATOM     34  H   LIG    1      184.956 186.651 176.775  0.00  0.00    +0.292 HD
ENDBRANCH  32  33
BRANCH  31  35
ATOM     35  O   LIG    1      188.078 184.699 176.262  0.00  0.00    -0.503 OA
ATOM     36  H   LIG    1      187.838 185.092 177.120  0.00  0.00    +0.292 HD
ENDBRANCH  31  35
ENDBRANCH  27  28
BRANCH  18  20
ATOM     20  O   LIG    1      179.607 179.338 172.337  0.00  0.00    -0.507 OA
ATOM     21  H   LIG    1      179.172 179.281 173.205  0.00  0.00    +0.292 HD
ENDBRANCH  18  20
BRANCH  16  22
ATOM     22  O   LIG    1      179.288 183.611 170.294  0.00  0.00    -0.506 OA
ATOM     23  H   LIG    1      178.903 183.112 169.557  0.00  0.00    +0.292 HD
ENDBRANCH  16  22
BRANCH  13  12
ATOM     12  O   LIG    1      183.455 186.078 172.279  0.00  0.00    -0.453 OA
BRANCH  12   2
ATOM      1  O   LIG    1      185.701 185.993 171.645  0.00  0.00    -0.331 OA
ATOM      2  C   LIG    1      184.359 186.121 171.175  0.00  0.00    +0.340 C 
ATOM      3  C   LIG    1      184.156 187.454 170.453  0.00  0.00    +0.214 C 
ATOM      4  C   LIG    1      185.199 187.638 169.351  0.00  0.00    +0.180 C 
ATOM      5  C   LIG    1      186.611 187.395 169.884  0.00  0.00    +0.177 C 
ATOM     38  C   LIG    1      186.672 186.038 170.593  0.00  0.00    +0.179 C 
BRANCH   5   6
ATOM      6  O   LIG    1      186.953 188.423 170.817  0.00  0.00    -0.386 OA
ATOM      7  H   LIG    1      187.901 188.332 171.012  0.00  0.00    +0.210 HD
ENDBRANCH   5   6
BRANCH   4   8
ATOM      8  O   LIG    1      185.094 188.956 168.820  0.00  0.00    -0.386 OA
ATOM      9  H   LIG    1      184.800 189.538 169.541  0.00  0.00    +0.210 HD
ENDBRANCH   4   8
BRANCH   3  10
ATOM     10  O   LIG    1      182.852 187.461 169.871  0.00  0.00    -0.383 OA
ATOM     11  H   LIG    1      182.324 188.112 170.365  0.00  0.00    +0.210 HD
ENDBRANCH   3  10
BRANCH  38  39
ATOM     39  C   LIG    1      188.035 185.771 171.221  0.00  0.00    +0.190 C 
BRANCH  39  40
ATOM     40  O   LIG    1      189.039 186.228 170.332  0.00  0.00    -0.392 OA
ATOM     41  H   LIG    1      189.622 186.827 170.830  0.00  0.00    +0.210 HD
ENDBRANCH  39  40
ENDBRANCH  38  39
ENDBRANCH  12   2
ENDBRANCH  13  12
TORSDOF 12
ENDMDL
MODEL 7
REMARK VINA RESULT:      -7.0     10.017     13.504
REMARK  Name = 5281643
REMARK                            x       y       z     vdW  Elec       q    Type
REMARK                         _______ _______ _______ _____ _____    ______ ____
ROOT
ATOM     13  C   LIG    1      177.332 176.188 169.557  0.00  0.00    +0.214 A 
ATOM     14  C   LIG    1      176.593 174.915 169.375  0.00  0.00    +0.238 A 
ATOM     15  C   LIG    1      175.144 174.961 169.624  0.00  0.00    +0.109 A 
ATOM     16  C   LIG    1      174.357 173.815 169.476  0.00  0.00    +0.135 A 
ATOM     17  C   LIG    1      172.986 173.886 169.721  0.00  0.00    +0.091 A 
ATOM     18  C   LIG    1      172.404 175.092 170.111  0.00  0.00    +0.124 A 
ATOM     19  C   LIG    1      173.192 176.234 170.258  0.00  0.00    +0.092 A 
ATOM     24  C   LIG    1      174.564 176.166 170.013  0.00  0.00    +0.147 A 
ATOM     25  O   LIG    1      175.287 177.319 170.176  0.00  0.00    -0.451 OA
ATOM     26  O   LIG    1      177.158 173.884 169.038  0.00  0.00    -0.283 OA
ATOM     27  C   LIG    1      176.650 177.287 169.929  0.00  0.00    +0.181 A 
ENDROOT
BRANCH  27  28
ATOM     28  C   LIG    1      177.304 178.590 170.142  0.00  0.00    +0.025 A 
ATOM     29  C   LIG    1      177.317 179.540 169.121  0.00  0.00    +0.015 A 
ATOM     30  C   LIG    1      177.938 180.773 169.323  0.00  0.00    +0.050 A 
ATOM     31  C   LIG    1      178.545 181.056 170.546  0.00  0.00    +0.158 A 
ATOM     32  C   LIG    1      178.533 180.106 171.568  0.00  0.00    +0.159 A 
ATOM     37  C   LIG    1      177.912 178.873 171.366  0.00  0.00    +0.060 A 
BRANCH  32  33
ATOM     33  O   LIG    1      179.122 180.371 172.767  0.00  0.00    -0.503 OA
ATOM     34  H   LIG    1      179.209 181.337 172.858  0.00  0.00    +0.292 HD
ENDBRANCH  32  33
BRANCH  31  35
ATOM     35  O   LIG    1      179.149 182.263 170.731  0.00  0.00    -0.503 OA
ATOM     36  H   LIG    1      179.445 182.605 169.869  0.00  0.00    +0.292 HD
ENDBRANCH  31  35
ENDBRANCH  27  28
BRANCH  18  20
ATOM     20  O   LIG    1      171.066 175.155 170.352  0.00  0.00    -0.507 OA
ATOM     21  H   LIG    1      170.733 174.257 170.522  0.00  0.00    +0.292 HD
ENDBRANCH  18  20
BRANCH  16  22
ATOM     22  O   LIG    1      174.875 172.613 169.098  0.00  0.00    -0.506 OA
ATOM     23  H   LIG    1      174.975 172.028 169.865  0.00  0.00    +0.292 HD
ENDBRANCH  16  22
BRANCH  13  12
ATOM     12  O   LIG    1      178.694 176.181 169.352  0.00  0.00    -0.453 OA
BRANCH  12   2
ATOM      1  O   LIG    1      179.798 176.243 171.408  0.00  0.00    -0.331 OA
ATOM      2  C   LIG    1      179.370 175.402 170.338  0.00  0.00    +0.340 C 
ATOM      3  C   LIG    1      180.564 174.722 169.663  0.00  0.00    +0.214 C 
ATOM      4  C   LIG    1      181.425 173.993 170.693  0.00  0.00    +0.180 C 
ATOM      5  C   LIG    1      181.775 174.910 171.865  0.00  0.00    +0.177 C 
ATOM     38  C   LIG    1      180.497 175.531 172.437  0.00  0.00    +0.179 C 
BRANCH   5   6
ATOM      6  O   LIG    1      182.640 175.955 171.414  0.00  0.00    -0.386 OA
ATOM      7  H   LIG    1      183.539 175.587 171.371  0.00  0.00    +0.210 HD
ENDBRANCH   5   6
BRANCH   4   8
ATOM      8  O   LIG    1      182.615 173.525 170.063  0.00  0.00    -0.386 OA
ATOM      9  H   LIG    1      182.705 174.002 169.221  0.00  0.00    +0.210 HD
ENDBRANCH   4   8
BRANCH   3  10
ATOM     10  O   LIG    1      180.071 173.780 168.711  0.00  0.00    -0.383 OA
ATOM     11  H   LIG    1      179.871 174.275 167.898  0.00  0.00    +0.210 HD
ENDBRANCH   3  10
BRANCH  38  39
ATOM     39  C   LIG    1      180.785 176.522 173.560  0.00  0.00    +0.190 C 
BRANCH  39  40
ATOM     40  O   LIG    1      180.978 177.805 172.992  0.00  0.00    -0.392 OA
ATOM     41  H   LIG    1      181.682 177.729 172.325  0.00  0.00    +0.210 HD
ENDBRANCH  39  40
ENDBRANCH  38  39
ENDBRANCH  12   2
ENDBRANCH  13  12
TORSDOF 12
ENDMDL
MODEL 8
REMARK VINA RESULT:      -6.9      3.815      6.304
REMARK  Name = 5281643
REMARK                            x       y       z     vdW  Elec       q    Type
REMARK                         _______ _______ _______ _____ _____    ______ ____
ROOT
ATOM     13  C   LIG    1      182.566 183.656 173.363  0.00  0.00    +0.214 A 
ATOM     14  C   LIG    1      183.833 183.318 174.055  0.00  0.00    +0.238 A 
ATOM     15  C   LIG    1      184.877 184.354 174.048  0.00  0.00    +0.109 A 
ATOM     16  C   LIG    1      186.106 184.135 174.677  0.00  0.00    +0.135 A 
ATOM     17  C   LIG    1      187.079 185.134 174.652  0.00  0.00    +0.091 A 
ATOM     18  C   LIG    1      186.827 186.344 174.004  0.00  0.00    +0.124 A 
ATOM     19  C   LIG    1      185.599 186.559 173.377  0.00  0.00    +0.092 A 
ATOM     24  C   LIG    1      184.624 185.561 173.401  0.00  0.00    +0.147 A 
ATOM     25  O   LIG    1      183.439 185.830 172.766  0.00  0.00    -0.451 OA
ATOM     26  O   LIG    1      184.001 182.236 174.602  0.00  0.00    -0.283 OA
ATOM     27  C   LIG    1      182.446 184.864 172.782  0.00  0.00    +0.181 A 
ENDROOT
BRANCH  27  28
ATOM     28  C   LIG    1      181.227 185.279 172.065  0.00  0.00    +0.025 A 
ATOM     29  C   LIG    1      181.231 185.365 170.672  0.00  0.00    +0.015 A 
ATOM     30  C   LIG    1      180.078 185.759 169.994  0.00  0.00    +0.050 A 
ATOM     31  C   LIG    1      178.920 186.067 170.708  0.00  0.00    +0.158 A 
ATOM     32  C   LIG    1      178.916 185.982 172.101  0.00  0.00    +0.159 A 
ATOM     37  C   LIG    1      180.069 185.588 172.779  0.00  0.00    +0.060 A 
BRANCH  32  33
ATOM     33  O   LIG    1      177.790 186.280 172.808  0.00  0.00    -0.503 OA
ATOM     34  H   LIG    1      177.481 185.469 173.247  0.00  0.00    +0.292 HD
ENDBRANCH  32  33
BRANCH  31  35
ATOM     35  O   LIG    1      177.800 186.451 170.035  0.00  0.00    -0.503 OA
ATOM     36  H   LIG    1      177.079 186.591 170.673  0.00  0.00    +0.292 HD
ENDBRANCH  31  35
ENDBRANCH  27  28
BRANCH  18  20
ATOM     20  O   LIG    1      187.781 187.313 173.979  0.00  0.00    -0.507 OA
ATOM     21  H   LIG    1      188.415 187.151 174.699  0.00  0.00    +0.292 HD
ENDBRANCH  18  20
BRANCH  16  22
ATOM     22  O   LIG    1      186.403 182.973 175.322  0.00  0.00    -0.506 OA
ATOM     23  H   LIG    1      186.710 183.153 176.224  0.00  0.00    +0.292 HD
ENDBRANCH  16  22
BRANCH  13  12
ATOM     12  O   LIG    1      181.571 182.703 173.332  0.00  0.00    -0.453 OA
BRANCH  12   2
ATOM      1  O   LIG    1      180.495 182.230 171.314  0.00  0.00    -0.331 OA
ATOM      2  C   LIG    1      181.623 181.928 172.134  0.00  0.00    +0.340 C 
ATOM      3  C   LIG    1      181.633 180.450 172.531  0.00  0.00    +0.214 C 
ATOM      4  C   LIG    1      181.532 179.557 171.296  0.00  0.00    +0.180 C 
ATOM      5  C   LIG    1      180.367 179.984 170.402  0.00  0.00    +0.177 C 
ATOM     38  C   LIG    1      180.471 181.481 170.093  0.00  0.00    +0.179 C 
BRANCH   5   6
ATOM      6  O   LIG    1      179.131 179.732 171.076  0.00  0.00    -0.386 OA
ATOM      7  H   LIG    1      178.489 179.446 170.404  0.00  0.00    +0.210 HD
ENDBRANCH   5   6
BRANCH   4   8
ATOM      8  O   LIG    1      181.365 178.203 171.708  0.00  0.00    -0.386 OA
ATOM      9  H   LIG    1      180.733 178.200 172.446  0.00  0.00    +0.210 HD
ENDBRANCH   4   8
BRANCH   3  10
ATOM     10  O   LIG    1      182.855 180.172 173.214  0.00  0.00    -0.383 OA
ATOM     11  H   LIG    1      183.463 180.907 173.021  0.00  0.00    +0.210 HD
ENDBRANCH   3  10
BRANCH  38  39
ATOM     39  C   LIG    1      179.291 181.987 169.272  0.00  0.00    +0.190 C 
BRANCH  39  40
ATOM     40  O   LIG    1      178.350 182.578 170.149  0.00  0.00    -0.392 OA
ATOM     41  H   LIG    1      177.720 181.886 170.414  0.00  0.00    +0.210 HD
ENDBRANCH  39  40
ENDBRANCH  38  39
ENDBRANCH  12   2
ENDBRANCH  13  12
TORSDOF 12
ENDMDL
MODEL 9
REMARK VINA RESULT:      -6.9      2.939      6.971
REMARK  Name = 5281643
REMARK                            x       y       z     vdW  Elec       q    Type
REMARK                         _______ _______ _______ _____ _____    ______ ____
ROOT
ATOM     13  C   LIG    1      183.776 183.718 171.596  0.00  0.00    +0.214 A 
ATOM     14  C   LIG    1      183.166 182.890 170.527  0.00  0.00    +0.238 A 
ATOM     15  C   LIG    1      182.970 181.466 170.838  0.00  0.00    +0.109 A 
ATOM     16  C   LIG    1      182.399 180.603 169.900  0.00  0.00    +0.135 A 
ATOM     17  C   LIG    1      182.227 179.256 170.219  0.00  0.00    +0.091 A 
ATOM     18  C   LIG    1      182.622 178.775 171.468  0.00  0.00    +0.124 A 
ATOM     19  C   LIG    1      183.192 179.640 172.402  0.00  0.00    +0.092 A 
ATOM     24  C   LIG    1      183.365 180.987 172.085  0.00  0.00    +0.147 A 
ATOM     25  O   LIG    1      183.931 181.788 173.042  0.00  0.00    -0.451 OA
ATOM     26  O   LIG    1      182.845 183.366 169.447  0.00  0.00    -0.283 OA
ATOM     27  C   LIG    1      184.106 183.133 172.762  0.00  0.00    +0.181 A 
ENDROOT
BRANCH  27  28
ATOM     28  C   LIG    1      184.725 183.878 173.873  0.00  0.00    +0.025 A 
ATOM     29  C   LIG    1      184.025 184.910 174.498  0.00  0.00    +0.015 A 
ATOM     30  C   LIG    1      184.612 185.614 175.549  0.00  0.00    +0.050 A 
ATOM     31  C   LIG    1      185.898 185.287 175.977  0.00  0.00    +0.158 A 
ATOM     32  C   LIG    1      186.599 184.254 175.352  0.00  0.00    +0.159 A 
ATOM     37  C   LIG    1      186.013 183.550 174.300  0.00  0.00    +0.060 A 
BRANCH  32  33
ATOM     33  O   LIG    1      187.856 183.925 175.761  0.00  0.00    -0.503 OA
ATOM     34  H   LIG    1      187.879 183.956 176.733  0.00  0.00    +0.292 HD
ENDBRANCH  32  33
BRANCH  31  35
ATOM     35  O   LIG    1      186.461 185.982 177.004  0.00  0.00    -0.503 OA
ATOM     36  H   LIG    1      186.413 186.934 176.805  0.00  0.00    +0.292 HD
ENDBRANCH  31  35
ENDBRANCH  27  28
BRANCH  18  20
ATOM     20  O   LIG    1      182.455 177.459 171.773  0.00  0.00    -0.507 OA
ATOM     21  H   LIG    1      182.198 177.382 172.708  0.00  0.00    +0.292 HD
ENDBRANCH  18  20
BRANCH  16  22
ATOM     22  O   LIG    1      181.997 181.020 168.667  0.00  0.00    -0.506 OA
ATOM     23  H   LIG    1      182.490 181.810 168.396  0.00  0.00    +0.292 HD
ENDBRANCH  16  22
BRANCH  13  12
ATOM     12  O   LIG    1      183.994 185.054 171.336  0.00  0.00    -0.453 OA
BRANCH  12   2
ATOM      1  O   LIG    1      186.094 185.894 171.914  0.00  0.00    -0.331 OA
ATOM      2  C   LIG    1      185.324 185.289 170.876  0.00  0.00    +0.340 C 
ATOM      3  C   LIG    1      185.242 186.203 169.650  0.00  0.00    +0.214 C 
ATOM      4  C   LIG    1      186.639 186.624 169.195  0.00  0.00    +0.180 C 
ATOM      5  C   LIG    1      187.456 187.174 170.364  0.00  0.00    +0.177 C 
ATOM     38  C   LIG    1      187.444 186.172 171.522  0.00  0.00    +0.179 C 
BRANCH   5   6
ATOM      6  O   LIG    1      186.884 188.407 170.809  0.00  0.00    -0.386 OA
ATOM      7  H   LIG    1      185.939 188.246 170.968  0.00  0.00    +0.210 HD
ENDBRANCH   5   6
BRANCH   4   8
ATOM      8  O   LIG    1      186.522 187.608 168.171  0.00  0.00    -0.386 OA
ATOM      9  H   LIG    1      185.652 188.030 168.271  0.00  0.00    +0.210 HD
ENDBRANCH   4   8
BRANCH   3  10
ATOM     10  O   LIG    1      184.599 185.489 168.594  0.00  0.00    -0.383 OA
ATOM     11  H   LIG    1      185.146 185.604 167.799  0.00  0.00    +0.210 HD
ENDBRANCH   3  10
BRANCH  38  39
ATOM     39  C   LIG    1      188.175 186.698 172.753  0.00  0.00    +0.190 C 
BRANCH  39  40
ATOM     40  O   LIG    1      189.027 187.757 172.355  0.00  0.00    -0.392 OA
ATOM     41  H   LIG    1      189.538 188.032 173.135  0.00  0.00    +0.210 HD
ENDBRANCH  39  40
ENDBRANCH  38  39
ENDBRANCH  12   2
ENDBRANCH  13  12
TORSDOF 12
ENDMDL
MODEL 10
REMARK VINA RESULT:      -6.9      6.865     10.735
REMARK  Name = 5281643
REMARK                            x       y       z     vdW  Elec       q    Type
REMARK                         _______ _______ _______ _____ _____    ______ ____
ROOT
ATOM     13  C   LIG    1      180.261 179.895 171.437  0.00  0.00    +0.214 A 
ATOM     14  C   LIG    1      180.072 181.348 171.667  0.00  0.00    +0.238 A 
ATOM     15  C   LIG    1      180.984 181.980 172.632  0.00  0.00    +0.109 A 
ATOM     16  C   LIG    1      180.889 183.345 172.915  0.00  0.00    +0.135 A 
ATOM     17  C   LIG    1      181.765 183.919 173.837  0.00  0.00    +0.091 A 
ATOM     18  C   LIG    1      182.728 183.135 174.471  0.00  0.00    +0.124 A 
ATOM     19  C   LIG    1      182.819 181.772 174.187  0.00  0.00    +0.092 A 
ATOM     24  C   LIG    1      181.945 181.196 173.265  0.00  0.00    +0.147 A 
ATOM     25  O   LIG    1      182.082 179.853 173.028  0.00  0.00    -0.451 OA
ATOM     26  O   LIG    1      179.204 181.984 171.085  0.00  0.00    -0.283 OA
ATOM     27  C   LIG    1      181.235 179.254 172.109  0.00  0.00    +0.181 A 
ENDROOT
BRANCH  27  28
ATOM     28  C   LIG    1      181.488 177.810 171.950  0.00  0.00    +0.025 A 
ATOM     29  C   LIG    1      180.976 176.905 172.880  0.00  0.00    +0.015 A 
ATOM     30  C   LIG    1      181.216 175.540 172.729  0.00  0.00    +0.050 A 
ATOM     31  C   LIG    1      181.967 175.078 171.648  0.00  0.00    +0.158 A 
ATOM     32  C   LIG    1      182.480 175.983 170.718  0.00  0.00    +0.159 A 
ATOM     37  C   LIG    1      182.240 177.349 170.868  0.00  0.00    +0.060 A 
BRANCH  32  33
ATOM     33  O   LIG    1      183.214 175.544 169.658  0.00  0.00    -0.503 OA
ATOM     34  H   LIG    1      183.589 176.319 169.203  0.00  0.00    +0.292 HD
ENDBRANCH  32  33
BRANCH  31  35
ATOM     35  O   LIG    1      182.196 173.742 171.513  0.00  0.00    -0.503 OA
ATOM     36  H   LIG    1      182.511 173.565 170.609  0.00  0.00    +0.292 HD
ENDBRANCH  31  35
ENDBRANCH  27  28
BRANCH  18  20
ATOM     20  O   LIG    1      183.578 183.699 175.373  0.00  0.00    -0.507 OA
ATOM     21  H   LIG    1      183.159 184.492 175.749  0.00  0.00    +0.292 HD
ENDBRANCH  18  20
BRANCH  16  22
ATOM     22  O   LIG    1      179.967 184.156 172.324  0.00  0.00    -0.506 OA
ATOM     23  H   LIG    1      179.251 183.631 171.935  0.00  0.00    +0.292 HD
ENDBRANCH  16  22
BRANCH  13  12
ATOM     12  O   LIG    1      179.414 179.262 170.554  0.00  0.00    -0.453 OA
BRANCH  12   2
ATOM      1  O   LIG    1      178.064 177.658 171.582  0.00  0.00    -0.331 OA
ATOM      2  C   LIG    1      178.136 179.013 171.139  0.00  0.00    +0.340 C 
ATOM      3  C   LIG    1      177.070 179.302 170.080  0.00  0.00    +0.214 C 
ATOM      4  C   LIG    1      175.683 178.908 170.587  0.00  0.00    +0.180 C 
ATOM      5  C   LIG    1      175.683 177.483 171.139  0.00  0.00    +0.177 C 
ATOM     38  C   LIG    1      176.802 177.327 172.174  0.00  0.00    +0.179 C 
BRANCH   5   6
ATOM      6  O   LIG    1      175.904 176.556 170.072  0.00  0.00    -0.386 OA
ATOM      7  H   LIG    1      175.509 176.939 169.271  0.00  0.00    +0.210 HD
ENDBRANCH   5   6
BRANCH   4   8
ATOM      8  O   LIG    1      174.744 179.022 169.521  0.00  0.00    -0.386 OA
ATOM      9  H   LIG    1      174.996 178.374 168.841  0.00  0.00    +0.210 HD
ENDBRANCH   4   8
BRANCH   3  10
ATOM     10  O   LIG    1      177.085 180.699 169.790  0.00  0.00    -0.383 OA
ATOM     11  H   LIG    1      177.997 180.929 169.543  0.00  0.00    +0.210 HD
ENDBRANCH   3  10
BRANCH  38  39
ATOM     39  C   LIG    1      176.909 175.902 172.704  0.00  0.00    +0.190 C 
BRANCH  39  40
ATOM     40  O   LIG    1      177.779 175.170 171.861  0.00  0.00    -0.392 OA
ATOM     41  H   LIG    1      178.354 175.809 171.406  0.00  0.00    +0.210 HD
ENDBRANCH  39  40
ENDBRANCH  38  39
ENDBRANCH  12   2
ENDBRANCH  13  12
TORSDOF 12
ENDMDL
