REMARK VINA RESULT:      -6.9      3.815      6.304
REMARK  Name = 5281643
REMARK                            x       y       z     vdW  Elec       q    Type
REMARK                         _______ _______ _______ _____ _____    ______ ____
ROOT
ATOM     13  C   LIG    1      182.566 183.656 173.363  0.00  0.00    +0.214 A 
ATOM     14  C   LIG    1      183.833 183.318 174.055  0.00  0.00    +0.238 A 
ATOM     15  C   LIG    1      184.877 184.354 174.048  0.00  0.00    +0.109 A 
ATOM     16  C   LIG    1      186.106 184.135 174.677  0.00  0.00    +0.135 A 
ATOM     17  C   LIG    1      187.079 185.134 174.652  0.00  0.00    +0.091 A 
ATOM     18  C   LIG    1      186.827 186.344 174.004  0.00  0.00    +0.124 A 
ATOM     19  C   LIG    1      185.599 186.559 173.377  0.00  0.00    +0.092 A 
ATOM     24  C   LIG    1      184.624 185.561 173.401  0.00  0.00    +0.147 A 
ATOM     25  O   LIG    1      183.439 185.830 172.766  0.00  0.00    -0.451 OA
ATOM     26  O   LIG    1      184.001 182.236 174.602  0.00  0.00    -0.283 OA
ATOM     27  C   LIG    1      182.446 184.864 172.782  0.00  0.00    +0.181 A 
ENDROOT
BRANCH  27  28
ATOM     28  C   LIG    1      181.227 185.279 172.065  0.00  0.00    +0.025 A 
ATOM     29  C   LIG    1      181.231 185.365 170.672  0.00  0.00    +0.015 A 
ATOM     30  C   LIG    1      180.078 185.759 169.994  0.00  0.00    +0.050 A 
ATOM     31  C   LIG    1      178.920 186.067 170.708  0.00  0.00    +0.158 A 
ATOM     32  C   LIG    1      178.916 185.982 172.101  0.00  0.00    +0.159 A 
ATOM     37  C   LIG    1      180.069 185.588 172.779  0.00  0.00    +0.060 A 
BRANCH  32  33
ATOM     33  O   LIG    1      177.790 186.280 172.808  0.00  0.00    -0.503 OA
ATOM     34  H   LIG    1      177.481 185.469 173.247  0.00  0.00    +0.292 HD
ENDBRANCH  32  33
BRANCH  31  35
ATOM     35  O   LIG    1      177.800 186.451 170.035  0.00  0.00    -0.503 OA
ATOM     36  H   LIG    1      177.079 186.591 170.673  0.00  0.00    +0.292 HD
ENDBRANCH  31  35
ENDBRANCH  27  28
BRANCH  18  20
ATOM     20  O   LIG    1      187.781 187.313 173.979  0.00  0.00    -0.507 OA
ATOM     21  H   LIG    1      188.415 187.151 174.699  0.00  0.00    +0.292 HD
ENDBRANCH  18  20
BRANCH  16  22
ATOM     22  O   LIG    1      186.403 182.973 175.322  0.00  0.00    -0.506 OA
ATOM     23  H   LIG    1      186.710 183.153 176.224  0.00  0.00    +0.292 HD
ENDBRANCH  16  22
BRANCH  13  12
ATOM     12  O   LIG    1      181.571 182.703 173.332  0.00  0.00    -0.453 OA
BRANCH  12   2
ATOM      1  O   LIG    1      180.495 182.230 171.314  0.00  0.00    -0.331 OA
ATOM      2  C   LIG    1      181.623 181.928 172.134  0.00  0.00    +0.340 C 
ATOM      3  C   LIG    1      181.633 180.450 172.531  0.00  0.00    +0.214 C 
ATOM      4  C   LIG    1      181.532 179.557 171.296  0.00  0.00    +0.180 C 
ATOM      5  C   LIG    1      180.367 179.984 170.402  0.00  0.00    +0.177 C 
ATOM     38  C   LIG    1      180.471 181.481 170.093  0.00  0.00    +0.179 C 
BRANCH   5   6
ATOM      6  O   LIG    1      179.131 179.732 171.076  0.00  0.00    -0.386 OA
ATOM      7  H   LIG    1      178.489 179.446 170.404  0.00  0.00    +0.210 HD
ENDBRANCH   5   6
BRANCH   4   8
ATOM      8  O   LIG    1      181.365 178.203 171.708  0.00  0.00    -0.386 OA
ATOM      9  H   LIG    1      180.733 178.200 172.446  0.00  0.00    +0.210 HD
ENDBRANCH   4   8
BRANCH   3  10
ATOM     10  O   LIG    1      182.855 180.172 173.214  0.00  0.00    -0.383 OA
ATOM     11  H   LIG    1      183.463 180.907 173.021  0.00  0.00    +0.210 HD
ENDBRANCH   3  10
BRANCH  38  39
ATOM     39  C   LIG    1      179.291 181.987 169.272  0.00  0.00    +0.190 C 
BRANCH  39  40
ATOM     40  O   LIG    1      178.350 182.578 170.149  0.00  0.00    -0.392 OA
ATOM     41  H   LIG    1      177.720 181.886 170.414  0.00  0.00    +0.210 HD
ENDBRANCH  39  40
ENDBRANCH  38  39
ENDBRANCH  12   2
ENDBRANCH  13  12
TORSDOF 12
