REMARK VINA RESULT:      -7.0     10.017     13.504
REMARK  Name = 5281643
REMARK                            x       y       z     vdW  Elec       q    Type
REMARK                         _______ _______ _______ _____ _____    ______ ____
ROOT
ATOM     13  C   LIG    1      177.332 176.188 169.557  0.00  0.00    +0.214 A 
ATOM     14  C   LIG    1      176.593 174.915 169.375  0.00  0.00    +0.238 A 
ATOM     15  C   LIG    1      175.144 174.961 169.624  0.00  0.00    +0.109 A 
ATOM     16  C   LIG    1      174.357 173.815 169.476  0.00  0.00    +0.135 A 
ATOM     17  C   LIG    1      172.986 173.886 169.721  0.00  0.00    +0.091 A 
ATOM     18  C   LIG    1      172.404 175.092 170.111  0.00  0.00    +0.124 A 
ATOM     19  C   LIG    1      173.192 176.234 170.258  0.00  0.00    +0.092 A 
ATOM     24  C   LIG    1      174.564 176.166 170.013  0.00  0.00    +0.147 A 
ATOM     25  O   LIG    1      175.287 177.319 170.176  0.00  0.00    -0.451 OA
ATOM     26  O   LIG    1      177.158 173.884 169.038  0.00  0.00    -0.283 OA
ATOM     27  C   LIG    1      176.650 177.287 169.929  0.00  0.00    +0.181 A 
ENDROOT
BRANCH  27  28
ATOM     28  C   LIG    1      177.304 178.590 170.142  0.00  0.00    +0.025 A 
ATOM     29  C   LIG    1      177.317 179.540 169.121  0.00  0.00    +0.015 A 
ATOM     30  C   LIG    1      177.938 180.773 169.323  0.00  0.00    +0.050 A 
ATOM     31  C   LIG    1      178.545 181.056 170.546  0.00  0.00    +0.158 A 
ATOM     32  C   LIG    1      178.533 180.106 171.568  0.00  0.00    +0.159 A 
ATOM     37  C   LIG    1      177.912 178.873 171.366  0.00  0.00    +0.060 A 
BRANCH  32  33
ATOM     33  O   LIG    1      179.122 180.371 172.767  0.00  0.00    -0.503 OA
ATOM     34  H   LIG    1      179.209 181.337 172.858  0.00  0.00    +0.292 HD
ENDBRANCH  32  33
BRANCH  31  35
ATOM     35  O   LIG    1      179.149 182.263 170.731  0.00  0.00    -0.503 OA
ATOM     36  H   LIG    1      179.445 182.605 169.869  0.00  0.00    +0.292 HD
ENDBRANCH  31  35
ENDBRANCH  27  28
BRANCH  18  20
ATOM     20  O   LIG    1      171.066 175.155 170.352  0.00  0.00    -0.507 OA
ATOM     21  H   LIG    1      170.733 174.257 170.522  0.00  0.00    +0.292 HD
ENDBRANCH  18  20
BRANCH  16  22
ATOM     22  O   LIG    1      174.875 172.613 169.098  0.00  0.00    -0.506 OA
ATOM     23  H   LIG    1      174.975 172.028 169.865  0.00  0.00    +0.292 HD
ENDBRANCH  16  22
BRANCH  13  12
ATOM     12  O   LIG    1      178.694 176.181 169.352  0.00  0.00    -0.453 OA
BRANCH  12   2
ATOM      1  O   LIG    1      179.798 176.243 171.408  0.00  0.00    -0.331 OA
ATOM      2  C   LIG    1      179.370 175.402 170.338  0.00  0.00    +0.340 C 
ATOM      3  C   LIG    1      180.564 174.722 169.663  0.00  0.00    +0.214 C 
ATOM      4  C   LIG    1      181.425 173.993 170.693  0.00  0.00    +0.180 C 
ATOM      5  C   LIG    1      181.775 174.910 171.865  0.00  0.00    +0.177 C 
ATOM     38  C   LIG    1      180.497 175.531 172.437  0.00  0.00    +0.179 C 
BRANCH   5   6
ATOM      6  O   LIG    1      182.640 175.955 171.414  0.00  0.00    -0.386 OA
ATOM      7  H   LIG    1      183.539 175.587 171.371  0.00  0.00    +0.210 HD
ENDBRANCH   5   6
BRANCH   4   8
ATOM      8  O   LIG    1      182.615 173.525 170.063  0.00  0.00    -0.386 OA
ATOM      9  H   LIG    1      182.705 174.002 169.221  0.00  0.00    +0.210 HD
ENDBRANCH   4   8
BRANCH   3  10
ATOM     10  O   LIG    1      180.071 173.780 168.711  0.00  0.00    -0.383 OA
ATOM     11  H   LIG    1      179.871 174.275 167.898  0.00  0.00    +0.210 HD
ENDBRANCH   3  10
BRANCH  38  39
ATOM     39  C   LIG    1      180.785 176.522 173.560  0.00  0.00    +0.190 C 
BRANCH  39  40
ATOM     40  O   LIG    1      180.978 177.805 172.992  0.00  0.00    -0.392 OA
ATOM     41  H   LIG    1      181.682 177.729 172.325  0.00  0.00    +0.210 HD
ENDBRANCH  39  40
ENDBRANCH  38  39
ENDBRANCH  12   2
ENDBRANCH  13  12
TORSDOF 12
