REMARK VINA RESULT:      -7.4      2.778      4.252
REMARK  Name = 5281643
REMARK                            x       y       z     vdW  Elec       q    Type
REMARK                         _______ _______ _______ _____ _____    ______ ____
ROOT
ATOM     13  C   LIG    1      185.549 184.020 169.716  0.00  0.00    +0.214 A 
ATOM     14  C   LIG    1      186.458 183.861 168.555  0.00  0.00    +0.238 A 
ATOM     15  C   LIG    1      186.362 182.591 167.820  0.00  0.00    +0.109 A 
ATOM     16  C   LIG    1      187.173 182.345 166.709  0.00  0.00    +0.135 A 
ATOM     17  C   LIG    1      187.063 181.130 166.032  0.00  0.00    +0.091 A 
ATOM     18  C   LIG    1      186.149 180.168 166.462  0.00  0.00    +0.124 A 
ATOM     19  C   LIG    1      185.342 180.416 167.572  0.00  0.00    +0.092 A 
ATOM     24  C   LIG    1      185.450 181.630 168.250  0.00  0.00    +0.147 A 
ATOM     25  O   LIG    1      184.631 181.816 169.334  0.00  0.00    -0.451 OA
ATOM     26  O   LIG    1      187.246 184.738 168.228  0.00  0.00    -0.283 OA
ATOM     27  C   LIG    1      184.706 183.017 170.022  0.00  0.00    +0.181 A 
ENDROOT
BRANCH  27  28
ATOM     28  C   LIG    1      183.776 183.085 171.164  0.00  0.00    +0.025 A 
ATOM     29  C   LIG    1      182.724 184.001 171.153  0.00  0.00    +0.015 A 
ATOM     30  C   LIG    1      181.845 184.066 172.234  0.00  0.00    +0.050 A 
ATOM     31  C   LIG    1      182.017 183.215 173.325  0.00  0.00    +0.158 A 
ATOM     32  C   LIG    1      183.069 182.299 173.337  0.00  0.00    +0.159 A 
ATOM     37  C   LIG    1      183.949 182.234 172.256  0.00  0.00    +0.060 A 
BRANCH  32  33
ATOM     33  O   LIG    1      183.247 181.462 174.397  0.00  0.00    -0.503 OA
ATOM     34  H   LIG    1      182.690 180.675 174.262  0.00  0.00    +0.292 HD
ENDBRANCH  32  33
BRANCH  31  35
ATOM     35  O   LIG    1      181.152 183.288 174.375  0.00  0.00    -0.503 OA
ATOM     36  H   LIG    1      180.290 182.931 174.100  0.00  0.00    +0.292 HD
ENDBRANCH  31  35
ENDBRANCH  27  28
BRANCH  18  20
ATOM     20  O   LIG    1      186.048 178.983 165.800  0.00  0.00    -0.507 OA
ATOM     21  H   LIG    1      186.633 178.333 166.225  0.00  0.00    +0.292 HD
ENDBRANCH  18  20
BRANCH  16  22
ATOM     22  O   LIG    1      188.081 183.250 166.248  0.00  0.00    -0.506 OA
ATOM     23  H   LIG    1      188.890 182.803 165.956  0.00  0.00    +0.292 HD
ENDBRANCH  16  22
BRANCH  13  12
ATOM     12  O   LIG    1      185.623 185.189 170.442  0.00  0.00    -0.453 OA
BRANCH  12   2
ATOM      1  O   LIG    1      186.261 184.871 172.665  0.00  0.00    -0.331 OA
ATOM      2  C   LIG    1      186.724 185.175 171.350  0.00  0.00    +0.340 C 
ATOM      3  C   LIG    1      187.387 186.554 171.306  0.00  0.00    +0.214 C 
ATOM      4  C   LIG    1      188.480 186.663 172.368  0.00  0.00    +0.180 C 
ATOM      5  C   LIG    1      187.959 186.233 173.740  0.00  0.00    +0.177 C 
ATOM     38  C   LIG    1      187.312 184.848 173.639  0.00  0.00    +0.179 C 
BRANCH   5   6
ATOM      6  O   LIG    1      186.982 187.172 174.196  0.00  0.00    -0.386 OA
ATOM      7  H   LIG    1      187.243 187.450 175.090  0.00  0.00    +0.210 HD
ENDBRANCH   5   6
BRANCH   4   8
ATOM      8  O   LIG    1      188.952 188.006 172.420  0.00  0.00    -0.386 OA
ATOM      9  H   LIG    1      189.511 188.088 173.211  0.00  0.00    +0.210 HD
ENDBRANCH   4   8
BRANCH   3  10
ATOM     10  O   LIG    1      187.966 186.738 170.015  0.00  0.00    -0.383 OA
ATOM     11  H   LIG    1      188.138 185.853 169.651  0.00  0.00    +0.210 HD
ENDBRANCH   3  10
BRANCH  38  39
ATOM     39  C   LIG    1      186.697 184.397 174.960  0.00  0.00    +0.190 C 
BRANCH  39  40
ATOM     40  O   LIG    1      187.554 184.793 176.015  0.00  0.00    -0.392 OA
ATOM     41  H   LIG    1      187.534 184.091 176.689  0.00  0.00    +0.210 HD
ENDBRANCH  39  40
ENDBRANCH  38  39
ENDBRANCH  12   2
ENDBRANCH  13  12
TORSDOF 12
