REMARK VINA RESULT:      -7.4      3.070      5.912
REMARK  Name = 5281643
REMARK                            x       y       z     vdW  Elec       q    Type
REMARK                         _______ _______ _______ _____ _____    ______ ____
ROOT
ATOM     13  C   LIG    1      184.193 185.754 170.930  0.00  0.00    +0.214 A 
ATOM     14  C   LIG    1      183.492 186.379 169.782  0.00  0.00    +0.238 A 
ATOM     15  C   LIG    1      183.794 187.796 169.527  0.00  0.00    +0.109 A 
ATOM     16  C   LIG    1      183.188 188.476 168.467  0.00  0.00    +0.135 A 
ATOM     17  C   LIG    1      183.490 189.820 168.250  0.00  0.00    +0.091 A 
ATOM     18  C   LIG    1      184.391 190.481 169.086  0.00  0.00    +0.124 A 
ATOM     19  C   LIG    1      184.993 189.799 170.144  0.00  0.00    +0.092 A 
ATOM     24  C   LIG    1      184.693 188.455 170.362  0.00  0.00    +0.147 A 
ATOM     25  O   LIG    1      185.315 187.839 171.417  0.00  0.00    -0.451 OA
ATOM     26  O   LIG    1      182.706 185.751 169.087  0.00  0.00    -0.283 OA
ATOM     27  C   LIG    1      185.046 186.500 171.654  0.00  0.00    +0.181 A 
ENDROOT
BRANCH  27  28
ATOM     28  C   LIG    1      185.777 185.963 172.816  0.00  0.00    +0.025 A 
ATOM     29  C   LIG    1      186.755 184.985 172.635  0.00  0.00    +0.015 A 
ATOM     30  C   LIG    1      187.446 184.476 173.735  0.00  0.00    +0.050 A 
ATOM     31  C   LIG    1      187.159 184.946 175.016  0.00  0.00    +0.158 A 
ATOM     32  C   LIG    1      186.181 185.925 175.198  0.00  0.00    +0.159 A 
ATOM     37  C   LIG    1      185.490 186.433 174.099  0.00  0.00    +0.060 A 
BRANCH  32  33
ATOM     33  O   LIG    1      185.894 186.392 176.445  0.00  0.00    -0.503 OA
ATOM     34  H   LIG    1      185.132 186.994 176.378  0.00  0.00    +0.292 HD
ENDBRANCH  32  33
BRANCH  31  35
ATOM     35  O   LIG    1      187.840 184.442 176.083  0.00  0.00    -0.503 OA
ATOM     36  H   LIG    1      188.560 183.872 175.758  0.00  0.00    +0.292 HD
ENDBRANCH  31  35
ENDBRANCH  27  28
BRANCH  18  20
ATOM     20  O   LIG    1      184.679 191.794 168.872  0.00  0.00    -0.507 OA
ATOM     21  H   LIG    1      185.615 191.875 168.619  0.00  0.00    +0.292 HD
ENDBRANCH  18  20
BRANCH  16  22
ATOM     22  O   LIG    1      182.302 187.879 167.623  0.00  0.00    -0.506 OA
ATOM     23  H   LIG    1      181.449 188.340 167.640  0.00  0.00    +0.292 HD
ENDBRANCH  16  22
BRANCH  13  12
ATOM     12  O   LIG    1      183.922 184.432 171.212  0.00  0.00    -0.453 OA
BRANCH  12   2
ATOM      1  O   LIG    1      183.809 183.558 173.374  0.00  0.00    -0.331 OA
ATOM      2  C   LIG    1      183.108 184.300 172.377  0.00  0.00    +0.340 C 
ATOM      3  C   LIG    1      181.816 183.589 171.969  0.00  0.00    +0.214 C 
ATOM      4  C   LIG    1      180.961 183.274 173.196  0.00  0.00    +0.180 C 
ATOM      5  C   LIG    1      181.783 182.565 174.272  0.00  0.00    +0.177 C 
ATOM     38  C   LIG    1      183.049 183.374 174.575  0.00  0.00    +0.179 C 
BRANCH   5   6
ATOM      6  O   LIG    1      182.160 181.266 173.809  0.00  0.00    -0.386 OA
ATOM      7  H   LIG    1      182.571 181.379 172.936  0.00  0.00    +0.210 HD
ENDBRANCH   5   6
BRANCH   4   8
ATOM      8  O   LIG    1      179.859 182.460 172.804  0.00  0.00    -0.386 OA
ATOM      9  H   LIG    1      180.222 181.660 172.387  0.00  0.00    +0.210 HD
ENDBRANCH   4   8
BRANCH   3  10
ATOM     10  O   LIG    1      181.084 184.445 171.093  0.00  0.00    -0.383 OA
ATOM     11  H   LIG    1      181.574 185.283 171.038  0.00  0.00    +0.210 HD
ENDBRANCH   3  10
BRANCH  38  39
ATOM     39  C   LIG    1      183.956 182.677 175.584  0.00  0.00    +0.190 C 
BRANCH  39  40
ATOM     40  O   LIG    1      183.166 181.813 176.380  0.00  0.00    -0.392 OA
ATOM     41  H   LIG    1      182.722 182.357 177.053  0.00  0.00    +0.210 HD
ENDBRANCH  39  40
ENDBRANCH  38  39
ENDBRANCH  12   2
ENDBRANCH  13  12
TORSDOF 12
