REMARK VINA RESULT:      -6.9      6.865     10.735
REMARK  Name = 5281643
REMARK                            x       y       z     vdW  Elec       q    Type
REMARK                         _______ _______ _______ _____ _____    ______ ____
ROOT
ATOM     13  C   LIG    1      180.261 179.895 171.437  0.00  0.00    +0.214 A 
ATOM     14  C   LIG    1      180.072 181.348 171.667  0.00  0.00    +0.238 A 
ATOM     15  C   LIG    1      180.984 181.980 172.632  0.00  0.00    +0.109 A 
ATOM     16  C   LIG    1      180.889 183.345 172.915  0.00  0.00    +0.135 A 
ATOM     17  C   LIG    1      181.765 183.919 173.837  0.00  0.00    +0.091 A 
ATOM     18  C   LIG    1      182.728 183.135 174.471  0.00  0.00    +0.124 A 
ATOM     19  C   LIG    1      182.819 181.772 174.187  0.00  0.00    +0.092 A 
ATOM     24  C   LIG    1      181.945 181.196 173.265  0.00  0.00    +0.147 A 
ATOM     25  O   LIG    1      182.082 179.853 173.028  0.00  0.00    -0.451 OA
ATOM     26  O   LIG    1      179.204 181.984 171.085  0.00  0.00    -0.283 OA
ATOM     27  C   LIG    1      181.235 179.254 172.109  0.00  0.00    +0.181 A 
ENDROOT
BRANCH  27  28
ATOM     28  C   LIG    1      181.488 177.810 171.950  0.00  0.00    +0.025 A 
ATOM     29  C   LIG    1      180.976 176.905 172.880  0.00  0.00    +0.015 A 
ATOM     30  C   LIG    1      181.216 175.540 172.729  0.00  0.00    +0.050 A 
ATOM     31  C   LIG    1      181.967 175.078 171.648  0.00  0.00    +0.158 A 
ATOM     32  C   LIG    1      182.480 175.983 170.718  0.00  0.00    +0.159 A 
ATOM     37  C   LIG    1      182.240 177.349 170.868  0.00  0.00    +0.060 A 
BRANCH  32  33
ATOM     33  O   LIG    1      183.214 175.544 169.658  0.00  0.00    -0.503 OA
ATOM     34  H   LIG    1      183.589 176.319 169.203  0.00  0.00    +0.292 HD
ENDBRANCH  32  33
BRANCH  31  35
ATOM     35  O   LIG    1      182.196 173.742 171.513  0.00  0.00    -0.503 OA
ATOM     36  H   LIG    1      182.511 173.565 170.609  0.00  0.00    +0.292 HD
ENDBRANCH  31  35
ENDBRANCH  27  28
BRANCH  18  20
ATOM     20  O   LIG    1      183.578 183.699 175.373  0.00  0.00    -0.507 OA
ATOM     21  H   LIG    1      183.159 184.492 175.749  0.00  0.00    +0.292 HD
ENDBRANCH  18  20
BRANCH  16  22
ATOM     22  O   LIG    1      179.967 184.156 172.324  0.00  0.00    -0.506 OA
ATOM     23  H   LIG    1      179.251 183.631 171.935  0.00  0.00    +0.292 HD
ENDBRANCH  16  22
BRANCH  13  12
ATOM     12  O   LIG    1      179.414 179.262 170.554  0.00  0.00    -0.453 OA
BRANCH  12   2
ATOM      1  O   LIG    1      178.064 177.658 171.582  0.00  0.00    -0.331 OA
ATOM      2  C   LIG    1      178.136 179.013 171.139  0.00  0.00    +0.340 C 
ATOM      3  C   LIG    1      177.070 179.302 170.080  0.00  0.00    +0.214 C 
ATOM      4  C   LIG    1      175.683 178.908 170.587  0.00  0.00    +0.180 C 
ATOM      5  C   LIG    1      175.683 177.483 171.139  0.00  0.00    +0.177 C 
ATOM     38  C   LIG    1      176.802 177.327 172.174  0.00  0.00    +0.179 C 
BRANCH   5   6
ATOM      6  O   LIG    1      175.904 176.556 170.072  0.00  0.00    -0.386 OA
ATOM      7  H   LIG    1      175.509 176.939 169.271  0.00  0.00    +0.210 HD
ENDBRANCH   5   6
BRANCH   4   8
ATOM      8  O   LIG    1      174.744 179.022 169.521  0.00  0.00    -0.386 OA
ATOM      9  H   LIG    1      174.996 178.374 168.841  0.00  0.00    +0.210 HD
ENDBRANCH   4   8
BRANCH   3  10
ATOM     10  O   LIG    1      177.085 180.699 169.790  0.00  0.00    -0.383 OA
ATOM     11  H   LIG    1      177.997 180.929 169.543  0.00  0.00    +0.210 HD
ENDBRANCH   3  10
BRANCH  38  39
ATOM     39  C   LIG    1      176.909 175.902 172.704  0.00  0.00    +0.190 C 
BRANCH  39  40
ATOM     40  O   LIG    1      177.779 175.170 171.861  0.00  0.00    -0.392 OA
ATOM     41  H   LIG    1      178.354 175.809 171.406  0.00  0.00    +0.210 HD
ENDBRANCH  39  40
ENDBRANCH  38  39
ENDBRANCH  12   2
ENDBRANCH  13  12
TORSDOF 12
