REMARK VINA RESULT:      -6.9      2.939      6.971
REMARK  Name = 5281643
REMARK                            x       y       z     vdW  Elec       q    Type
REMARK                         _______ _______ _______ _____ _____    ______ ____
ROOT
ATOM     13  C   LIG    1      183.776 183.718 171.596  0.00  0.00    +0.214 A 
ATOM     14  C   LIG    1      183.166 182.890 170.527  0.00  0.00    +0.238 A 
ATOM     15  C   LIG    1      182.970 181.466 170.838  0.00  0.00    +0.109 A 
ATOM     16  C   LIG    1      182.399 180.603 169.900  0.00  0.00    +0.135 A 
ATOM     17  C   LIG    1      182.227 179.256 170.219  0.00  0.00    +0.091 A 
ATOM     18  C   LIG    1      182.622 178.775 171.468  0.00  0.00    +0.124 A 
ATOM     19  C   LIG    1      183.192 179.640 172.402  0.00  0.00    +0.092 A 
ATOM     24  C   LIG    1      183.365 180.987 172.085  0.00  0.00    +0.147 A 
ATOM     25  O   LIG    1      183.931 181.788 173.042  0.00  0.00    -0.451 OA
ATOM     26  O   LIG    1      182.845 183.366 169.447  0.00  0.00    -0.283 OA
ATOM     27  C   LIG    1      184.106 183.133 172.762  0.00  0.00    +0.181 A 
ENDROOT
BRANCH  27  28
ATOM     28  C   LIG    1      184.725 183.878 173.873  0.00  0.00    +0.025 A 
ATOM     29  C   LIG    1      184.025 184.910 174.498  0.00  0.00    +0.015 A 
ATOM     30  C   LIG    1      184.612 185.614 175.549  0.00  0.00    +0.050 A 
ATOM     31  C   LIG    1      185.898 185.287 175.977  0.00  0.00    +0.158 A 
ATOM     32  C   LIG    1      186.599 184.254 175.352  0.00  0.00    +0.159 A 
ATOM     37  C   LIG    1      186.013 183.550 174.300  0.00  0.00    +0.060 A 
BRANCH  32  33
ATOM     33  O   LIG    1      187.856 183.925 175.761  0.00  0.00    -0.503 OA
ATOM     34  H   LIG    1      187.879 183.956 176.733  0.00  0.00    +0.292 HD
ENDBRANCH  32  33
BRANCH  31  35
ATOM     35  O   LIG    1      186.461 185.982 177.004  0.00  0.00    -0.503 OA
ATOM     36  H   LIG    1      186.413 186.934 176.805  0.00  0.00    +0.292 HD
ENDBRANCH  31  35
ENDBRANCH  27  28
BRANCH  18  20
ATOM     20  O   LIG    1      182.455 177.459 171.773  0.00  0.00    -0.507 OA
ATOM     21  H   LIG    1      182.198 177.382 172.708  0.00  0.00    +0.292 HD
ENDBRANCH  18  20
BRANCH  16  22
ATOM     22  O   LIG    1      181.997 181.020 168.667  0.00  0.00    -0.506 OA
ATOM     23  H   LIG    1      182.490 181.810 168.396  0.00  0.00    +0.292 HD
ENDBRANCH  16  22
BRANCH  13  12
ATOM     12  O   LIG    1      183.994 185.054 171.336  0.00  0.00    -0.453 OA
BRANCH  12   2
ATOM      1  O   LIG    1      186.094 185.894 171.914  0.00  0.00    -0.331 OA
ATOM      2  C   LIG    1      185.324 185.289 170.876  0.00  0.00    +0.340 C 
ATOM      3  C   LIG    1      185.242 186.203 169.650  0.00  0.00    +0.214 C 
ATOM      4  C   LIG    1      186.639 186.624 169.195  0.00  0.00    +0.180 C 
ATOM      5  C   LIG    1      187.456 187.174 170.364  0.00  0.00    +0.177 C 
ATOM     38  C   LIG    1      187.444 186.172 171.522  0.00  0.00    +0.179 C 
BRANCH   5   6
ATOM      6  O   LIG    1      186.884 188.407 170.809  0.00  0.00    -0.386 OA
ATOM      7  H   LIG    1      185.939 188.246 170.968  0.00  0.00    +0.210 HD
ENDBRANCH   5   6
BRANCH   4   8
ATOM      8  O   LIG    1      186.522 187.608 168.171  0.00  0.00    -0.386 OA
ATOM      9  H   LIG    1      185.652 188.030 168.271  0.00  0.00    +0.210 HD
ENDBRANCH   4   8
BRANCH   3  10
ATOM     10  O   LIG    1      184.599 185.489 168.594  0.00  0.00    -0.383 OA
ATOM     11  H   LIG    1      185.146 185.604 167.799  0.00  0.00    +0.210 HD
ENDBRANCH   3  10
BRANCH  38  39
ATOM     39  C   LIG    1      188.175 186.698 172.753  0.00  0.00    +0.190 C 
BRANCH  39  40
ATOM     40  O   LIG    1      189.027 187.757 172.355  0.00  0.00    -0.392 OA
ATOM     41  H   LIG    1      189.538 188.032 173.135  0.00  0.00    +0.210 HD
ENDBRANCH  39  40
ENDBRANCH  38  39
ENDBRANCH  12   2
ENDBRANCH  13  12
TORSDOF 12
