REMARK VINA RESULT:      -7.1      1.905      6.441
REMARK  Name = 5281643
REMARK                            x       y       z     vdW  Elec       q    Type
REMARK                         _______ _______ _______ _____ _____    ______ ____
ROOT
ATOM     13  C   LIG    1      182.829 184.978 171.117  0.00  0.00    +0.214 A 
ATOM     14  C   LIG    1      181.349 185.071 171.148  0.00  0.00    +0.238 A 
ATOM     15  C   LIG    1      180.757 186.264 170.524  0.00  0.00    +0.109 A 
ATOM     16  C   LIG    1      179.371 186.443 170.498  0.00  0.00    +0.135 A 
ATOM     17  C   LIG    1      178.836 187.585 169.903  0.00  0.00    +0.091 A 
ATOM     18  C   LIG    1      179.679 188.542 169.338  0.00  0.00    +0.124 A 
ATOM     19  C   LIG    1      181.062 188.361 169.366  0.00  0.00    +0.092 A 
ATOM     24  C   LIG    1      181.599 187.219 169.961  0.00  0.00    +0.147 A 
ATOM     25  O   LIG    1      182.965 187.097 169.959  0.00  0.00    -0.451 OA
ATOM     26  O   LIG    1      180.660 184.202 171.665  0.00  0.00    -0.283 OA
ATOM     27  C   LIG    1      183.529 185.968 170.532  0.00  0.00    +0.181 A 
ENDROOT
BRANCH  27  28
ATOM     28  C   LIG    1      185.001 185.963 170.464  0.00  0.00    +0.025 A 
ATOM     29  C   LIG    1      185.658 185.083 169.604  0.00  0.00    +0.015 A 
ATOM     30  C   LIG    1      187.051 185.077 169.542  0.00  0.00    +0.050 A 
ATOM     31  C   LIG    1      187.789 185.953 170.338  0.00  0.00    +0.158 A 
ATOM     32  C   LIG    1      187.132 186.834 171.199  0.00  0.00    +0.159 A 
ATOM     37  C   LIG    1      185.739 186.839 171.262  0.00  0.00    +0.060 A 
BRANCH  32  33
ATOM     33  O   LIG    1      187.842 187.694 171.982  0.00  0.00    -0.503 OA
ATOM     34  H   LIG    1      187.272 187.979 172.718  0.00  0.00    +0.292 HD
ENDBRANCH  32  33
BRANCH  31  35
ATOM     35  O   LIG    1      189.149 185.938 170.269  0.00  0.00    -0.503 OA
ATOM     36  H   LIG    1      189.420 185.452 169.471  0.00  0.00    +0.292 HD
ENDBRANCH  31  35
ENDBRANCH  27  28
BRANCH  18  20
ATOM     20  O   LIG    1      179.152 189.657 168.762  0.00  0.00    -0.507 OA
ATOM     21  H   LIG    1      178.956 189.467 167.828  0.00  0.00    +0.292 HD
ENDBRANCH  18  20
BRANCH  16  22
ATOM     22  O   LIG    1      178.504 185.540 171.036  0.00  0.00    -0.506 OA
ATOM     23  H   LIG    1      177.619 185.650 170.656  0.00  0.00    +0.292 HD
ENDBRANCH  16  22
BRANCH  13  12
ATOM     12  O   LIG    1      183.423 183.884 171.707  0.00  0.00    -0.453 OA
BRANCH  12   2
ATOM      1  O   LIG    1      184.947 184.430 173.390  0.00  0.00    -0.331 OA
ATOM      2  C   LIG    1      183.593 184.074 173.112  0.00  0.00    +0.340 C 
ATOM      3  C   LIG    1      183.215 182.766 173.811  0.00  0.00    +0.214 C 
ATOM      4  C   LIG    1      183.521 182.844 175.307  0.00  0.00    +0.180 C 
ATOM      5  C   LIG    1      184.952 183.324 175.551  0.00  0.00    +0.177 C 
ATOM     38  C   LIG    1      185.200 184.628 174.787  0.00  0.00    +0.179 C 
BRANCH   5   6
ATOM      6  O   LIG    1      185.874 182.332 175.092  0.00  0.00    -0.386 OA
ATOM      7  H   LIG    1      186.039 181.726 175.834  0.00  0.00    +0.210 HD
ENDBRANCH   5   6
BRANCH   4   8
ATOM      8  O   LIG    1      183.326 181.560 175.894  0.00  0.00    -0.386 OA
ATOM      9  H   LIG    1      182.718 181.672 176.644  0.00  0.00    +0.210 HD
ENDBRANCH   4   8
BRANCH   3  10
ATOM     10  O   LIG    1      181.818 182.541 173.629  0.00  0.00    -0.383 OA
ATOM     11  H   LIG    1      181.479 182.165 174.459  0.00  0.00    +0.210 HD
ENDBRANCH   3  10
BRANCH  38  39
ATOM     39  C   LIG    1      186.638 185.117 174.923  0.00  0.00    +0.190 C 
BRANCH  39  40
ATOM     40  O   LIG    1      186.661 186.517 174.716  0.00  0.00    -0.392 OA
ATOM     41  H   LIG    1      186.125 186.707 173.926  0.00  0.00    +0.210 HD
ENDBRANCH  39  40
ENDBRANCH  38  39
ENDBRANCH  12   2
ENDBRANCH  13  12
TORSDOF 12
