REMARK VINA RESULT:      -7.5      0.000      0.000
REMARK  Name = 5281643
REMARK                            x       y       z     vdW  Elec       q    Type
REMARK                         _______ _______ _______ _____ _____    ______ ____
ROOT
ATOM     13  C   LIG    1      185.989 186.535 170.757  0.00  0.00    +0.214 A 
ATOM     14  C   LIG    1      187.441 186.318 170.544  0.00  0.00    +0.238 A 
ATOM     15  C   LIG    1      187.838 185.824 169.217  0.00  0.00    +0.109 A 
ATOM     16  C   LIG    1      189.182 185.592 168.914  0.00  0.00    +0.135 A 
ATOM     17  C   LIG    1      189.531 185.120 167.649  0.00  0.00    +0.091 A 
ATOM     18  C   LIG    1      188.544 184.882 166.692  0.00  0.00    +0.124 A 
ATOM     19  C   LIG    1      187.203 185.115 166.998  0.00  0.00    +0.092 A 
ATOM     24  C   LIG    1      186.852 185.587 168.262  0.00  0.00    +0.147 A 
ATOM     25  O   LIG    1      185.519 185.796 168.504  0.00  0.00    -0.451 OA
ATOM     26  O   LIG    1      188.262 186.538 171.424  0.00  0.00    -0.283 OA
ATOM     27  C   LIG    1      185.139 186.275 169.748  0.00  0.00    +0.181 A 
ENDROOT
BRANCH  27  28
ATOM     28  C   LIG    1      183.681 186.453 169.875  0.00  0.00    +0.025 A 
ATOM     29  C   LIG    1      183.089 187.659 169.501  0.00  0.00    +0.015 A 
ATOM     30  C   LIG    1      181.710 187.827 169.623  0.00  0.00    +0.050 A 
ATOM     31  C   LIG    1      180.922 186.788 170.118  0.00  0.00    +0.158 A 
ATOM     32  C   LIG    1      181.514 185.581 170.493  0.00  0.00    +0.159 A 
ATOM     37  C   LIG    1      182.893 185.413 170.372  0.00  0.00    +0.060 A 
BRANCH  32  33
ATOM     33  O   LIG    1      180.754 184.560 170.978  0.00  0.00    -0.503 OA
ATOM     34  H   LIG    1      179.901 184.563 170.508  0.00  0.00    +0.292 HD
ENDBRANCH  32  33
BRANCH  31  35
ATOM     35  O   LIG    1      179.576 186.965 170.233  0.00  0.00    -0.503 OA
ATOM     36  H   LIG    1      179.127 186.134 169.997  0.00  0.00    +0.292 HD
ENDBRANCH  31  35
ENDBRANCH  27  28
BRANCH  18  20
ATOM     20  O   LIG    1      188.889 184.419 165.460  0.00  0.00    -0.507 OA
ATOM     21  H   LIG    1      189.472 185.068 165.030  0.00  0.00    +0.292 HD
ENDBRANCH  18  20
BRANCH  16  22
ATOM     22  O   LIG    1      190.185 185.806 169.811  0.00  0.00    -0.506 OA
ATOM     23  H   LIG    1      190.362 186.755 169.905  0.00  0.00    +0.292 HD
ENDBRANCH  16  22
BRANCH  13  12
ATOM     12  O   LIG    1      185.576 186.980 171.994  0.00  0.00    -0.453 OA
BRANCH  12   2
ATOM      1  O   LIG    1      184.443 185.294 173.146  0.00  0.00    -0.331 OA
ATOM      2  C   LIG    1      185.695 185.960 172.986  0.00  0.00    +0.340 C 
ATOM      3  C   LIG    1      186.135 186.625 174.293  0.00  0.00    +0.214 C 
ATOM      4  C   LIG    1      186.134 185.616 175.440  0.00  0.00    +0.180 C 
ATOM      5  C   LIG    1      184.806 184.861 175.507  0.00  0.00    +0.177 C 
ATOM     38  C   LIG    1      184.481 184.259 174.137  0.00  0.00    +0.179 C 
BRANCH   5   6
ATOM      6  O   LIG    1      183.761 185.763 175.880  0.00  0.00    -0.386 OA
ATOM      7  H   LIG    1      183.005 185.587 175.296  0.00  0.00    +0.210 HD
ENDBRANCH   5   6
BRANCH   4   8
ATOM      8  O   LIG    1      186.373 186.300 176.667  0.00  0.00    -0.386 OA
ATOM      9  H   LIG    1      186.188 187.242 176.516  0.00  0.00    +0.210 HD
ENDBRANCH   4   8
BRANCH   3  10
ATOM     10  O   LIG    1      187.455 187.138 174.119  0.00  0.00    -0.383 OA
ATOM     11  H   LIG    1      187.376 187.958 173.602  0.00  0.00    +0.210 HD
ENDBRANCH   3  10
BRANCH  38  39
ATOM     39  C   LIG    1      183.125 183.561 174.116  0.00  0.00    +0.190 C 
BRANCH  39  40
ATOM     40  O   LIG    1      182.139 184.501 173.732  0.00  0.00    -0.392 OA
ATOM     41  H   LIG    1      181.391 184.006 173.355  0.00  0.00    +0.210 HD
ENDBRANCH  39  40
ENDBRANCH  38  39
ENDBRANCH  12   2
ENDBRANCH  13  12
TORSDOF 12
