REMARK VINA RESULT:      -7.2      7.338     10.313
REMARK  Name = 5281643
REMARK                            x       y       z     vdW  Elec       q    Type
REMARK                         _______ _______ _______ _____ _____    ______ ____
ROOT
ATOM     13  C   LIG    1      180.382 179.072 172.344  0.00  0.00    +0.214 A 
ATOM     14  C   LIG    1      181.698 179.705 172.602  0.00  0.00    +0.238 A 
ATOM     15  C   LIG    1      181.713 181.174 172.671  0.00  0.00    +0.109 A 
ATOM     16  C   LIG    1      182.903 181.865 172.913  0.00  0.00    +0.135 A 
ATOM     17  C   LIG    1      182.889 183.259 172.970  0.00  0.00    +0.091 A 
ATOM     18  C   LIG    1      181.696 183.957 172.786  0.00  0.00    +0.124 A 
ATOM     19  C   LIG    1      180.510 183.264 172.544  0.00  0.00    +0.092 A 
ATOM     24  C   LIG    1      180.521 181.870 172.487  0.00  0.00    +0.147 A 
ATOM     25  O   LIG    1      179.325 181.245 172.244  0.00  0.00    -0.451 OA
ATOM     26  O   LIG    1      182.715 179.041 172.748  0.00  0.00    -0.283 OA
ATOM     27  C   LIG    1      179.301 179.860 172.193  0.00  0.00    +0.181 A 
ENDROOT
BRANCH  27  28
ATOM     28  C   LIG    1      177.957 179.318 171.924  0.00  0.00    +0.025 A 
ATOM     29  C   LIG    1      177.305 178.555 172.893  0.00  0.00    +0.015 A 
ATOM     30  C   LIG    1      176.034 178.041 172.638  0.00  0.00    +0.050 A 
ATOM     31  C   LIG    1      175.414 178.290 171.414  0.00  0.00    +0.158 A 
ATOM     32  C   LIG    1      176.066 179.052 170.444  0.00  0.00    +0.159 A 
ATOM     37  C   LIG    1      177.337 179.566 170.699  0.00  0.00    +0.060 A 
BRANCH  32  33
ATOM     33  O   LIG    1      175.469 179.302 169.245  0.00  0.00    -0.503 OA
ATOM     34  H   LIG    1      175.219 178.451 168.844  0.00  0.00    +0.292 HD
ENDBRANCH  32  33
BRANCH  31  35
ATOM     35  O   LIG    1      174.173 177.782 171.176  0.00  0.00    -0.503 OA
ATOM     36  H   LIG    1      174.058 177.661 170.217  0.00  0.00    +0.292 HD
ENDBRANCH  31  35
ENDBRANCH  27  28
BRANCH  18  20
ATOM     20  O   LIG    1      181.689 185.317 172.840  0.00  0.00    -0.507 OA
ATOM     21  H   LIG    1      181.756 185.598 173.769  0.00  0.00    +0.292 HD
ENDBRANCH  18  20
BRANCH  16  22
ATOM     22  O   LIG    1      184.095 181.233 173.098  0.00  0.00    -0.506 OA
ATOM     23  H   LIG    1      184.725 181.480 172.404  0.00  0.00    +0.292 HD
ENDBRANCH  16  22
BRANCH  13  12
ATOM     12  O   LIG    1      180.329 177.698 172.254  0.00  0.00    -0.453 OA
BRANCH  12   2
ATOM      1  O   LIG    1      178.991 176.619 170.673  0.00  0.00    -0.331 OA
ATOM      2  C   LIG    1      180.245 177.264 170.897  0.00  0.00    +0.340 C 
ATOM      3  C   LIG    1      181.409 176.306 170.637  0.00  0.00    +0.214 C 
ATOM      4  C   LIG    1      181.295 175.679 169.247  0.00  0.00    +0.180 C 
ATOM      5  C   LIG    1      179.903 175.088 169.024  0.00  0.00    +0.177 C 
ATOM     38  C   LIG    1      178.836 176.144 169.331  0.00  0.00    +0.179 C 
BRANCH   5   6
ATOM      6  O   LIG    1      179.713 173.968 169.892  0.00  0.00    -0.386 OA
ATOM      7  H   LIG    1      179.881 173.166 169.369  0.00  0.00    +0.210 HD
ENDBRANCH   5   6
BRANCH   4   8
ATOM      8  O   LIG    1      182.287 174.666 169.106  0.00  0.00    -0.386 OA
ATOM      9  H   LIG    1      183.056 174.936 169.636  0.00  0.00    +0.210 HD
ENDBRANCH   4   8
BRANCH   3  10
ATOM     10  O   LIG    1      182.630 177.041 170.721  0.00  0.00    -0.383 OA
ATOM     11  H   LIG    1      182.607 177.713 170.019  0.00  0.00    +0.210 HD
ENDBRANCH   3  10
BRANCH  38  39
ATOM     39  C   LIG    1      177.420 175.592 169.206  0.00  0.00    +0.190 C 
BRANCH  39  40
ATOM     40  O   LIG    1      176.971 175.202 170.491  0.00  0.00    -0.392 OA
ATOM     41  H   LIG    1      176.050 175.500 170.584  0.00  0.00    +0.210 HD
ENDBRANCH  39  40
ENDBRANCH  38  39
ENDBRANCH  12   2
ENDBRANCH  13  12
TORSDOF 12
