REMARK VINA RESULT:      -7.1      2.366      7.474
REMARK  Name = 5281643
REMARK                            x       y       z     vdW  Elec       q    Type
REMARK                         _______ _______ _______ _____ _____    ______ ____
ROOT
ATOM     13  C   LIG    1      182.894 184.828 172.426  0.00  0.00    +0.214 A 
ATOM     14  C   LIG    1      181.668 184.518 171.652  0.00  0.00    +0.238 A 
ATOM     15  C   LIG    1      181.113 183.167 171.822  0.00  0.00    +0.109 A 
ATOM     16  C   LIG    1      179.957 182.778 171.139  0.00  0.00    +0.135 A 
ATOM     17  C   LIG    1      179.454 181.489 171.316  0.00  0.00    +0.091 A 
ATOM     18  C   LIG    1      180.100 180.595 172.170  0.00  0.00    +0.124 A 
ATOM     19  C   LIG    1      181.254 180.987 172.850  0.00  0.00    +0.092 A 
ATOM     24  C   LIG    1      181.759 182.275 172.674  0.00  0.00    +0.147 A 
ATOM     25  O   LIG    1      182.895 182.601 173.367  0.00  0.00    -0.451 OA
ATOM     26  O   LIG    1      181.147 185.342 170.911  0.00  0.00    -0.283 OA
ATOM     27  C   LIG    1      183.415 183.877 173.223  0.00  0.00    +0.181 A 
ENDROOT
BRANCH  27  28
ATOM     28  C   LIG    1      184.636 184.095 174.020  0.00  0.00    +0.025 A 
ATOM     29  C   LIG    1      185.746 183.271 173.837  0.00  0.00    +0.015 A 
ATOM     30  C   LIG    1      186.901 183.477 174.592  0.00  0.00    +0.050 A 
ATOM     31  C   LIG    1      186.946 184.508 175.530  0.00  0.00    +0.158 A 
ATOM     32  C   LIG    1      185.835 185.333 175.714  0.00  0.00    +0.159 A 
ATOM     37  C   LIG    1      184.681 185.127 174.959  0.00  0.00    +0.060 A 
BRANCH  32  33
ATOM     33  O   LIG    1      185.868 186.343 176.627  0.00  0.00    -0.503 OA
ATOM     34  H   LIG    1      184.956 186.651 176.775  0.00  0.00    +0.292 HD
ENDBRANCH  32  33
BRANCH  31  35
ATOM     35  O   LIG    1      188.078 184.699 176.262  0.00  0.00    -0.503 OA
ATOM     36  H   LIG    1      187.838 185.092 177.120  0.00  0.00    +0.292 HD
ENDBRANCH  31  35
ENDBRANCH  27  28
BRANCH  18  20
ATOM     20  O   LIG    1      179.607 179.338 172.337  0.00  0.00    -0.507 OA
ATOM     21  H   LIG    1      179.172 179.281 173.205  0.00  0.00    +0.292 HD
ENDBRANCH  18  20
BRANCH  16  22
ATOM     22  O   LIG    1      179.288 183.611 170.294  0.00  0.00    -0.506 OA
ATOM     23  H   LIG    1      178.903 183.112 169.557  0.00  0.00    +0.292 HD
ENDBRANCH  16  22
BRANCH  13  12
ATOM     12  O   LIG    1      183.455 186.078 172.279  0.00  0.00    -0.453 OA
BRANCH  12   2
ATOM      1  O   LIG    1      185.701 185.993 171.645  0.00  0.00    -0.331 OA
ATOM      2  C   LIG    1      184.359 186.121 171.175  0.00  0.00    +0.340 C 
ATOM      3  C   LIG    1      184.156 187.454 170.453  0.00  0.00    +0.214 C 
ATOM      4  C   LIG    1      185.199 187.638 169.351  0.00  0.00    +0.180 C 
ATOM      5  C   LIG    1      186.611 187.395 169.884  0.00  0.00    +0.177 C 
ATOM     38  C   LIG    1      186.672 186.038 170.593  0.00  0.00    +0.179 C 
BRANCH   5   6
ATOM      6  O   LIG    1      186.953 188.423 170.817  0.00  0.00    -0.386 OA
ATOM      7  H   LIG    1      187.901 188.332 171.012  0.00  0.00    +0.210 HD
ENDBRANCH   5   6
BRANCH   4   8
ATOM      8  O   LIG    1      185.094 188.956 168.820  0.00  0.00    -0.386 OA
ATOM      9  H   LIG    1      184.800 189.538 169.541  0.00  0.00    +0.210 HD
ENDBRANCH   4   8
BRANCH   3  10
ATOM     10  O   LIG    1      182.852 187.461 169.871  0.00  0.00    -0.383 OA
ATOM     11  H   LIG    1      182.324 188.112 170.365  0.00  0.00    +0.210 HD
ENDBRANCH   3  10
BRANCH  38  39
ATOM     39  C   LIG    1      188.035 185.771 171.221  0.00  0.00    +0.190 C 
BRANCH  39  40
ATOM     40  O   LIG    1      189.039 186.228 170.332  0.00  0.00    -0.392 OA
ATOM     41  H   LIG    1      189.622 186.827 170.830  0.00  0.00    +0.210 HD
ENDBRANCH  39  40
ENDBRANCH  38  39
ENDBRANCH  12   2
ENDBRANCH  13  12
TORSDOF 12
