MODEL 1
REMARK VINA RESULT:      -4.6      0.000      0.000
REMARK  6 active torsions:
REMARK  status: ('A' for Active; 'I' for Inactive)
REMARK    1  A    between atoms: O_2  and  C_12 
REMARK    2  A    between atoms: O_3  and  C_14 
REMARK    3  A    between atoms: O_5  and  C_16 
REMARK    4  A    between atoms: O_6  and  C_20 
REMARK    5  A    between atoms: O_7  and  C_22 
REMARK    6  A    between atoms: C_10  and  C_11 
ROOT
HETATM    1  O   UNK     0      -1.053   4.080   8.108  0.00  0.00    -0.306 OA
HETATM    2  O   UNK     0       1.955   2.237  10.148  0.00  0.00    -0.284 OA
HETATM    3  C   UNK     0       0.275   3.893  10.130  0.00  0.00     0.084 A 
HETATM    4  C   UNK     0      -0.741   4.482   9.380  0.00  0.00     0.096 A 
HETATM    5  C   UNK     0      -0.336   3.033   7.549  0.00  0.00     0.123 A 
HETATM    6  C   UNK     0       0.672   2.386   8.163  0.00  0.00     0.152 A 
HETATM    7  C   UNK     0       1.048   2.790   9.539  0.00  0.00     0.223 A 
HETATM    8  C   UNK     0       0.550   4.346  11.423  0.00  0.00     0.085 A 
HETATM    9  C   UNK     0      -1.487   5.532   9.918  0.00  0.00     0.075 A 
HETATM   10  C   UNK     0      -1.215   5.986  11.209  0.00  0.00     0.071 A 
HETATM   11  C   UNK     0      -0.198   5.394  11.959  0.00  0.00     0.074 A 
ENDROOT
BRANCH   5  12
HETATM   12  C   UNK     0      -0.772   2.702   6.181  0.00  0.00     0.004 A 
HETATM   13  C   UNK     0      -1.498   1.535   5.944  0.00  0.00     0.053 A 
HETATM   14  C   UNK     0      -1.911   1.222   4.648  0.00  0.00     0.099 A 
HETATM   15  C   UNK     0      -1.598   2.077   3.591  0.00  0.00     0.098 A 
HETATM   16  C   UNK     0      -0.872   3.244   3.829  0.00  0.00     0.040 A 
HETATM   17  C   UNK     0      -0.459   3.557   5.124  0.00  0.00     0.017 A 
BRANCH  14  18
HETATM   18  O   UNK     0      -2.618   0.079   4.427  0.00  0.00    -0.358 OA
HETATM   19  H   UNK     0      -3.337   0.007   5.076  0.00  0.00     0.217 HD
ENDBRANCH  14  18
BRANCH  15  20
HETATM   20  O   UNK     0      -1.998   1.783   2.322  0.00  0.00    -0.358 OA
HETATM   21  H   UNK     0      -2.327   0.871   2.285  0.00  0.00     0.217 HD
ENDBRANCH  15  20
ENDBRANCH   5  12
BRANCH   6  22
HETATM   22  O   UNK     0       1.387   1.370   7.568  0.00  0.00    -0.355 OA
HETATM   23  H   UNK     0       1.503   1.558   6.622  0.00  0.00     0.218 HD
ENDBRANCH   6  22
BRANCH   8  24
HETATM   24  O   UNK     0       1.531   3.804  12.199  0.00  0.00    -0.360 OA
HETATM   25  H   UNK     0       1.238   3.736  13.120  0.00  0.00     0.217 HD
ENDBRANCH   8  24
BRANCH  10  26
HETATM   26  O   UNK     0      -1.943   7.009  11.735  0.00  0.00    -0.361 OA
HETATM   27  H   UNK     0      -2.107   6.827  12.676  0.00  0.00     0.217 HD
ENDBRANCH  10  26
TORSDOF 6
ENDMDL
MODEL 2
REMARK VINA RESULT:      -4.6      3.603      6.903
REMARK  6 active torsions:
REMARK  status: ('A' for Active; 'I' for Inactive)
REMARK    1  A    between atoms: O_2  and  C_12 
REMARK    2  A    between atoms: O_3  and  C_14 
REMARK    3  A    between atoms: O_5  and  C_16 
REMARK    4  A    between atoms: O_6  and  C_20 
REMARK    5  A    between atoms: O_7  and  C_22 
REMARK    6  A    between atoms: C_10  and  C_11 
ROOT
HETATM    1  O   UNK     0      -1.740   4.513   4.551  0.00  0.00    -0.306 OA
HETATM    2  O   UNK     0      -3.520   2.034   1.852  0.00  0.00    -0.284 OA
HETATM    3  C   UNK     0      -3.528   4.116   2.960  0.00  0.00     0.084 A 
HETATM    4  C   UNK     0      -2.873   4.916   3.894  0.00  0.00     0.096 A 
HETATM    5  C   UNK     0      -1.216   3.263   4.263  0.00  0.00     0.123 A 
HETATM    6  C   UNK     0      -1.756   2.393   3.389  0.00  0.00     0.152 A 
HETATM    7  C   UNK     0      -2.986   2.783   2.659  0.00  0.00     0.223 A 
HETATM    8  C   UNK     0      -4.682   4.579   2.322  0.00  0.00     0.085 A 
HETATM    9  C   UNK     0      -3.370   6.184   4.199  0.00  0.00     0.075 A 
HETATM   10  C   UNK     0      -4.522   6.648   3.563  0.00  0.00     0.071 A 
HETATM   11  C   UNK     0      -5.176   5.847   2.627  0.00  0.00     0.074 A 
ENDROOT
BRANCH   5  12
HETATM   12  C   UNK     0       0.000   2.956   5.036  0.00  0.00     0.004 A 
HETATM   13  C   UNK     0      -0.090   2.215   6.214  0.00  0.00     0.053 A 
HETATM   14  C   UNK     0       1.062   1.924   6.945  0.00  0.00     0.099 A 
HETATM   15  C   UNK     0       2.305   2.376   6.498  0.00  0.00     0.098 A 
HETATM   16  C   UNK     0       2.395   3.116   5.320  0.00  0.00     0.040 A 
HETATM   17  C   UNK     0       1.243   3.407   4.588  0.00  0.00     0.017 A 
BRANCH  14  18
HETATM   18  O   UNK     0       0.963   1.202   8.095  0.00  0.00    -0.358 OA
HETATM   19  H   UNK     0       0.777   1.795   8.841  0.00  0.00     0.217 HD
ENDBRANCH  14  18
BRANCH  15  20
HETATM   20  O   UNK     0       3.437   2.096   7.203  0.00  0.00    -0.358 OA
HETATM   21  H   UNK     0       3.439   1.162   7.463  0.00  0.00     0.217 HD
ENDBRANCH  15  20
ENDBRANCH   5  12
BRANCH   6  22
HETATM   22  O   UNK     0      -1.228   1.142   3.149  0.00  0.00    -0.355 OA
HETATM   23  H   UNK     0      -0.260   1.174   3.215  0.00  0.00     0.218 HD
ENDBRANCH   6  22
BRANCH   8  24
HETATM   24  O   UNK     0      -5.360   3.838   1.401  0.00  0.00    -0.360 OA
HETATM   25  H   UNK     0      -4.793   3.137   1.045  0.00  0.00     0.217 HD
ENDBRANCH   8  24
BRANCH  10  26
HETATM   26  O   UNK     0      -5.007   7.886   3.859  0.00  0.00    -0.361 OA
HETATM   27  H   UNK     0      -5.832   8.027   3.363  0.00  0.00     0.217 HD
ENDBRANCH  10  26
TORSDOF 6
ENDMDL
MODEL 3
REMARK VINA RESULT:      -4.6      1.527      1.965
REMARK  6 active torsions:
REMARK  status: ('A' for Active; 'I' for Inactive)
REMARK    1  A    between atoms: O_2  and  C_12 
REMARK    2  A    between atoms: O_3  and  C_14 
REMARK    3  A    between atoms: O_5  and  C_16 
REMARK    4  A    between atoms: O_6  and  C_20 
REMARK    5  A    between atoms: O_7  and  C_22 
REMARK    6  A    between atoms: C_10  and  C_11 
ROOT
HETATM    1  O   UNK     0      -0.216   3.190   7.892  0.00  0.00    -0.306 OA
HETATM    2  O   UNK     0       3.844   2.872   7.759  0.00  0.00    -0.284 OA
HETATM    3  C   UNK     0       1.917   3.322   9.042  0.00  0.00     0.084 A 
HETATM    4  C   UNK     0       0.527   3.415   9.021  0.00  0.00     0.096 A 
HETATM    5  C   UNK     0       0.443   2.840   6.724  0.00  0.00     0.123 A 
HETATM    6  C   UNK     0       1.779   2.724   6.609  0.00  0.00     0.152 A 
HETATM    7  C   UNK     0       2.624   2.964   7.803  0.00  0.00     0.223 A 
HETATM    8  C   UNK     0       2.622   3.564  10.223  0.00  0.00     0.085 A 
HETATM    9  C   UNK     0      -0.167   3.755  10.184  0.00  0.00     0.075 A 
HETATM   10  C   UNK     0       0.535   3.998  11.365  0.00  0.00     0.071 A 
HETATM   11  C   UNK     0       1.926   3.902  11.384  0.00  0.00     0.074 A 
ENDROOT
BRANCH   5  12
HETATM   12  C   UNK     0      -0.471   2.626   5.589  0.00  0.00     0.004 A 
HETATM   13  C   UNK     0      -1.227   1.457   5.513  0.00  0.00     0.053 A 
HETATM   14  C   UNK     0      -2.093   1.255   4.438  0.00  0.00     0.099 A 
HETATM   15  C   UNK     0      -2.202   2.223   3.439  0.00  0.00     0.098 A 
HETATM   16  C   UNK     0      -1.447   3.392   3.515  0.00  0.00     0.040 A 
HETATM   17  C   UNK     0      -0.581   3.595   4.590  0.00  0.00     0.017 A 
BRANCH  14  18
HETATM   18  O   UNK     0      -2.825   0.108   4.372  0.00  0.00    -0.358 OA
HETATM   19  H   UNK     0      -2.738  -0.287   3.490  0.00  0.00     0.217 HD
ENDBRANCH  14  18
BRANCH  15  20
HETATM   20  O   UNK     0      -3.046   2.037   2.385  0.00  0.00    -0.358 OA
HETATM   21  H   UNK     0      -2.995   1.117   2.082  0.00  0.00     0.217 HD
ENDBRANCH  15  20
ENDBRANCH   5  12
BRANCH   6  22
HETATM   22  O   UNK     0       2.407   2.407   5.424  0.00  0.00    -0.355 OA
HETATM   23  H   UNK     0       3.370   2.405   5.551  0.00  0.00     0.218 HD
ENDBRANCH   6  22
BRANCH   8  24
HETATM   24  O   UNK     0       3.981   3.486  10.297  0.00  0.00    -0.360 OA
HETATM   25  H   UNK     0       4.255   3.121  11.152  0.00  0.00     0.217 HD
ENDBRANCH   8  24
BRANCH  10  26
HETATM   26  O   UNK     0      -0.141   4.329  12.500  0.00  0.00    -0.361 OA
HETATM   27  H   UNK     0      -1.057   4.008  12.425  0.00  0.00     0.217 HD
ENDBRANCH  10  26
TORSDOF 6
ENDMDL
MODEL 4
REMARK VINA RESULT:      -4.5      1.830      2.848
REMARK  6 active torsions:
REMARK  status: ('A' for Active; 'I' for Inactive)
REMARK    1  A    between atoms: O_2  and  C_12 
REMARK    2  A    between atoms: O_3  and  C_14 
REMARK    3  A    between atoms: O_5  and  C_16 
REMARK    4  A    between atoms: O_6  and  C_20 
REMARK    5  A    between atoms: O_7  and  C_22 
REMARK    6  A    between atoms: C_10  and  C_11 
ROOT
HETATM    1  O   UNK     0      -1.357   4.088   6.153  0.00  0.00    -0.306 OA
HETATM    2  O   UNK     0       1.659   1.466   6.953  0.00  0.00    -0.284 OA
HETATM    3  C   UNK     0       0.064   2.991   7.787  0.00  0.00     0.084 A 
HETATM    4  C   UNK     0      -0.959   3.875   7.447  0.00  0.00     0.096 A 
HETATM    5  C   UNK     0      -0.723   3.384   5.141  0.00  0.00     0.123 A 
HETATM    6  C   UNK     0       0.282   2.510   5.333  0.00  0.00     0.152 A 
HETATM    7  C   UNK     0       0.750   2.251   6.716  0.00  0.00     0.223 A 
HETATM    8  C   UNK     0       0.428   2.815   9.124  0.00  0.00     0.085 A 
HETATM    9  C   UNK     0      -1.623   4.590   8.444  0.00  0.00     0.075 A 
HETATM   10  C   UNK     0      -1.261   4.416   9.780  0.00  0.00     0.071 A 
HETATM   11  C   UNK     0      -0.238   3.531  10.119  0.00  0.00     0.074 A 
ENDROOT
BRANCH   5  12
HETATM   12  C   UNK     0      -1.246   3.706   3.801  0.00  0.00     0.004 A 
HETATM   13  C   UNK     0      -2.184   2.868   3.198  0.00  0.00     0.053 A 
HETATM   14  C   UNK     0      -2.679   3.173   1.930  0.00  0.00     0.099 A 
HETATM   15  C   UNK     0      -2.236   4.317   1.266  0.00  0.00     0.098 A 
HETATM   16  C   UNK     0      -1.299   5.156   1.869  0.00  0.00     0.040 A 
HETATM   17  C   UNK     0      -0.803   4.850   3.137  0.00  0.00     0.017 A 
BRANCH  14  18
HETATM   18  O   UNK     0      -3.592   2.347   1.350  0.00  0.00    -0.358 OA
HETATM   19  H   UNK     0      -3.221   1.454   1.267  0.00  0.00     0.217 HD
ENDBRANCH  14  18
BRANCH  15  20
HETATM   20  O   UNK     0      -2.714   4.627   0.028  0.00  0.00    -0.358 OA
HETATM   21  H   UNK     0      -2.354   5.481  -0.258  0.00  0.00     0.217 HD
ENDBRANCH  15  20
ENDBRANCH   5  12
BRANCH   6  22
HETATM   22  O   UNK     0       0.914   1.851   4.302  0.00  0.00    -0.355 OA
HETATM   23  H   UNK     0       0.292   1.246   3.866  0.00  0.00     0.218 HD
ENDBRANCH   6  22
BRANCH   8  24
HETATM   24  O   UNK     0       1.421   1.965   9.509  0.00  0.00    -0.360 OA
HETATM   25  H   UNK     0       1.069   1.273  10.090  0.00  0.00     0.217 HD
ENDBRANCH   8  24
BRANCH  10  26
HETATM   26  O   UNK     0      -1.909   5.114  10.754  0.00  0.00    -0.361 OA
HETATM   27  H   UNK     0      -1.385   5.072  11.573  0.00  0.00     0.217 HD
ENDBRANCH  10  26
TORSDOF 6
ENDMDL
MODEL 5
REMARK VINA RESULT:      -4.4      2.351      4.008
REMARK  6 active torsions:
REMARK  status: ('A' for Active; 'I' for Inactive)
REMARK    1  A    between atoms: O_2  and  C_12 
REMARK    2  A    between atoms: O_3  and  C_14 
REMARK    3  A    between atoms: O_5  and  C_16 
REMARK    4  A    between atoms: O_6  and  C_20 
REMARK    5  A    between atoms: O_7  and  C_22 
REMARK    6  A    between atoms: C_10  and  C_11 
ROOT
HETATM    1  O   UNK     0       1.892   2.786   6.188  0.00  0.00    -0.306 OA
HETATM    2  O   UNK     0       0.954   3.986   9.967  0.00  0.00    -0.284 OA
HETATM    3  C   UNK     0       2.633   3.421   8.410  0.00  0.00     0.084 A 
HETATM    4  C   UNK     0       2.887   3.009   7.103  0.00  0.00     0.096 A 
HETATM    5  C   UNK     0       0.578   2.993   6.575  0.00  0.00     0.123 A 
HETATM    6  C   UNK     0       0.197   3.382   7.806  0.00  0.00     0.152 A 
HETATM    7  C   UNK     0       1.239   3.629   8.832  0.00  0.00     0.223 A 
HETATM    8  C   UNK     0       3.688   3.631   9.301  0.00  0.00     0.085 A 
HETATM    9  C   UNK     0       4.201   2.802   6.680  0.00  0.00     0.075 A 
HETATM   10  C   UNK     0       5.257   3.011   7.568  0.00  0.00     0.071 A 
HETATM   11  C   UNK     0       5.000   3.424   8.875  0.00  0.00     0.074 A 
ENDROOT
BRANCH   5  12
HETATM   12  C   UNK     0      -0.390   2.719   5.498  0.00  0.00     0.004 A 
HETATM   13  C   UNK     0      -1.105   1.522   5.490  0.00  0.00     0.053 A 
HETATM   14  C   UNK     0      -2.021   1.263   4.470  0.00  0.00     0.099 A 
HETATM   15  C   UNK     0      -2.221   2.203   3.458  0.00  0.00     0.098 A 
HETATM   16  C   UNK     0      -1.507   3.400   3.466  0.00  0.00     0.040 A 
HETATM   17  C   UNK     0      -0.591   3.659   4.486  0.00  0.00     0.017 A 
BRANCH  14  18
HETATM   18  O   UNK     0      -2.712   0.090   4.471  0.00  0.00    -0.358 OA
HETATM   19  H   UNK     0      -2.469  -0.435   3.691  0.00  0.00     0.217 HD
ENDBRANCH  14  18
BRANCH  15  20
HETATM   20  O   UNK     0      -3.115   1.962   2.458  0.00  0.00    -0.358 OA
HETATM   21  H   UNK     0      -3.539   1.101   2.597  0.00  0.00     0.217 HD
ENDBRANCH  15  20
ENDBRANCH   5  12
BRANCH   6  22
HETATM   22  O   UNK     0      -1.122   3.547   8.170  0.00  0.00    -0.355 OA
HETATM   23  H   UNK     0      -1.176   4.068   8.987  0.00  0.00     0.218 HD
ENDBRANCH   6  22
BRANCH   8  24
HETATM   24  O   UNK     0       3.494   4.033  10.589  0.00  0.00    -0.360 OA
HETATM   25  H   UNK     0       2.999   3.363  11.084  0.00  0.00     0.217 HD
ENDBRANCH   8  24
BRANCH  10  26
HETATM   26  O   UNK     0       6.539   2.810   7.156  0.00  0.00    -0.361 OA
HETATM   27  H   UNK     0       6.536   2.610   6.204  0.00  0.00     0.217 HD
ENDBRANCH  10  26
TORSDOF 6
ENDMDL
MODEL 6
REMARK VINA RESULT:      -4.4      8.694      9.178
REMARK  6 active torsions:
REMARK  status: ('A' for Active; 'I' for Inactive)
REMARK    1  A    between atoms: O_2  and  C_12 
REMARK    2  A    between atoms: O_3  and  C_14 
REMARK    3  A    between atoms: O_5  and  C_16 
REMARK    4  A    between atoms: O_6  and  C_20 
REMARK    5  A    between atoms: O_7  and  C_22 
REMARK    6  A    between atoms: C_10  and  C_11 
ROOT
HETATM    1  O   UNK     0      -3.837  -4.601   8.923  0.00  0.00    -0.306 OA
HETATM    2  O   UNK     0      -1.806  -5.504  12.339  0.00  0.00    -0.284 OA
HETATM    3  C   UNK     0      -3.600  -4.356  11.326  0.00  0.00     0.084 A 
HETATM    4  C   UNK     0      -4.250  -4.085  10.123  0.00  0.00     0.096 A 
HETATM    5  C   UNK     0      -2.733  -5.439   8.908  0.00  0.00     0.123 A 
HETATM    6  C   UNK     0      -2.013  -5.773   9.995  0.00  0.00     0.152 A 
HETATM    7  C   UNK     0      -2.420  -5.234  11.315  0.00  0.00     0.223 A 
HETATM    8  C   UNK     0      -4.066  -3.800  12.520  0.00  0.00     0.085 A 
HETATM    9  C   UNK     0      -5.370  -3.253  10.108  0.00  0.00     0.075 A 
HETATM   10  C   UNK     0      -5.838  -2.697  11.298  0.00  0.00     0.071 A 
HETATM   11  C   UNK     0      -5.187  -2.970  12.501  0.00  0.00     0.074 A 
ENDROOT
BRANCH   5  12
HETATM   12  C   UNK     0      -2.397  -5.924   7.557  0.00  0.00     0.004 A 
HETATM   13  C   UNK     0      -2.937  -7.122   7.091  0.00  0.00     0.053 A 
HETATM   14  C   UNK     0      -2.619  -7.580   5.812  0.00  0.00     0.099 A 
HETATM   15  C   UNK     0      -1.760  -6.839   5.000  0.00  0.00     0.098 A 
HETATM   16  C   UNK     0      -1.221  -5.640   5.466  0.00  0.00     0.040 A 
HETATM   17  C   UNK     0      -1.539  -5.182   6.744  0.00  0.00     0.017 A 
BRANCH  14  18
HETATM   18  O   UNK     0      -3.150  -8.753   5.368  0.00  0.00    -0.358 OA
HETATM   19  H   UNK     0      -3.659  -9.173   6.080  0.00  0.00     0.217 HD
ENDBRANCH  14  18
BRANCH  15  20
HETATM   20  O   UNK     0      -1.444  -7.275   3.748  0.00  0.00    -0.358 OA
HETATM   21  H   UNK     0      -2.246  -7.580   3.295  0.00  0.00     0.217 HD
ENDBRANCH  15  20
ENDBRANCH   5  12
BRANCH   6  22
HETATM   22  O   UNK     0      -0.900  -6.583   9.941  0.00  0.00    -0.355 OA
HETATM   23  H   UNK     0      -1.114  -7.408   9.475  0.00  0.00     0.218 HD
ENDBRANCH   6  22
BRANCH   8  24
HETATM   24  O   UNK     0      -3.468  -4.033  13.722  0.00  0.00    -0.360 OA
HETATM   25  H   UNK     0      -2.980  -4.870  13.702  0.00  0.00     0.217 HD
ENDBRANCH   8  24
BRANCH  10  26
HETATM   26  O   UNK     0      -6.932  -1.885  11.284  0.00  0.00    -0.361 OA
HETATM   27  H   UNK     0      -7.397  -1.969  12.135  0.00  0.00     0.217 HD
ENDBRANCH  10  26
TORSDOF 6
ENDMDL
MODEL 7
REMARK VINA RESULT:      -4.3      8.548      9.191
REMARK  6 active torsions:
REMARK  status: ('A' for Active; 'I' for Inactive)
REMARK    1  A    between atoms: O_2  and  C_12 
REMARK    2  A    between atoms: O_3  and  C_14 
REMARK    3  A    between atoms: O_5  and  C_16 
REMARK    4  A    between atoms: O_6  and  C_20 
REMARK    5  A    between atoms: O_7  and  C_22 
REMARK    6  A    between atoms: C_10  and  C_11 
ROOT
HETATM    1  O   UNK     0      -4.002  -4.466   9.426  0.00  0.00    -0.306 OA
HETATM    2  O   UNK     0      -2.373  -5.070  13.112  0.00  0.00    -0.284 OA
HETATM    3  C   UNK     0      -4.065  -4.058  11.817  0.00  0.00     0.084 A 
HETATM    4  C   UNK     0      -4.572  -3.890  10.530  0.00  0.00     0.096 A 
HETATM    5  C   UNK     0      -2.880  -5.262   9.599  0.00  0.00     0.123 A 
HETATM    6  C   UNK     0      -2.288  -5.498  10.785  0.00  0.00     0.152 A 
HETATM    7  C   UNK     0      -2.867  -4.890  12.007  0.00  0.00     0.223 A 
HETATM    8  C   UNK     0      -4.689  -3.444  12.907  0.00  0.00     0.085 A 
HETATM    9  C   UNK     0      -5.706  -3.103  10.325  0.00  0.00     0.075 A 
HETATM   10  C   UNK     0      -6.331  -2.489  11.410  0.00  0.00     0.071 A 
HETATM   11  C   UNK     0      -5.823  -2.660  12.698  0.00  0.00     0.074 A 
ENDROOT
BRANCH   5  12
HETATM   12  C   UNK     0      -2.368  -5.819   8.335  0.00  0.00     0.004 A 
HETATM   13  C   UNK     0      -1.994  -4.966   7.297  0.00  0.00     0.053 A 
HETATM   14  C   UNK     0      -1.509  -5.494   6.100  0.00  0.00     0.099 A 
HETATM   15  C   UNK     0      -1.400  -6.876   5.941  0.00  0.00     0.098 A 
HETATM   16  C   UNK     0      -1.774  -7.729   6.979  0.00  0.00     0.040 A 
HETATM   17  C   UNK     0      -2.258  -7.201   8.176  0.00  0.00     0.017 A 
BRANCH  14  18
HETATM   18  O   UNK     0      -1.149  -4.652   5.092  0.00  0.00    -0.358 OA
HETATM   19  H   UNK     0      -0.207  -4.771   4.886  0.00  0.00     0.217 HD
ENDBRANCH  14  18
BRANCH  15  20
HETATM   20  O   UNK     0      -0.926  -7.403   4.778  0.00  0.00    -0.358 OA
HETATM   21  H   UNK     0      -1.404  -8.222   4.571  0.00  0.00     0.217 HD
ENDBRANCH  15  20
ENDBRANCH   5  12
BRANCH   6  22
HETATM   22  O   UNK     0      -1.153  -6.267  10.919  0.00  0.00    -0.355 OA
HETATM   23  H   UNK     0      -0.378  -5.769  10.612  0.00  0.00     0.218 HD
ENDBRANCH   6  22
BRANCH   8  24
HETATM   24  O   UNK     0      -4.233  -3.577  14.184  0.00  0.00    -0.360 OA
HETATM   25  H   UNK     0      -4.557  -2.851  14.738  0.00  0.00     0.217 HD
ENDBRANCH   8  24
BRANCH  10  26
HETATM   26  O   UNK     0      -7.438  -1.722  11.211  0.00  0.00    -0.361 OA
HETATM   27  H   UNK     0      -8.155  -2.286  10.873  0.00  0.00     0.217 HD
ENDBRANCH  10  26
TORSDOF 6
ENDMDL
MODEL 8
REMARK VINA RESULT:      -4.3      2.096      6.976
REMARK  6 active torsions:
REMARK  status: ('A' for Active; 'I' for Inactive)
REMARK    1  A    between atoms: O_2  and  C_12 
REMARK    2  A    between atoms: O_3  and  C_14 
REMARK    3  A    between atoms: O_5  and  C_16 
REMARK    4  A    between atoms: O_6  and  C_20 
REMARK    5  A    between atoms: O_7  and  C_22 
REMARK    6  A    between atoms: C_10  and  C_11 
ROOT
HETATM    1  O   UNK     0      -1.632   4.563   5.443  0.00  0.00    -0.306 OA
HETATM    2  O   UNK     0      -1.575   1.054   3.373  0.00  0.00    -0.284 OA
HETATM    3  C   UNK     0      -1.989   3.375   3.357  0.00  0.00     0.084 A 
HETATM    4  C   UNK     0      -1.989   4.541   4.120  0.00  0.00     0.096 A 
HETATM    5  C   UNK     0      -1.243   3.376   6.043  0.00  0.00     0.123 A 
HETATM    6  C   UNK     0      -1.207   2.183   5.422  0.00  0.00     0.152 A 
HETATM    7  C   UNK     0      -1.589   2.110   3.991  0.00  0.00     0.223 A 
HETATM    8  C   UNK     0      -2.363   3.413   2.011  0.00  0.00     0.085 A 
HETATM    9  C   UNK     0      -2.366   5.754   3.541  0.00  0.00     0.075 A 
HETATM   10  C   UNK     0      -2.741   5.795   2.198  0.00  0.00     0.071 A 
HETATM   11  C   UNK     0      -2.739   4.627   1.435  0.00  0.00     0.074 A 
ENDROOT
BRANCH   5  12
HETATM   12  C   UNK     0      -0.886   3.540   7.463  0.00  0.00     0.004 A 
HETATM   13  C   UNK     0       0.125   2.759   8.023  0.00  0.00     0.053 A 
HETATM   14  C   UNK     0       0.463   2.915   9.368  0.00  0.00     0.099 A 
HETATM   15  C   UNK     0      -0.211   3.851  10.153  0.00  0.00     0.098 A 
HETATM   16  C   UNK     0      -1.222   4.632   9.592  0.00  0.00     0.040 A 
HETATM   17  C   UNK     0      -1.559   4.477   8.248  0.00  0.00     0.017 A 
BRANCH  14  18
HETATM   18  O   UNK     0       1.450   2.146   9.905  0.00  0.00    -0.358 OA
HETATM   19  H   UNK     0       1.159   1.786  10.759  0.00  0.00     0.217 HD
ENDBRANCH  14  18
BRANCH  15  20
HETATM   20  O   UNK     0       0.111   4.014  11.466  0.00  0.00    -0.358 OA
HETATM   21  H   UNK     0       1.044   4.268  11.546  0.00  0.00     0.217 HD
ENDBRANCH  15  20
ENDBRANCH   5  12
BRANCH   6  22
HETATM   22  O   UNK     0      -0.846   1.014   6.057  0.00  0.00    -0.355 OA
HETATM   23  H   UNK     0       0.093   0.826   5.893  0.00  0.00     0.218 HD
ENDBRANCH   6  22
BRANCH   8  24
HETATM   24  O   UNK     0      -2.381   2.303   1.222  0.00  0.00    -0.360 OA
HETATM   25  H   UNK     0      -1.763   2.402   0.481  0.00  0.00     0.217 HD
ENDBRANCH   8  24
BRANCH  10  26
HETATM   26  O   UNK     0      -3.109   6.978   1.632  0.00  0.00    -0.361 OA
HETATM   27  H   UNK     0      -2.416   7.639   1.806  0.00  0.00     0.217 HD
ENDBRANCH  10  26
TORSDOF 6
ENDMDL
MODEL 9
REMARK VINA RESULT:      -4.2      8.817     12.225
REMARK  6 active torsions:
REMARK  status: ('A' for Active; 'I' for Inactive)
REMARK    1  A    between atoms: O_2  and  C_12 
REMARK    2  A    between atoms: O_3  and  C_14 
REMARK    3  A    between atoms: O_5  and  C_16 
REMARK    4  A    between atoms: O_6  and  C_20 
REMARK    5  A    between atoms: O_7  and  C_22 
REMARK    6  A    between atoms: C_10  and  C_11 
ROOT
HETATM    1  O   UNK     0      -1.772  -7.625   7.843  0.00  0.00    -0.306 OA
HETATM    2  O   UNK     0      -1.165  -5.326   4.533  0.00  0.00    -0.284 OA
HETATM    3  C   UNK     0      -0.970  -7.440   5.560  0.00  0.00     0.084 A 
HETATM    4  C   UNK     0      -1.203  -8.172   6.723  0.00  0.00     0.096 A 
HETATM    5  C   UNK     0      -2.144  -6.289   7.812  0.00  0.00     0.123 A 
HETATM    6  C   UNK     0      -1.967  -5.473   6.757  0.00  0.00     0.152 A 
HETATM    7  C   UNK     0      -1.350  -6.020   5.524  0.00  0.00     0.223 A 
HETATM    8  C   UNK     0      -0.385  -8.052   4.448  0.00  0.00     0.085 A 
HETATM    9  C   UNK     0      -0.849  -9.520   6.782  0.00  0.00     0.075 A 
HETATM   10  C   UNK     0      -0.265 -10.133   5.673  0.00  0.00     0.071 A 
HETATM   11  C   UNK     0      -0.033  -9.400   4.509  0.00  0.00     0.074 A 
ENDROOT
BRANCH   5  12
HETATM   12  C   UNK     0      -2.742  -5.829   9.077  0.00  0.00     0.004 A 
HETATM   13  C   UNK     0      -1.949  -5.201  10.037  0.00  0.00     0.053 A 
HETATM   14  C   UNK     0      -2.516  -4.765  11.234  0.00  0.00     0.099 A 
HETATM   15  C   UNK     0      -3.877  -4.957  11.472  0.00  0.00     0.098 A 
HETATM   16  C   UNK     0      -4.671  -5.585  10.512  0.00  0.00     0.040 A 
HETATM   17  C   UNK     0      -4.104  -6.021   9.315  0.00  0.00     0.017 A 
BRANCH  14  18
HETATM   18  O   UNK     0      -1.731  -4.155  12.165  0.00  0.00    -0.358 OA
HETATM   19  H   UNK     0      -2.173  -3.354  12.493  0.00  0.00     0.217 HD
ENDBRANCH  14  18
BRANCH  15  20
HETATM   20  O   UNK     0      -4.443  -4.534  12.637  0.00  0.00    -0.358 OA
HETATM   21  H   UNK     0      -4.407  -3.566  12.686  0.00  0.00     0.217 HD
ENDBRANCH  15  20
ENDBRANCH   5  12
BRANCH   6  22
HETATM   22  O   UNK     0      -2.317  -4.140   6.769  0.00  0.00    -0.355 OA
HETATM   23  H   UNK     0      -2.347  -3.798   5.861  0.00  0.00     0.218 HD
ENDBRANCH   6  22
BRANCH   8  24
HETATM   24  O   UNK     0      -0.136  -7.382   3.288  0.00  0.00    -0.360 OA
HETATM   25  H   UNK     0      -0.761  -7.652   2.598  0.00  0.00     0.217 HD
ENDBRANCH   8  24
BRANCH  10  26
HETATM   26  O   UNK     0       0.080 -11.450   5.729  0.00  0.00    -0.361 OA
HETATM   27  H   UNK     0       0.964 -11.527   6.128  0.00  0.00     0.217 HD
ENDBRANCH  10  26
TORSDOF 6
ENDMDL
MODEL 10
REMARK VINA RESULT:      -4.2      8.452      9.397
REMARK  6 active torsions:
REMARK  status: ('A' for Active; 'I' for Inactive)
REMARK    1  A    between atoms: O_2  and  C_12 
REMARK    2  A    between atoms: O_3  and  C_14 
REMARK    3  A    between atoms: O_5  and  C_16 
REMARK    4  A    between atoms: O_6  and  C_20 
REMARK    5  A    between atoms: O_7  and  C_22 
REMARK    6  A    between atoms: C_10  and  C_11 
ROOT
HETATM    1  O   UNK     0      -2.002  -5.008  10.695  0.00  0.00    -0.306 OA
HETATM    2  O   UNK     0      -5.903  -4.010  11.319  0.00  0.00    -0.284 OA
HETATM    3  C   UNK     0      -3.709  -4.125  12.176  0.00  0.00     0.084 A 
HETATM    4  C   UNK     0      -2.392  -4.488  11.901  0.00  0.00     0.096 A 
HETATM    5  C   UNK     0      -2.957  -5.168   9.703  0.00  0.00     0.123 A 
HETATM    6  C   UNK     0      -4.261  -4.866   9.843  0.00  0.00     0.152 A 
HETATM    7  C   UNK     0      -4.730  -4.305  11.133  0.00  0.00     0.223 A 
HETATM    8  C   UNK     0      -4.049  -3.600  13.426  0.00  0.00     0.085 A 
HETATM    9  C   UNK     0      -1.406  -4.329  12.875  0.00  0.00     0.075 A 
HETATM   10  C   UNK     0      -1.743  -3.805  14.124  0.00  0.00     0.071 A 
HETATM   11  C   UNK     0      -3.062  -3.442  14.398  0.00  0.00     0.074 A 
ENDROOT
BRANCH   5  12
HETATM   12  C   UNK     0      -2.406  -5.735   8.459  0.00  0.00     0.004 A 
HETATM   13  C   UNK     0      -2.050  -4.893   7.406  0.00  0.00     0.053 A 
HETATM   14  C   UNK     0      -1.527  -5.431   6.229  0.00  0.00     0.099 A 
HETATM   15  C   UNK     0      -1.361  -6.810   6.106  0.00  0.00     0.098 A 
HETATM   16  C   UNK     0      -1.716  -7.652   7.160  0.00  0.00     0.040 A 
HETATM   17  C   UNK     0      -2.239  -7.115   8.337  0.00  0.00     0.017 A 
BRANCH  14  18
HETATM   18  O   UNK     0      -1.185  -4.599   5.206  0.00  0.00    -0.358 OA
HETATM   19  H   UNK     0      -0.222  -4.612   5.081  0.00  0.00     0.217 HD
ENDBRANCH  14  18
BRANCH  15  20
HETATM   20  O   UNK     0      -0.850  -7.347   4.963  0.00  0.00    -0.358 OA
HETATM   21  H   UNK     0      -0.665  -6.640   4.324  0.00  0.00     0.217 HD
ENDBRANCH  15  20
ENDBRANCH   5  12
BRANCH   6  22
HETATM   22  O   UNK     0      -5.192  -5.068   8.847  0.00  0.00    -0.355 OA
HETATM   23  H   UNK     0      -5.089  -5.959   8.475  0.00  0.00     0.218 HD
ENDBRANCH   6  22
BRANCH   8  24
HETATM   24  O   UNK     0      -5.321  -3.231  13.746  0.00  0.00    -0.360 OA
HETATM   25  H   UNK     0      -5.524  -2.357  13.378  0.00  0.00     0.217 HD
ENDBRANCH   8  24
BRANCH  10  26
HETATM   26  O   UNK     0      -0.781  -3.649  15.075  0.00  0.00    -0.361 OA
HETATM   27  H   UNK     0      -1.180  -3.238  15.862  0.00  0.00     0.217 HD
ENDBRANCH  10  26
TORSDOF 6
ENDMDL
