REMARK VINA RESULT:      -8.1      0.000      0.000
REMARK  16 active torsions:
REMARK  status: ('A' for Active; 'I' for Inactive)
REMARK    1  A    between atoms: O_2  and  C_22 
REMARK    2  A    between atoms: O_2  and  C_26 
REMARK    3  A    between atoms: O_4  and  C_18 
REMARK    4  A    between atoms: O_5  and  C_19 
REMARK    5  A    between atoms: O_6  and  C_25 
REMARK    6  A    between atoms: O_6  and  C_29 
REMARK    7  A    between atoms: O_7  and  C_20 
REMARK    8  A    between atoms: O_8  and  C_21 
REMARK    9  A    between atoms: O_9  and  C_23 
REMARK   10  A    between atoms: O_10  and  C_24 
REMARK   11  A    between atoms: O_13  and  C_35 
REMARK   12  A    between atoms: O_14  and  C_40 
REMARK   13  A    between atoms: O_15  and  C_41 
REMARK   14  A    between atoms: O_16  and  C_43 
REMARK   15  A    between atoms: C_17  and  C_26 
REMARK   16  A    between atoms: C_30  and  C_33 
ROOT
HETATM    1  O   UNK     0     184.313 185.737 170.348  0.00  0.00    -0.348 OA
HETATM    2  C   UNK     0     185.639 185.420 169.920  0.00  0.00     0.180 C 
HETATM    3  C   UNK     0     186.617 186.485 170.421  0.00  0.00     0.180 C 
HETATM    4  C   UNK     0     186.188 187.877 169.956  0.00  0.00     0.183 C 
HETATM    5  C   UNK     0     184.712 188.131 170.260  0.00  0.00     0.205 C 
HETATM    6  C   UNK     0     183.840 186.964 169.797  0.00  0.00     0.298 C 
ENDROOT
BRANCH   2   7
HETATM    7  C   UNK     0     185.980 184.037 170.468  0.00  0.00     0.205 C 
BRANCH   7   8
HETATM    8  O   UNK     0     186.565 184.181 171.754  0.00  0.00    -0.356 OA
BRANCH   8   9
HETATM    9  C   UNK     0     185.807 183.501 172.750  0.00  0.00     0.291 C 
HETATM   10  O   UNK     0     184.741 184.303 173.267  0.00  0.00    -0.351 OA
HETATM   11  C   UNK     0     185.175 185.474 173.966  0.00  0.00     0.152 C 
HETATM   12  C   UNK     0     186.068 185.104 175.159  0.00  0.00     0.178 C 
HETATM   13  C   UNK     0     183.919 186.223 174.404  0.00  0.00     0.042 C 
HETATM   14  C   UNK     0     187.233 184.231 174.692  0.00  0.00     0.183 C 
HETATM   15  C   UNK     0     186.731 183.039 173.875  0.00  0.00     0.204 C 
BRANCH  12  16
HETATM   16  O   UNK     0     186.608 186.282 175.755  0.00  0.00    -0.390 OA
HETATM   17  H   UNK     0     187.441 186.491 175.301  0.00  0.00     0.210 HD
ENDBRANCH  12  16
BRANCH  14  18
HETATM   18  O   UNK     0     187.959 183.769 175.829  0.00  0.00    -0.390 OA
HETATM   19  H   UNK     0     188.398 184.538 176.233  0.00  0.00     0.210 HD
ENDBRANCH  14  18
BRANCH  15  20
HETATM   20  O   UNK     0     185.986 182.153 174.713  0.00  0.00    -0.388 OA
HETATM   21  H   UNK     0     185.042 182.249 174.499  0.00  0.00     0.210 HD
ENDBRANCH  15  20
ENDBRANCH   8   9
ENDBRANCH   7   8
ENDBRANCH   2   7
BRANCH   6  22
HETATM   22  O   UNK     0     182.506 187.208 170.240  0.00  0.00    -0.311 OA
BRANCH  22  23
HETATM   23  C   UNK     0     181.581 186.857 169.282  0.00  0.00     0.157 A 
HETATM   24  C   UNK     0     180.867 185.718 169.333  0.00  0.00     0.124 A 
HETATM   25  O   UNK     0     179.952 185.319 168.370  0.00  0.00    -0.306 OA
HETATM   26  C   UNK     0     179.735 186.141 167.294  0.00  0.00     0.096 A 
HETATM   27  C   UNK     0     180.401 187.353 167.123  0.00  0.00     0.084 A 
HETATM   28  C   UNK     0     178.802 185.717 166.347  0.00  0.00     0.075 A 
HETATM   29  C   UNK     0     181.382 187.775 168.135  0.00  0.00     0.223 A 
HETATM   30  C   UNK     0     180.139 188.150 166.005  0.00  0.00     0.085 A 
HETATM   31  O   UNK     0     182.001 188.826 168.035  0.00  0.00    -0.284 OA
HETATM   32  C   UNK     0     179.205 187.724 165.060  0.00  0.00     0.074 A 
HETATM   33  C   UNK     0     178.538 186.511 165.230  0.00  0.00     0.071 A 
BRANCH  24  34
HETATM   34  C   UNK     0     181.005 184.745 170.431  0.00  0.00     0.004 A 
HETATM   35  C   UNK     0     180.284 184.920 171.613  0.00  0.00     0.053 A 
HETATM   36  C   UNK     0     180.413 183.998 172.652  0.00  0.00     0.099 A 
HETATM   37  C   UNK     0     181.263 182.902 172.510  0.00  0.00     0.098 A 
HETATM   38  C   UNK     0     181.985 182.728 171.329  0.00  0.00     0.040 A 
HETATM   39  C   UNK     0     181.855 183.648 170.290  0.00  0.00     0.017 A 
BRANCH  36  40
HETATM   40  O   UNK     0     179.704 184.181 173.802  0.00  0.00    -0.358 OA
HETATM   41  H   UNK     0     178.833 183.762 173.718  0.00  0.00     0.217 HD
ENDBRANCH  36  40
BRANCH  37  42
HETATM   42  O   UNK     0     181.397 181.995 173.518  0.00  0.00    -0.358 OA
HETATM   43  H   UNK     0     181.917 182.382 174.240  0.00  0.00     0.217 HD
ENDBRANCH  37  42
ENDBRANCH  24  34
BRANCH  30  44
HETATM   44  O   UNK     0     180.762 189.341 165.791  0.00  0.00    -0.360 OA
HETATM   45  H   UNK     0     180.100 190.020 165.571  0.00  0.00     0.217 HD
ENDBRANCH  30  44
BRANCH  33  46
HETATM   46  O   UNK     0     177.628 186.099 164.305  0.00  0.00    -0.361 OA
HETATM   47  H   UNK     0     178.004 186.221 163.417  0.00  0.00     0.217 HD
ENDBRANCH  33  46
ENDBRANCH  22  23
ENDBRANCH   6  22
BRANCH   3  48
HETATM   48  O   UNK     0     187.920 186.201 169.918  0.00  0.00    -0.390 OA
HETATM   49  H   UNK     0     188.038 186.698 169.091  0.00  0.00     0.210 HD
ENDBRANCH   3  48
BRANCH   5  50
HETATM   50  O   UNK     0     184.283 189.309 169.577  0.00  0.00    -0.388 OA
HETATM   51  H   UNK     0     184.447 190.071 170.157  0.00  0.00     0.210 HD
ENDBRANCH   5  50
BRANCH   4  52
HETATM   52  O   UNK     0     186.988 188.839 170.647  0.00  0.00    -0.390 OA
HETATM   53  H   UNK     0     186.740 189.718 170.313  0.00  0.00     0.210 HD
ENDBRANCH   4  52
TORSDOF 16
