REMARK VINA RESULT:      -8.1      6.456     10.965
REMARK  16 active torsions:
REMARK  status: ('A' for Active; 'I' for Inactive)
REMARK    1  A    between atoms: O_2  and  C_22 
REMARK    2  A    between atoms: O_2  and  C_26 
REMARK    3  A    between atoms: O_4  and  C_18 
REMARK    4  A    between atoms: O_5  and  C_19 
REMARK    5  A    between atoms: O_6  and  C_25 
REMARK    6  A    between atoms: O_6  and  C_29 
REMARK    7  A    between atoms: O_7  and  C_20 
REMARK    8  A    between atoms: O_8  and  C_21 
REMARK    9  A    between atoms: O_9  and  C_23 
REMARK   10  A    between atoms: O_10  and  C_24 
REMARK   11  A    between atoms: O_13  and  C_35 
REMARK   12  A    between atoms: O_14  and  C_40 
REMARK   13  A    between atoms: O_15  and  C_41 
REMARK   14  A    between atoms: O_16  and  C_43 
REMARK   15  A    between atoms: C_17  and  C_26 
REMARK   16  A    between atoms: C_30  and  C_33 
ROOT
HETATM    1  O   UNK     0     178.376 178.700 171.813  0.00  0.00    -0.348 OA
HETATM    2  C   UNK     0     177.033 178.666 172.300  0.00  0.00     0.180 C 
HETATM    3  C   UNK     0     176.053 178.608 171.125  0.00  0.00     0.180 C 
HETATM    4  C   UNK     0     176.281 179.780 170.170  0.00  0.00     0.183 C 
HETATM    5  C   UNK     0     177.759 179.914 169.801  0.00  0.00     0.205 C 
HETATM    6  C   UNK     0     178.648 179.870 171.044  0.00  0.00     0.298 C 
ENDROOT
BRANCH   2   7
HETATM    7  C   UNK     0     176.904 177.444 173.204  0.00  0.00     0.205 C 
BRANCH   7   8
HETATM    8  O   UNK     0     177.666 176.380 172.655  0.00  0.00    -0.356 OA
BRANCH   8   9
HETATM    9  C   UNK     0     176.927 175.163 172.640  0.00  0.00     0.291 C 
HETATM   10  O   UNK     0     177.653 174.077 173.225  0.00  0.00    -0.351 OA
HETATM   11  C   UNK     0     178.841 173.715 172.514  0.00  0.00     0.152 C 
HETATM   12  C   UNK     0     178.516 173.304 171.071  0.00  0.00     0.178 C 
HETATM   13  C   UNK     0     179.502 172.583 173.296  0.00  0.00     0.042 C 
HETATM   14  C   UNK     0     177.726 174.411 170.374  0.00  0.00     0.183 C 
HETATM   15  C   UNK     0     176.513 174.827 171.209  0.00  0.00     0.204 C 
BRANCH  12  16
HETATM   16  O   UNK     0     179.719 173.088 170.337  0.00  0.00    -0.390 OA
HETATM   17  H   UNK     0     180.324 173.823 170.532  0.00  0.00     0.210 HD
ENDBRANCH  12  16
BRANCH  14  18
HETATM   18  O   UNK     0     177.299 173.949 169.094  0.00  0.00    -0.390 OA
HETATM   19  H   UNK     0     177.566 173.017 169.011  0.00  0.00     0.210 HD
ENDBRANCH  14  18
BRANCH  15  20
HETATM   20  O   UNK     0     175.572 173.754 171.268  0.00  0.00    -0.388 OA
HETATM   21  H   UNK     0     175.026 173.869 172.065  0.00  0.00     0.210 HD
ENDBRANCH  15  20
ENDBRANCH   8   9
ENDBRANCH   7   8
ENDBRANCH   2   7
BRANCH   6  22
HETATM   22  O   UNK     0     180.008 179.856 170.611  0.00  0.00    -0.311 OA
BRANCH  22  23
HETATM   23  C   UNK     0     180.850 180.375 171.569  0.00  0.00     0.157 A 
HETATM   24  C   UNK     0     181.728 179.626 172.260  0.00  0.00     0.124 A 
HETATM   25  O   UNK     0     182.567 180.111 173.252  0.00  0.00    -0.306 OA
HETATM   26  C   UNK     0     182.524 181.449 173.548  0.00  0.00     0.096 A 
HETATM   27  C   UNK     0     181.668 182.338 172.903  0.00  0.00     0.084 A 
HETATM   28  C   UNK     0     183.386 181.909 174.544  0.00  0.00     0.075 A 
HETATM   29  C   UNK     0     180.766 181.827 171.858  0.00  0.00     0.223 A 
HETATM   30  C   UNK     0     181.666 183.693 173.247  0.00  0.00     0.085 A 
HETATM   31  O   UNK     0     179.989 182.560 171.261  0.00  0.00    -0.284 OA
HETATM   32  C   UNK     0     182.530 184.150 174.244  0.00  0.00     0.074 A 
HETATM   33  C   UNK     0     183.388 183.260 174.890  0.00  0.00     0.071 A 
BRANCH  24  34
HETATM   34  C   UNK     0     181.875 178.176 172.044  0.00  0.00     0.004 A 
HETATM   35  C   UNK     0     182.708 177.702 171.030  0.00  0.00     0.053 A 
HETATM   36  C   UNK     0     182.849 176.329 170.826  0.00  0.00     0.099 A 
HETATM   37  C   UNK     0     182.154 175.430 171.634  0.00  0.00     0.098 A 
HETATM   38  C   UNK     0     181.320 175.903 172.647  0.00  0.00     0.040 A 
HETATM   39  C   UNK     0     181.181 177.275 172.852  0.00  0.00     0.017 A 
BRANCH  36  40
HETATM   40  O   UNK     0     183.665 175.879 169.832  0.00  0.00    -0.358 OA
HETATM   41  H   UNK     0     183.795 174.921 169.925  0.00  0.00     0.217 HD
ENDBRANCH  36  40
BRANCH  37  42
HETATM   42  O   UNK     0     182.283 174.087 171.445  0.00  0.00    -0.358 OA
HETATM   43  H   UNK     0     183.119 173.899 170.989  0.00  0.00     0.217 HD
ENDBRANCH  37  42
ENDBRANCH  24  34
BRANCH  30  44
HETATM   44  O   UNK     0     180.850 184.602 172.648  0.00  0.00    -0.360 OA
HETATM   45  H   UNK     0     180.693 184.340 171.724  0.00  0.00     0.217 HD
ENDBRANCH  30  44
BRANCH  33  46
HETATM   46  O   UNK     0     184.228 183.711 175.862  0.00  0.00    -0.361 OA
HETATM   47  H   UNK     0     184.182 183.108 176.624  0.00  0.00     0.217 HD
ENDBRANCH  33  46
ENDBRANCH  22  23
ENDBRANCH   6  22
BRANCH   3  48
HETATM   48  O   UNK     0     174.718 178.658 171.622  0.00  0.00    -0.390 OA
HETATM   49  H   UNK     0     174.131 178.892 170.883  0.00  0.00     0.210 HD
ENDBRANCH   3  48
BRANCH   5  50
HETATM   50  O   UNK     0     177.972 181.162 169.143  0.00  0.00    -0.388 OA
HETATM   51  H   UNK     0     178.910 181.217 168.897  0.00  0.00     0.210 HD
ENDBRANCH   5  50
BRANCH   4  52
HETATM   52  O   UNK     0     175.516 179.541 168.987  0.00  0.00    -0.390 OA
HETATM   53  H   UNK     0     175.217 180.405 168.655  0.00  0.00     0.210 HD
ENDBRANCH   4  52
TORSDOF 16
