REMARK VINA RESULT:      -8.0      1.693      2.322
REMARK  16 active torsions:
REMARK  status: ('A' for Active; 'I' for Inactive)
REMARK    1  A    between atoms: O_2  and  C_22 
REMARK    2  A    between atoms: O_2  and  C_26 
REMARK    3  A    between atoms: O_4  and  C_18 
REMARK    4  A    between atoms: O_5  and  C_19 
REMARK    5  A    between atoms: O_6  and  C_25 
REMARK    6  A    between atoms: O_6  and  C_29 
REMARK    7  A    between atoms: O_7  and  C_20 
REMARK    8  A    between atoms: O_8  and  C_21 
REMARK    9  A    between atoms: O_9  and  C_23 
REMARK   10  A    between atoms: O_10  and  C_24 
REMARK   11  A    between atoms: O_13  and  C_35 
REMARK   12  A    between atoms: O_14  and  C_40 
REMARK   13  A    between atoms: O_15  and  C_41 
REMARK   14  A    between atoms: O_16  and  C_43 
REMARK   15  A    between atoms: C_17  and  C_26 
REMARK   16  A    between atoms: C_30  and  C_33 
ROOT
HETATM    1  O   UNK     0     183.131 186.952 170.384  0.00  0.00    -0.348 OA
HETATM    2  C   UNK     0     184.228 186.117 170.759  0.00  0.00     0.180 C 
HETATM    3  C   UNK     0     185.430 186.980 171.150  0.00  0.00     0.180 C 
HETATM    4  C   UNK     0     185.805 187.934 170.016  0.00  0.00     0.183 C 
HETATM    5  C   UNK     0     184.580 188.691 169.502  0.00  0.00     0.205 C 
HETATM    6  C   UNK     0     183.414 187.741 169.230  0.00  0.00     0.298 C 
ENDROOT
BRANCH   2   7
HETATM    7  C   UNK     0     183.761 185.239 171.916  0.00  0.00     0.205 C 
BRANCH   7   8
HETATM    8  O   UNK     0     184.656 184.146 172.056  0.00  0.00    -0.356 OA
BRANCH   8   9
HETATM    9  C   UNK     0     184.540 183.539 173.339  0.00  0.00     0.291 C 
HETATM   10  O   UNK     0     184.288 184.496 174.374  0.00  0.00    -0.351 OA
HETATM   11  C   UNK     0     185.351 185.432 174.579  0.00  0.00     0.152 C 
HETATM   12  C   UNK     0     186.655 184.713 174.950  0.00  0.00     0.178 C 
HETATM   13  C   UNK     0     184.895 186.392 175.675  0.00  0.00     0.042 C 
HETATM   14  C   UNK     0     186.993 183.658 173.896  0.00  0.00     0.183 C 
HETATM   15  C   UNK     0     185.801 182.733 173.645  0.00  0.00     0.204 C 
BRANCH  12  16
HETATM   16  O   UNK     0     187.734 185.644 175.008  0.00  0.00    -0.390 OA
HETATM   17  H   UNK     0     188.327 185.460 174.260  0.00  0.00     0.210 HD
ENDBRANCH  12  16
BRANCH  14  18
HETATM   18  O   UNK     0     188.115 182.897 174.335  0.00  0.00    -0.390 OA
HETATM   19  H   UNK     0     188.274 183.115 175.270  0.00  0.00     0.210 HD
ENDBRANCH  14  18
BRANCH  15  20
HETATM   20  O   UNK     0     185.542 181.946 174.809  0.00  0.00    -0.388 OA
HETATM   21  H   UNK     0     185.431 182.546 175.567  0.00  0.00     0.210 HD
ENDBRANCH  15  20
ENDBRANCH   8   9
ENDBRANCH   7   8
ENDBRANCH   2   7
BRANCH   6  22
HETATM   22  O   UNK     0     182.273 188.530 168.894  0.00  0.00    -0.311 OA
BRANCH  22  23
HETATM   23  C   UNK     0     181.557 187.971 167.858  0.00  0.00     0.157 A 
HETATM   24  C   UNK     0     180.461 187.215 168.046  0.00  0.00     0.124 A 
HETATM   25  O   UNK     0     179.737 186.612 167.028  0.00  0.00    -0.306 OA
HETATM   26  C   UNK     0     180.143 186.807 165.733  0.00  0.00     0.096 A 
HETATM   27  C   UNK     0     181.257 187.574 165.398  0.00  0.00     0.084 A 
HETATM   28  C   UNK     0     179.389 186.196 164.731  0.00  0.00     0.075 A 
HETATM   29  C   UNK     0     182.036 188.206 166.474  0.00  0.00     0.223 A 
HETATM   30  C   UNK     0     181.625 187.737 164.060  0.00  0.00     0.085 A 
HETATM   31  O   UNK     0     183.026 188.886 166.241  0.00  0.00    -0.284 OA
HETATM   32  C   UNK     0     180.869 187.124 163.059  0.00  0.00     0.074 A 
HETATM   33  C   UNK     0     179.754 186.356 163.393  0.00  0.00     0.071 A 
BRANCH  24  34
HETATM   34  C   UNK     0     179.918 186.925 169.385  0.00  0.00     0.004 A 
HETATM   35  C   UNK     0     180.045 185.646 169.927  0.00  0.00     0.053 A 
HETATM   36  C   UNK     0     179.534 185.372 171.195  0.00  0.00     0.099 A 
HETATM   37  C   UNK     0     178.894 186.376 171.921  0.00  0.00     0.098 A 
HETATM   38  C   UNK     0     178.766 187.655 171.379  0.00  0.00     0.040 A 
HETATM   39  C   UNK     0     179.279 187.930 170.112  0.00  0.00     0.017 A 
BRANCH  36  40
HETATM   40  O   UNK     0     179.662 184.118 171.713  0.00  0.00    -0.358 OA
HETATM   41  H   UNK     0     179.265 184.089 172.599  0.00  0.00     0.217 HD
ENDBRANCH  36  40
BRANCH  37  42
HETATM   42  O   UNK     0     178.390 186.120 173.161  0.00  0.00    -0.358 OA
HETATM   43  H   UNK     0     177.422 186.161 173.136  0.00  0.00     0.217 HD
ENDBRANCH  37  42
ENDBRANCH  24  34
BRANCH  30  44
HETATM   44  O   UNK     0     182.703 188.475 163.679  0.00  0.00    -0.360 OA
HETATM   45  H   UNK     0     182.780 188.463 162.709  0.00  0.00     0.217 HD
ENDBRANCH  30  44
BRANCH  33  46
HETATM   46  O   UNK     0     179.019 185.761 162.414  0.00  0.00    -0.361 OA
HETATM   47  H   UNK     0     178.421 185.110 162.819  0.00  0.00     0.217 HD
ENDBRANCH  33  46
ENDBRANCH  22  23
ENDBRANCH   6  22
BRANCH   3  48
HETATM   48  O   UNK     0     186.541 186.135 171.441  0.00  0.00    -0.390 OA
HETATM   49  H   UNK     0     187.196 186.658 171.931  0.00  0.00     0.210 HD
ENDBRANCH   3  48
BRANCH   5  50
HETATM   50  O   UNK     0     184.910 189.355 168.283  0.00  0.00    -0.388 OA
HETATM   51  H   UNK     0     185.352 190.192 168.506  0.00  0.00     0.210 HD
ENDBRANCH   5  50
BRANCH   4  52
HETATM   52  O   UNK     0     186.762 188.867 170.523  0.00  0.00    -0.390 OA
HETATM   53  H   UNK     0     186.438 189.759 170.312  0.00  0.00     0.210 HD
ENDBRANCH   4  52
TORSDOF 16
