MODEL 1
REMARK VINA RESULT:      -9.4      0.000      0.000
REMARK  12 active torsions:
REMARK  status: ('A' for Active; 'I' for Inactive)
REMARK    1  A    between atoms: O_1  and  C_10 
REMARK    2  A    between atoms: O_2  and  C_17 
REMARK    3  A    between atoms: O_3  and  C_20 
REMARK    4  A    between atoms: O_4  and  C_27 
REMARK    5  A    between atoms: O_6  and  C_29 
REMARK    6  A    between atoms: O_7  and  C_28 
REMARK    7  A    between atoms: O_8  and  C_33 
REMARK    8  A    between atoms: C_11  and  C_20 
REMARK    9  A    between atoms: C_20  and  C_28 
REMARK   10  A    between atoms: C_28  and  C_31 
REMARK   11  A    between atoms: C_31  and  C_32 
REMARK   12  A    between atoms: C_32  and  C_33 
ROOT
HETATM    1  O   UNK     0      61.714  18.676  27.680  0.00  0.00    -0.384 OA
HETATM    2  H   UNK     0      62.425  19.288  27.918  0.00  0.00     0.211 HD
ENDROOT
BRANCH   1   3
HETATM    3  C   UNK     0      60.996  19.136  26.513  0.00  0.00     0.090 C 
HETATM    4  C   UNK     0      61.531  18.408  25.253  0.00  0.00    -0.000 C 
HETATM    5  C   UNK     0      62.991  18.930  25.215  0.00  0.00     0.034 C 
HETATM    6  C   UNK     0      61.415  16.894  25.477  0.00  0.00     0.045 C 
HETATM    7  C   UNK     0      60.772  18.800  23.955  0.00  0.00     0.019 C 
HETATM    8  C   UNK     0      62.859  20.419  25.613  0.00  0.00     0.012 C 
HETATM    9  C   UNK     0      61.475  20.576  26.281  0.00  0.00     0.044 C 
HETATM   10  C   UNK     0      59.958  16.476  25.763  0.00  0.00     0.128 C 
HETATM   11  C   UNK     0      59.261  17.286  26.918  0.00  0.00     0.055 C 
HETATM   12  C   UNK     0      57.719  16.935  27.111  0.00  0.00    -0.021 C 
HETATM   13  C   UNK     0      59.541  18.796  26.762  0.00  0.00    -0.034 C 
HETATM   14  C   UNK     0      57.011  18.051  27.933  0.00  0.00     0.071 C 
HETATM   15  C   UNK     0      57.531  15.548  27.830  0.00  0.00     0.045 C 
HETATM   16  C   UNK     0      57.002  16.841  25.735  0.00  0.00     0.017 C 
HETATM   17  C   UNK     0      57.398  18.116  29.422  0.00  0.00     0.047 C 
HETATM   18  C   UNK     0      57.238  19.413  27.312  0.00  0.00     0.154 C 
HETATM   19  C   UNK     0      57.783  16.766  30.017  0.00  0.00     0.147 C 
HETATM   20  C   UNK     0      57.097  15.612  29.298  0.00  0.00     0.147 C 
HETATM   21  O   UNK     0      56.345  20.253  27.237  0.00  0.00    -0.293 OA
HETATM   22  C   UNK     0      58.608  19.752  26.880  0.00  0.00     0.057 C 
BRANCH   5  23
HETATM   23  C   UNK     0      63.752  18.732  23.912  0.00  0.00     0.084 C 
HETATM   24  C   UNK     0      63.546  19.951  22.997  0.00  0.00     0.049 C 
BRANCH  23  25
HETATM   25  O   UNK     0      65.152  18.653  24.212  0.00  0.00    -0.387 OA
HETATM   26  H   UNK     0      65.267  18.189  25.057  0.00  0.00     0.210 HD
ENDBRANCH  23  25
BRANCH  23  27
HETATM   27  C   UNK     0      63.339  17.424  23.183  0.00  0.00     0.152 C 
BRANCH  27  28
HETATM   28  O   UNK     0      64.195  16.354  23.597  0.00  0.00    -0.393 OA
HETATM   29  H   UNK     0      64.954  16.750  24.058  0.00  0.00     0.210 HD
ENDBRANCH  27  28
BRANCH  27  30
HETATM   30  C   UNK     0      63.383  17.515  21.646  0.00  0.00     0.037 C 
BRANCH  30  31
HETATM   31  C   UNK     0      62.688  16.315  20.977  0.00  0.00     0.040 C 
BRANCH  31  32
HETATM   32  C   UNK     0      63.651  15.245  20.420  0.00  0.00     0.051 C 
HETATM   33  C   UNK     0      62.986  14.517  19.247  0.00  0.00     0.045 C 
HETATM   34  C   UNK     0      64.990  15.837  19.974  0.00  0.00     0.045 C 
BRANCH  32  35
HETATM   35  O   UNK     0      63.900  14.285  21.448  0.00  0.00    -0.391 OA
HETATM   36  H   UNK     0      63.220  14.383  22.136  0.00  0.00     0.210 HD
ENDBRANCH  32  35
ENDBRANCH  31  32
ENDBRANCH  30  31
ENDBRANCH  27  30
ENDBRANCH  23  27
ENDBRANCH   5  23
BRANCH  10  37
HETATM   37  O   UNK     0      59.972  15.083  26.066  0.00  0.00    -0.395 OA
HETATM   38  H   UNK     0      59.371  14.639  25.445  0.00  0.00     0.210 HD
ENDBRANCH  10  37
BRANCH  19  39
HETATM   39  O   UNK     0      57.445  16.761  31.400  0.00  0.00    -0.393 OA
HETATM   40  H   UNK     0      57.347  15.838  31.688  0.00  0.00     0.210 HD
ENDBRANCH  19  39
BRANCH  20  41
HETATM   41  O   UNK     0      55.678  15.763  29.358  0.00  0.00    -0.393 OA
HETATM   42  H   UNK     0      55.490  16.643  29.725  0.00  0.00     0.210 HD
ENDBRANCH  20  41
ENDBRANCH   1   3
TORSDOF 12
ENDMDL
MODEL 2
REMARK VINA RESULT:      -9.1     20.766     24.266
REMARK  12 active torsions:
REMARK  status: ('A' for Active; 'I' for Inactive)
REMARK    1  A    between atoms: O_1  and  C_10 
REMARK    2  A    between atoms: O_2  and  C_17 
REMARK    3  A    between atoms: O_3  and  C_20 
REMARK    4  A    between atoms: O_4  and  C_27 
REMARK    5  A    between atoms: O_6  and  C_29 
REMARK    6  A    between atoms: O_7  and  C_28 
REMARK    7  A    between atoms: O_8  and  C_33 
REMARK    8  A    between atoms: C_11  and  C_20 
REMARK    9  A    between atoms: C_20  and  C_28 
REMARK   10  A    between atoms: C_28  and  C_31 
REMARK   11  A    between atoms: C_31  and  C_32 
REMARK   12  A    between atoms: C_32  and  C_33 
ROOT
HETATM    1  O   UNK     0      73.779  33.056  31.095  0.00  0.00    -0.384 OA
HETATM    2  H   UNK     0      73.372  33.368  30.274  0.00  0.00     0.211 HD
ENDROOT
BRANCH   1   3
HETATM    3  C   UNK     0      73.044  33.519  32.251  0.00  0.00     0.090 C 
HETATM    4  C   UNK     0      73.976  33.525  33.491  0.00  0.00    -0.000 C 
HETATM    5  C   UNK     0      74.281  32.010  33.630  0.00  0.00     0.034 C 
HETATM    6  C   UNK     0      75.207  34.384  33.173  0.00  0.00     0.045 C 
HETATM    7  C   UNK     0      73.280  34.067  34.771  0.00  0.00     0.019 C 
HETATM    8  C   UNK     0      72.928  31.332  33.314  0.00  0.00     0.012 C 
HETATM    9  C   UNK     0      72.063  32.388  32.590  0.00  0.00     0.044 C 
HETATM   10  C   UNK     0      74.808  35.824  32.792  0.00  0.00     0.128 C 
HETATM   11  C   UNK     0      73.725  35.923  31.654  0.00  0.00     0.055 C 
HETATM   12  C   UNK     0      73.228  37.408  31.366  0.00  0.00    -0.021 C 
HETATM   13  C   UNK     0      72.580  34.920  31.911  0.00  0.00    -0.034 C 
HETATM   14  C   UNK     0      71.886  37.383  30.577  0.00  0.00     0.071 C 
HETATM   15  C   UNK     0      74.301  38.228  30.558  0.00  0.00     0.045 C 
HETATM   16  C   UNK     0      72.973  38.169  32.697  0.00  0.00     0.017 C 
HETATM   17  C   UNK     0      71.992  36.911  29.115  0.00  0.00     0.047 C 
HETATM   18  C   UNK     0      70.852  36.535  31.287  0.00  0.00     0.154 C 
HETATM   19  C   UNK     0      73.333  37.231  28.462  0.00  0.00     0.147 C 
HETATM   20  C   UNK     0      73.986  38.461  29.077  0.00  0.00     0.147 C 
HETATM   21  O   UNK     0      69.673  36.875  31.367  0.00  0.00    -0.293 OA
HETATM   22  C   UNK     0      71.278  35.220  31.804  0.00  0.00     0.057 C 
BRANCH   5  23
HETATM   23  C   UNK     0      74.875  31.555  34.956  0.00  0.00     0.084 C 
HETATM   24  C   UNK     0      73.749  31.291  35.969  0.00  0.00     0.049 C 
BRANCH  23  25
HETATM   25  O   UNK     0      75.559  30.313  34.742  0.00  0.00    -0.387 OA
HETATM   26  H   UNK     0      75.031  29.592  35.124  0.00  0.00     0.210 HD
ENDBRANCH  23  25
BRANCH  23  27
HETATM   27  C   UNK     0      75.895  32.578  35.525  0.00  0.00     0.152 C 
BRANCH  27  28
HETATM   28  O   UNK     0      77.214  32.235  35.086  0.00  0.00    -0.393 OA
HETATM   29  H   UNK     0      77.838  32.564  35.755  0.00  0.00     0.210 HD
ENDBRANCH  27  28
BRANCH  27  30
HETATM   30  C   UNK     0      75.906  32.673  37.063  0.00  0.00     0.037 C 
BRANCH  30  31
HETATM   31  C   UNK     0      76.973  33.658  37.573  0.00  0.00     0.040 C 
BRANCH  31  32
HETATM   32  C   UNK     0      78.171  32.993  38.284  0.00  0.00     0.051 C 
HETATM   33  C   UNK     0      78.833  34.003  39.227  0.00  0.00     0.045 C 
HETATM   34  C   UNK     0      77.767  31.739  39.063  0.00  0.00     0.045 C 
BRANCH  32  35
HETATM   35  O   UNK     0      79.132  32.621  37.294  0.00  0.00    -0.391 OA
HETATM   36  H   UNK     0      78.667  32.458  36.456  0.00  0.00     0.210 HD
ENDBRANCH  32  35
ENDBRANCH  31  32
ENDBRANCH  30  31
ENDBRANCH  27  30
ENDBRANCH  23  27
ENDBRANCH   5  23
BRANCH  10  37
HETATM   37  O   UNK     0      76.000  36.504  32.410  0.00  0.00    -0.395 OA
HETATM   38  H   UNK     0      76.273  36.157  31.543  0.00  0.00     0.210 HD
ENDBRANCH  10  37
BRANCH  19  39
HETATM   39  O   UNK     0      73.128  37.423  27.065  0.00  0.00    -0.393 OA
HETATM   40  H   UNK     0      73.801  36.912  26.585  0.00  0.00     0.210 HD
ENDBRANCH  19  39
BRANCH  20  41
HETATM   41  O   UNK     0      73.124  39.594  28.958  0.00  0.00    -0.393 OA
HETATM   42  H   UNK     0      72.880  39.874  29.856  0.00  0.00     0.210 HD
ENDBRANCH  20  41
ENDBRANCH   1   3
TORSDOF 12
ENDMDL
MODEL 3
REMARK VINA RESULT:      -8.6      4.029      7.518
REMARK  12 active torsions:
REMARK  status: ('A' for Active; 'I' for Inactive)
REMARK    1  A    between atoms: O_1  and  C_10 
REMARK    2  A    between atoms: O_2  and  C_17 
REMARK    3  A    between atoms: O_3  and  C_20 
REMARK    4  A    between atoms: O_4  and  C_27 
REMARK    5  A    between atoms: O_6  and  C_29 
REMARK    6  A    between atoms: O_7  and  C_28 
REMARK    7  A    between atoms: O_8  and  C_33 
REMARK    8  A    between atoms: C_11  and  C_20 
REMARK    9  A    between atoms: C_20  and  C_28 
REMARK   10  A    between atoms: C_28  and  C_31 
REMARK   11  A    between atoms: C_31  and  C_32 
REMARK   12  A    between atoms: C_32  and  C_33 
ROOT
HETATM    1  O   UNK     0      64.163  18.404  20.566  0.00  0.00    -0.384 OA
HETATM    2  H   UNK     0      64.288  19.317  20.864  0.00  0.00     0.211 HD
ENDROOT
BRANCH   1   3
HETATM    3  C   UNK     0      64.823  17.470  21.450  0.00  0.00     0.090 C 
HETATM    4  C   UNK     0      66.347  17.755  21.463  0.00  0.00    -0.000 C 
HETATM    5  C   UNK     0      66.714  17.436  19.990  0.00  0.00     0.034 C 
HETATM    6  C   UNK     0      66.567  19.222  21.858  0.00  0.00     0.045 C 
HETATM    7  C   UNK     0      67.130  16.831  22.438  0.00  0.00     0.019 C 
HETATM    8  C   UNK     0      65.863  16.187  19.662  0.00  0.00     0.012 C 
HETATM    9  C   UNK     0      64.755  16.113  20.735  0.00  0.00     0.044 C 
HETATM   10  C   UNK     0      65.949  19.534  23.236  0.00  0.00     0.128 C 
HETATM   11  C   UNK     0      64.439  19.115  23.385  0.00  0.00     0.055 C 
HETATM   12  C   UNK     0      63.855  19.322  24.852  0.00  0.00    -0.021 C 
HETATM   13  C   UNK     0      64.214  17.697  22.819  0.00  0.00    -0.034 C 
HETATM   14  C   UNK     0      62.546  18.500  25.032  0.00  0.00     0.071 C 
HETATM   15  C   UNK     0      63.571  20.841  25.150  0.00  0.00     0.045 C 
HETATM   16  C   UNK     0      64.869  18.826  25.921  0.00  0.00     0.017 C 
HETATM   17  C   UNK     0      61.329  19.024  24.248  0.00  0.00     0.047 C 
HETATM   18  C   UNK     0      62.763  17.044  24.676  0.00  0.00     0.154 C 
HETATM   19  C   UNK     0      61.337  20.534  24.035  0.00  0.00     0.147 C 
HETATM   20  C   UNK     0      62.097  21.258  25.138  0.00  0.00     0.147 C 
HETATM   21  O   UNK     0      62.274  16.131  25.338  0.00  0.00    -0.293 OA
HETATM   22  C   UNK     0      63.506  16.742  23.438  0.00  0.00     0.057 C 
BRANCH   5  23
HETATM   23  C   UNK     0      68.192  17.242  19.682  0.00  0.00     0.084 C 
HETATM   24  C   UNK     0      68.601  15.791  19.982  0.00  0.00     0.049 C 
BRANCH  23  25
HETATM   25  O   UNK     0      68.396  17.464  18.281  0.00  0.00    -0.387 OA
HETATM   26  H   UNK     0      67.552  17.338  17.816  0.00  0.00     0.210 HD
ENDBRANCH  23  25
BRANCH  23  27
HETATM   27  C   UNK     0      69.090  18.238  20.465  0.00  0.00     0.152 C 
BRANCH  27  28
HETATM   28  O   UNK     0      69.483  19.310  19.602  0.00  0.00    -0.393 OA
HETATM   29  H   UNK     0      68.884  20.057  19.775  0.00  0.00     0.210 HD
ENDBRANCH  27  28
BRANCH  27  30
HETATM   30  C   UNK     0      70.362  17.607  21.064  0.00  0.00     0.037 C 
BRANCH  30  31
HETATM   31  C   UNK     0      70.644  18.117  22.489  0.00  0.00     0.040 C 
BRANCH  31  32
HETATM   32  C   UNK     0      71.428  17.129  23.379  0.00  0.00     0.051 C 
HETATM   33  C   UNK     0      72.341  17.910  24.331  0.00  0.00     0.045 C 
HETATM   34  C   UNK     0      70.507  16.206  24.181  0.00  0.00     0.045 C 
BRANCH  32  35
HETATM   35  O   UNK     0      72.255  16.324  22.538  0.00  0.00    -0.391 OA
HETATM   36  H   UNK     0      71.694  15.889  21.875  0.00  0.00     0.210 HD
ENDBRANCH  32  35
ENDBRANCH  31  32
ENDBRANCH  30  31
ENDBRANCH  27  30
ENDBRANCH  23  27
ENDBRANCH   5  23
BRANCH  10  37
HETATM   37  O   UNK     0      66.106  20.932  23.460  0.00  0.00    -0.395 OA
HETATM   38  H   UNK     0      66.451  21.051  24.362  0.00  0.00     0.210 HD
ENDBRANCH  10  37
BRANCH  19  39
HETATM   39  O   UNK     0      59.991  20.995  23.973  0.00  0.00    -0.393 OA
HETATM   40  H   UNK     0      59.995  21.962  24.067  0.00  0.00     0.210 HD
ENDBRANCH  19  39
BRANCH  20  41
HETATM   41  O   UNK     0      61.521  20.967  26.412  0.00  0.00    -0.393 OA
HETATM   42  H   UNK     0      61.534  21.786  26.935  0.00  0.00     0.210 HD
ENDBRANCH  20  41
ENDBRANCH   1   3
TORSDOF 12
ENDMDL
MODEL 4
REMARK VINA RESULT:      -8.5      1.543      1.963
REMARK  12 active torsions:
REMARK  status: ('A' for Active; 'I' for Inactive)
REMARK    1  A    between atoms: O_1  and  C_10 
REMARK    2  A    between atoms: O_2  and  C_17 
REMARK    3  A    between atoms: O_3  and  C_20 
REMARK    4  A    between atoms: O_4  and  C_27 
REMARK    5  A    between atoms: O_6  and  C_29 
REMARK    6  A    between atoms: O_7  and  C_28 
REMARK    7  A    between atoms: O_8  and  C_33 
REMARK    8  A    between atoms: C_11  and  C_20 
REMARK    9  A    between atoms: C_20  and  C_28 
REMARK   10  A    between atoms: C_28  and  C_31 
REMARK   11  A    between atoms: C_31  and  C_32 
REMARK   12  A    between atoms: C_32  and  C_33 
ROOT
HETATM    1  O   UNK     0      61.654  18.555  27.613  0.00  0.00    -0.384 OA
HETATM    2  H   UNK     0      62.367  19.164  27.854  0.00  0.00     0.211 HD
ENDROOT
BRANCH   1   3
HETATM    3  C   UNK     0      60.881  19.068  26.505  0.00  0.00     0.090 C 
HETATM    4  C   UNK     0      61.312  18.356  25.196  0.00  0.00    -0.000 C 
HETATM    5  C   UNK     0      62.783  18.833  25.079  0.00  0.00     0.034 C 
HETATM    6  C   UNK     0      61.160  16.841  25.391  0.00  0.00     0.045 C 
HETATM    7  C   UNK     0      60.486  18.806  23.959  0.00  0.00     0.019 C 
HETATM    8  C   UNK     0      62.725  20.314  25.520  0.00  0.00     0.012 C 
HETATM    9  C   UNK     0      61.392  20.497  26.277  0.00  0.00     0.044 C 
HETATM   10  C   UNK     0      59.711  16.462  25.759  0.00  0.00     0.128 C 
HETATM   11  C   UNK     0      59.114  17.263  26.974  0.00  0.00     0.055 C 
HETATM   12  C   UNK     0      57.577  16.956  27.257  0.00  0.00    -0.021 C 
HETATM   13  C   UNK     0      59.433  18.767  26.838  0.00  0.00    -0.034 C 
HETATM   14  C   UNK     0      56.958  18.072  28.148  0.00  0.00     0.071 C 
HETATM   15  C   UNK     0      57.388  15.557  27.953  0.00  0.00     0.045 C 
HETATM   16  C   UNK     0      56.772  16.920  25.927  0.00  0.00     0.017 C 
HETATM   17  C   UNK     0      57.440  18.086  29.610  0.00  0.00     0.047 C 
HETATM   18  C   UNK     0      57.192  19.442  27.547  0.00  0.00     0.154 C 
HETATM   19  C   UNK     0      57.817  16.709  30.147  0.00  0.00     0.147 C 
HETATM   20  C   UNK     0      57.049  15.597  29.446  0.00  0.00     0.147 C 
HETATM   21  O   UNK     0      56.323  20.312  27.549  0.00  0.00    -0.293 OA
HETATM   22  C   UNK     0      58.542  19.749  27.037  0.00  0.00     0.057 C 
BRANCH   5  23
HETATM   23  C   UNK     0      63.454  18.645  23.725  0.00  0.00     0.084 C 
HETATM   24  C   UNK     0      63.476  17.152  23.357  0.00  0.00     0.049 C 
BRANCH  23  25
HETATM   25  O   UNK     0      62.668  19.319  22.733  0.00  0.00    -0.387 OA
HETATM   26  H   UNK     0      63.264  19.725  22.082  0.00  0.00     0.210 HD
ENDBRANCH  23  25
BRANCH  23  27
HETATM   27  C   UNK     0      64.888  19.239  23.693  0.00  0.00     0.152 C 
BRANCH  27  28
HETATM   28  O   UNK     0      64.929  20.345  22.785  0.00  0.00    -0.393 OA
HETATM   29  H   UNK     0      64.011  20.561  22.549  0.00  0.00     0.210 HD
ENDBRANCH  27  28
BRANCH  27  30
HETATM   30  C   UNK     0      65.981  18.234  23.281  0.00  0.00     0.037 C 
BRANCH  30  31
HETATM   31  C   UNK     0      66.608  18.587  21.921  0.00  0.00     0.040 C 
BRANCH  31  32
HETATM   32  C   UNK     0      66.379  17.534  20.817  0.00  0.00     0.051 C 
HETATM   33  C   UNK     0      66.508  16.128  21.413  0.00  0.00     0.045 C 
HETATM   34  C   UNK     0      65.017  17.687  20.134  0.00  0.00     0.045 C 
BRANCH  32  35
HETATM   35  O   UNK     0      67.400  17.687  19.829  0.00  0.00    -0.391 OA
HETATM   36  H   UNK     0      67.807  18.563  19.937  0.00  0.00     0.210 HD
ENDBRANCH  32  35
ENDBRANCH  31  32
ENDBRANCH  30  31
ENDBRANCH  27  30
ENDBRANCH  23  27
ENDBRANCH   5  23
BRANCH  10  37
HETATM   37  O   UNK     0      59.698  15.062  26.027  0.00  0.00    -0.395 OA
HETATM   38  H   UNK     0      58.875  14.698  25.657  0.00  0.00     0.210 HD
ENDBRANCH  10  37
BRANCH  19  39
HETATM   39  O   UNK     0      57.565  16.680  31.549  0.00  0.00    -0.393 OA
HETATM   40  H   UNK     0      57.493  17.596  31.865  0.00  0.00     0.210 HD
ENDBRANCH  19  39
BRANCH  20  41
HETATM   41  O   UNK     0      55.642  15.791  29.599  0.00  0.00    -0.393 OA
HETATM   42  H   UNK     0      55.273  15.974  28.719  0.00  0.00     0.210 HD
ENDBRANCH  20  41
ENDBRANCH   1   3
TORSDOF 12
ENDMDL
MODEL 5
REMARK VINA RESULT:      -8.3      2.142      8.409
REMARK  12 active torsions:
REMARK  status: ('A' for Active; 'I' for Inactive)
REMARK    1  A    between atoms: O_1  and  C_10 
REMARK    2  A    between atoms: O_2  and  C_17 
REMARK    3  A    between atoms: O_3  and  C_20 
REMARK    4  A    between atoms: O_4  and  C_27 
REMARK    5  A    between atoms: O_6  and  C_29 
REMARK    6  A    between atoms: O_7  and  C_28 
REMARK    7  A    between atoms: O_8  and  C_33 
REMARK    8  A    between atoms: C_11  and  C_20 
REMARK    9  A    between atoms: C_20  and  C_28 
REMARK   10  A    between atoms: C_28  and  C_31 
REMARK   11  A    between atoms: C_31  and  C_32 
REMARK   12  A    between atoms: C_32  and  C_33 
ROOT
HETATM    1  O   UNK     0      61.335  19.062  22.770  0.00  0.00    -0.384 OA
HETATM    2  H   UNK     0      61.085  18.132  22.868  0.00  0.00     0.211 HD
ENDROOT
BRANCH   1   3
HETATM    3  C   UNK     0      62.001  19.553  23.955  0.00  0.00     0.090 C 
HETATM    4  C   UNK     0      61.468  18.798  25.201  0.00  0.00    -0.000 C 
HETATM    5  C   UNK     0      59.985  19.253  25.202  0.00  0.00     0.034 C 
HETATM    6  C   UNK     0      61.660  17.292  24.978  0.00  0.00     0.045 C 
HETATM    7  C   UNK     0      62.175  19.223  26.518  0.00  0.00     0.019 C 
HETATM    8  C   UNK     0      60.057  20.746  24.808  0.00  0.00     0.012 C 
HETATM    9  C   UNK     0      61.449  20.969  24.176  0.00  0.00     0.044 C 
HETATM   10  C   UNK     0      63.142  16.943  24.729  0.00  0.00     0.128 C 
HETATM   11  C   UNK     0      63.830  17.787  23.594  0.00  0.00     0.055 C 
HETATM   12  C   UNK     0      65.390  17.508  23.439  0.00  0.00    -0.021 C 
HETATM   13  C   UNK     0      63.476  19.281  23.743  0.00  0.00    -0.034 C 
HETATM   14  C   UNK     0      66.067  18.657  22.636  0.00  0.00     0.071 C 
HETATM   15  C   UNK     0      65.661  16.132  22.724  0.00  0.00     0.045 C 
HETATM   16  C   UNK     0      66.076  17.445  24.833  0.00  0.00     0.017 C 
HETATM   17  C   UNK     0      65.715  18.707  21.139  0.00  0.00     0.047 C 
HETATM   18  C   UNK     0      65.761  20.006  23.252  0.00  0.00     0.154 C 
HETATM   19  C   UNK     0      65.409  17.341  20.533  0.00  0.00     0.147 C 
HETATM   20  C   UNK     0      66.129  16.219  21.268  0.00  0.00     0.147 C 
HETATM   21  O   UNK     0      66.612  20.887  23.351  0.00  0.00    -0.293 OA
HETATM   22  C   UNK     0      64.366  20.280  23.650  0.00  0.00     0.057 C 
BRANCH   5  23
HETATM   23  C   UNK     0      59.201  19.017  26.485  0.00  0.00     0.084 C 
HETATM   24  C   UNK     0      60.035  18.165  27.456  0.00  0.00     0.049 C 
BRANCH  23  25
HETATM   25  O   UNK     0      58.972  20.284  27.115  0.00  0.00    -0.387 OA
HETATM   26  H   UNK     0      59.822  20.743  27.218  0.00  0.00     0.210 HD
ENDBRANCH  23  25
BRANCH  23  27
HETATM   27  C   UNK     0      57.823  18.353  26.218  0.00  0.00     0.152 C 
BRANCH  27  28
HETATM   28  O   UNK     0      56.831  18.953  27.058  0.00  0.00    -0.393 OA
HETATM   29  H   UNK     0      56.029  19.073  26.521  0.00  0.00     0.210 HD
ENDBRANCH  27  28
BRANCH  27  30
HETATM   30  C   UNK     0      57.798  16.830  26.451  0.00  0.00     0.037 C 
BRANCH  30  31
HETATM   31  C   UNK     0      56.461  16.202  26.018  0.00  0.00     0.040 C 
BRANCH  31  32
HETATM   32  C   UNK     0      55.558  15.750  27.185  0.00  0.00     0.051 C 
HETATM   33  C   UNK     0      55.102  14.306  26.953  0.00  0.00     0.045 C 
HETATM   34  C   UNK     0      56.255  15.865  28.544  0.00  0.00     0.045 C 
BRANCH  32  35
HETATM   35  O   UNK     0      54.395  16.580  27.202  0.00  0.00    -0.391 OA
HETATM   36  H   UNK     0      54.634  17.456  26.857  0.00  0.00     0.210 HD
ENDBRANCH  32  35
ENDBRANCH  31  32
ENDBRANCH  30  31
ENDBRANCH  27  30
ENDBRANCH  23  27
ENDBRANCH   5  23
BRANCH  10  37
HETATM   37  O   UNK     0      63.200  15.552  24.425  0.00  0.00    -0.395 OA
HETATM   38  H   UNK     0      62.623  15.392  23.659  0.00  0.00     0.210 HD
ENDBRANCH  10  37
BRANCH  19  39
HETATM   39  O   UNK     0      65.782  17.355  19.158  0.00  0.00    -0.393 OA
HETATM   40  H   UNK     0      66.055  18.258  18.926  0.00  0.00     0.210 HD
ENDBRANCH  19  39
BRANCH  20  41
HETATM   41  O   UNK     0      67.541  16.436  21.245  0.00  0.00    -0.393 OA
HETATM   42  H   UNK     0      67.950  15.770  21.822  0.00  0.00     0.210 HD
ENDBRANCH  20  41
ENDBRANCH   1   3
TORSDOF 12
ENDMDL
MODEL 6
REMARK VINA RESULT:      -8.3      2.314      4.088
REMARK  12 active torsions:
REMARK  status: ('A' for Active; 'I' for Inactive)
REMARK    1  A    between atoms: O_1  and  C_10 
REMARK    2  A    between atoms: O_2  and  C_17 
REMARK    3  A    between atoms: O_3  and  C_20 
REMARK    4  A    between atoms: O_4  and  C_27 
REMARK    5  A    between atoms: O_6  and  C_29 
REMARK    6  A    between atoms: O_7  and  C_28 
REMARK    7  A    between atoms: O_8  and  C_33 
REMARK    8  A    between atoms: C_11  and  C_20 
REMARK    9  A    between atoms: C_20  and  C_28 
REMARK   10  A    between atoms: C_28  and  C_31 
REMARK   11  A    between atoms: C_31  and  C_32 
REMARK   12  A    between atoms: C_32  and  C_33 
ROOT
HETATM    1  O   UNK     0      61.059  19.360  23.378  0.00  0.00    -0.384 OA
HETATM    2  H   UNK     0      61.107  19.381  22.412  0.00  0.00     0.211 HD
ENDROOT
BRANCH   1   3
HETATM    3  C   UNK     0      61.880  18.301  23.920  0.00  0.00     0.090 C 
HETATM    4  C   UNK     0      63.268  18.869  24.314  0.00  0.00    -0.000 C 
HETATM    5  C   UNK     0      63.809  19.299  22.925  0.00  0.00     0.034 C 
HETATM    6  C   UNK     0      63.060  20.034  25.292  0.00  0.00     0.045 C 
HETATM    7  C   UNK     0      64.198  17.806  24.963  0.00  0.00     0.019 C 
HETATM    8  C   UNK     0      63.349  18.163  21.983  0.00  0.00     0.012 C 
HETATM    9  C   UNK     0      62.227  17.402  22.725  0.00  0.00     0.044 C 
HETATM   10  C   UNK     0      62.285  19.585  26.547  0.00  0.00     0.128 C 
HETATM   11  C   UNK     0      60.935  18.833  26.248  0.00  0.00     0.055 C 
HETATM   12  C   UNK     0      60.214  18.261  27.548  0.00  0.00    -0.021 C 
HETATM   13  C   UNK     0      61.137  17.784  25.135  0.00  0.00    -0.034 C 
HETATM   14  C   UNK     0      59.162  17.185  27.152  0.00  0.00     0.071 C 
HETATM   15  C   UNK     0      59.514  19.406  28.369  0.00  0.00     0.045 C 
HETATM   16  C   UNK     0      61.246  17.582  28.492  0.00  0.00     0.017 C 
HETATM   17  C   UNK     0      57.909  17.722  26.439  0.00  0.00     0.047 C 
HETATM   18  C   UNK     0      59.785  16.105  26.291  0.00  0.00     0.154 C 
HETATM   19  C   UNK     0      57.529  19.141  26.849  0.00  0.00     0.147 C 
HETATM   20  C   UNK     0      57.987  19.465  28.264  0.00  0.00     0.147 C 
HETATM   21  O   UNK     0      59.513  14.915  26.438  0.00  0.00    -0.293 OA
HETATM   22  C   UNK     0      60.668  16.529  25.187  0.00  0.00     0.057 C 
BRANCH   5  23
HETATM   23  C   UNK     0      65.304  19.575  22.833  0.00  0.00     0.084 C 
HETATM   24  C   UNK     0      65.554  20.796  21.933  0.00  0.00     0.049 C 
BRANCH  23  25
HETATM   25  O   UNK     0      65.786  19.902  24.143  0.00  0.00    -0.387 OA
HETATM   26  H   UNK     0      66.523  19.310  24.364  0.00  0.00     0.210 HD
ENDBRANCH  23  25
BRANCH  23  27
HETATM   27  C   UNK     0      66.097  18.343  22.319  0.00  0.00     0.152 C 
BRANCH  27  28
HETATM   28  O   UNK     0      67.107  17.991  23.271  0.00  0.00    -0.393 OA
HETATM   29  H   UNK     0      67.497  18.819  23.600  0.00  0.00     0.210 HD
ENDBRANCH  27  28
BRANCH  27  30
HETATM   30  C   UNK     0      66.774  18.552  20.950  0.00  0.00     0.037 C 
BRANCH  30  31
HETATM   31  C   UNK     0      66.906  17.235  20.164  0.00  0.00     0.040 C 
BRANCH  31  32
HETATM   32  C   UNK     0      68.332  16.930  19.660  0.00  0.00     0.051 C 
HETATM   33  C   UNK     0      69.357  17.441  20.678  0.00  0.00     0.045 C 
HETATM   34  C   UNK     0      68.555  15.438  19.400  0.00  0.00     0.045 C 
BRANCH  32  35
HETATM   35  O   UNK     0      68.538  17.638  18.436  0.00  0.00    -0.391 OA
HETATM   36  H   UNK     0      68.644  16.992  17.718  0.00  0.00     0.210 HD
ENDBRANCH  32  35
ENDBRANCH  31  32
ENDBRANCH  30  31
ENDBRANCH  27  30
ENDBRANCH  23  27
ENDBRANCH   5  23
BRANCH  10  37
HETATM   37  O   UNK     0      62.046  20.750  27.333  0.00  0.00    -0.395 OA
HETATM   38  H   UNK     0      61.204  21.138  27.039  0.00  0.00     0.210 HD
ENDBRANCH  10  37
BRANCH  19  39
HETATM   39  O   UNK     0      56.116  19.287  26.738  0.00  0.00    -0.393 OA
HETATM   40  H   UNK     0      55.932  20.042  26.155  0.00  0.00     0.210 HD
ENDBRANCH  19  39
BRANCH  20  41
HETATM   41  O   UNK     0      57.421  18.540  29.194  0.00  0.00    -0.393 OA
HETATM   42  H   UNK     0      57.341  17.682  28.744  0.00  0.00     0.210 HD
ENDBRANCH  20  41
ENDBRANCH   1   3
TORSDOF 12
ENDMDL
MODEL 7
REMARK VINA RESULT:      -8.3     20.338     23.228
REMARK  12 active torsions:
REMARK  status: ('A' for Active; 'I' for Inactive)
REMARK    1  A    between atoms: O_1  and  C_10 
REMARK    2  A    between atoms: O_2  and  C_17 
REMARK    3  A    between atoms: O_3  and  C_20 
REMARK    4  A    between atoms: O_4  and  C_27 
REMARK    5  A    between atoms: O_6  and  C_29 
REMARK    6  A    between atoms: O_7  and  C_28 
REMARK    7  A    between atoms: O_8  and  C_33 
REMARK    8  A    between atoms: C_11  and  C_20 
REMARK    9  A    between atoms: C_20  and  C_28 
REMARK   10  A    between atoms: C_28  and  C_31 
REMARK   11  A    between atoms: C_31  and  C_32 
REMARK   12  A    between atoms: C_32  and  C_33 
ROOT
HETATM    1  O   UNK     0      72.572  35.147  33.163  0.00  0.00    -0.384 OA
HETATM    2  H   UNK     0      73.475  35.222  33.504  0.00  0.00     0.211 HD
ENDROOT
BRANCH   1   3
HETATM    3  C   UNK     0      72.416  33.961  32.350  0.00  0.00     0.090 C 
HETATM    4  C   UNK     0      73.036  34.205  30.950  0.00  0.00    -0.000 C 
HETATM    5  C   UNK     0      72.115  35.334  30.418  0.00  0.00     0.034 C 
HETATM    6  C   UNK     0      74.501  34.627  31.131  0.00  0.00     0.045 C 
HETATM    7  C   UNK     0      72.965  32.956  30.028  0.00  0.00     0.019 C 
HETATM    8  C   UNK     0      70.707  34.920  30.906  0.00  0.00     0.012 C 
HETATM    9  C   UNK     0      70.917  33.881  32.029  0.00  0.00     0.044 C 
HETATM   10  C   UNK     0      75.305  33.557  31.898  0.00  0.00     0.128 C 
HETATM   11  C   UNK     0      74.661  33.108  33.262  0.00  0.00     0.055 C 
HETATM   12  C   UNK     0      75.432  31.912  33.976  0.00  0.00    -0.021 C 
HETATM   13  C   UNK     0      73.148  32.858  33.087  0.00  0.00    -0.034 C 
HETATM   14  C   UNK     0      74.520  31.246  35.047  0.00  0.00     0.071 C 
HETATM   15  C   UNK     0      76.765  32.407  34.650  0.00  0.00     0.045 C 
HETATM   16  C   UNK     0      75.818  30.816  32.944  0.00  0.00     0.017 C 
HETATM   17  C   UNK     0      74.251  32.097  36.301  0.00  0.00     0.047 C 
HETATM   18  C   UNK     0      73.193  30.827  34.449  0.00  0.00     0.154 C 
HETATM   19  C   UNK     0      75.389  33.047  36.656  0.00  0.00     0.147 C 
HETATM   20  C   UNK     0      76.736  32.523  36.178  0.00  0.00     0.147 C 
HETATM   21  O   UNK     0      72.656  29.760  34.737  0.00  0.00    -0.293 OA
HETATM   22  C   UNK     0      72.499  31.790  33.573  0.00  0.00     0.057 C 
BRANCH   5  23
HETATM   23  C   UNK     0      72.166  35.606  28.921  0.00  0.00     0.084 C 
HETATM   24  C   UNK     0      73.465  35.033  28.331  0.00  0.00     0.049 C 
BRANCH  23  25
HETATM   25  O   UNK     0      71.073  34.920  28.299  0.00  0.00    -0.387 OA
HETATM   26  H   UNK     0      70.246  35.382  28.516  0.00  0.00     0.210 HD
ENDBRANCH  23  25
BRANCH  23  27
HETATM   27  C   UNK     0      72.037  37.119  28.595  0.00  0.00     0.152 C 
BRANCH  27  28
HETATM   28  O   UNK     0      72.902  37.450  27.503  0.00  0.00    -0.393 OA
HETATM   29  H   UNK     0      73.580  38.058  27.843  0.00  0.00     0.210 HD
ENDBRANCH  27  28
BRANCH  27  30
HETATM   30  C   UNK     0      72.370  38.052  29.776  0.00  0.00     0.037 C 
BRANCH  30  31
HETATM   31  C   UNK     0      73.477  39.061  29.421  0.00  0.00     0.040 C 
BRANCH  31  32
HETATM   32  C   UNK     0      74.434  39.397  30.583  0.00  0.00     0.051 C 
HETATM   33  C   UNK     0      74.083  40.774  31.156  0.00  0.00     0.045 C 
HETATM   34  C   UNK     0      74.397  38.345  31.696  0.00  0.00     0.045 C 
BRANCH  32  35
HETATM   35  O   UNK     0      75.765  39.461  30.067  0.00  0.00    -0.391 OA
HETATM   36  H   UNK     0      75.751  39.967  29.237  0.00  0.00     0.210 HD
ENDBRANCH  32  35
ENDBRANCH  31  32
ENDBRANCH  30  31
ENDBRANCH  27  30
ENDBRANCH  23  27
ENDBRANCH   5  23
BRANCH  10  37
HETATM   37  O   UNK     0      76.611  34.087  32.112  0.00  0.00    -0.395 OA
HETATM   38  H   UNK     0      76.642  34.442  33.016  0.00  0.00     0.210 HD
ENDBRANCH  10  37
BRANCH  19  39
HETATM   39  O   UNK     0      75.403  33.237  38.068  0.00  0.00    -0.393 OA
HETATM   40  H   UNK     0      74.799  32.590  38.469  0.00  0.00     0.210 HD
ENDBRANCH  19  39
BRANCH  20  41
HETATM   41  O   UNK     0      77.001  31.239  36.746  0.00  0.00    -0.393 OA
HETATM   42  H   UNK     0      77.632  30.784  36.163  0.00  0.00     0.210 HD
ENDBRANCH  20  41
ENDBRANCH   1   3
TORSDOF 12
ENDMDL
MODEL 8
REMARK VINA RESULT:      -8.3     20.822     23.655
REMARK  12 active torsions:
REMARK  status: ('A' for Active; 'I' for Inactive)
REMARK    1  A    between atoms: O_1  and  C_10 
REMARK    2  A    between atoms: O_2  and  C_17 
REMARK    3  A    between atoms: O_3  and  C_20 
REMARK    4  A    between atoms: O_4  and  C_27 
REMARK    5  A    between atoms: O_6  and  C_29 
REMARK    6  A    between atoms: O_7  and  C_28 
REMARK    7  A    between atoms: O_8  and  C_33 
REMARK    8  A    between atoms: C_11  and  C_20 
REMARK    9  A    between atoms: C_20  and  C_28 
REMARK   10  A    between atoms: C_28  and  C_31 
REMARK   11  A    between atoms: C_31  and  C_32 
REMARK   12  A    between atoms: C_32  and  C_33 
ROOT
HETATM    1  O   UNK     0      73.983  33.075  31.278  0.00  0.00    -0.384 OA
HETATM    2  H   UNK     0      73.735  33.425  30.410  0.00  0.00     0.211 HD
ENDROOT
BRANCH   1   3
HETATM    3  C   UNK     0      73.108  33.576  32.313  0.00  0.00     0.090 C 
HETATM    4  C   UNK     0      73.901  33.728  33.637  0.00  0.00    -0.000 C 
HETATM    5  C   UNK     0      74.268  32.249  33.925  0.00  0.00     0.034 C 
HETATM    6  C   UNK     0      75.113  34.634  33.378  0.00  0.00     0.045 C 
HETATM    7  C   UNK     0      73.048  34.320  34.793  0.00  0.00     0.019 C 
HETATM    8  C   UNK     0      72.993  31.470  33.528  0.00  0.00     0.012 C 
HETATM    9  C   UNK     0      72.156  32.416  32.640  0.00  0.00     0.044 C 
HETATM   10  C   UNK     0      74.682  36.016  32.846  0.00  0.00     0.128 C 
HETATM   11  C   UNK     0      73.722  35.966  31.601  0.00  0.00     0.055 C 
HETATM   12  C   UNK     0      73.181  37.394  31.147  0.00  0.00    -0.021 C 
HETATM   13  C   UNK     0      72.609  34.919  31.818  0.00  0.00    -0.034 C 
HETATM   14  C   UNK     0      71.933  37.231  30.231  0.00  0.00     0.071 C 
HETATM   15  C   UNK     0      74.289  38.215  30.390  0.00  0.00     0.045 C 
HETATM   16  C   UNK     0      72.748  38.234  32.381  0.00  0.00     0.017 C 
HETATM   17  C   UNK     0      72.217  36.661  28.829  0.00  0.00     0.047 C 
HETATM   18  C   UNK     0      70.875  36.377  30.897  0.00  0.00     0.154 C 
HETATM   19  C   UNK     0      73.601  37.012  28.292  0.00  0.00     0.147 C 
HETATM   20  C   UNK     0      74.120  38.320  28.871  0.00  0.00     0.147 C 
HETATM   21  O   UNK     0      69.679  36.651  30.831  0.00  0.00    -0.293 OA
HETATM   22  C   UNK     0      71.312  35.132  31.557  0.00  0.00     0.057 C 
BRANCH   5  23
HETATM   23  C   UNK     0      74.743  31.928  35.336  0.00  0.00     0.084 C 
HETATM   24  C   UNK     0      76.279  31.918  35.380  0.00  0.00     0.049 C 
BRANCH  23  25
HETATM   25  O   UNK     0      74.295  32.971  36.212  0.00  0.00    -0.387 OA
HETATM   26  H   UNK     0      74.378  33.824  35.755  0.00  0.00     0.210 HD
ENDBRANCH  23  25
BRANCH  23  27
HETATM   27  C   UNK     0      74.171  30.581  35.855  0.00  0.00     0.152 C 
BRANCH  27  28
HETATM   28  O   UNK     0      73.569  30.778  37.139  0.00  0.00    -0.393 OA
HETATM   29  H   UNK     0      72.610  30.863  37.000  0.00  0.00     0.210 HD
ENDBRANCH  27  28
BRANCH  27  30
HETATM   30  C   UNK     0      75.216  29.455  35.978  0.00  0.00     0.037 C 
BRANCH  30  31
HETATM   31  C   UNK     0      75.433  29.026  37.440  0.00  0.00     0.040 C 
BRANCH  31  32
HETATM   32  C   UNK     0      76.913  28.939  37.870  0.00  0.00     0.051 C 
HETATM   33  C   UNK     0      77.229  30.071  38.854  0.00  0.00     0.045 C 
HETATM   34  C   UNK     0      77.262  27.588  38.500  0.00  0.00     0.045 C 
BRANCH  32  35
HETATM   35  O   UNK     0      77.729  29.123  36.712  0.00  0.00    -0.391 OA
HETATM   36  H   UNK     0      77.988  28.249  36.373  0.00  0.00     0.210 HD
ENDBRANCH  32  35
ENDBRANCH  31  32
ENDBRANCH  30  31
ENDBRANCH  27  30
ENDBRANCH  23  27
ENDBRANCH   5  23
BRANCH  10  37
HETATM   37  O   UNK     0      75.872  36.736  32.534  0.00  0.00    -0.395 OA
HETATM   38  H   UNK     0      76.625  36.136  32.668  0.00  0.00     0.210 HD
ENDBRANCH  10  37
BRANCH  19  39
HETATM   39  O   UNK     0      73.534  37.088  26.871  0.00  0.00    -0.393 OA
HETATM   40  H   UNK     0      73.976  36.306  26.502  0.00  0.00     0.210 HD
ENDBRANCH  19  39
BRANCH  20  41
HETATM   41  O   UNK     0      73.218  39.388  28.575  0.00  0.00    -0.393 OA
HETATM   42  H   UNK     0      72.444  39.004  28.131  0.00  0.00     0.210 HD
ENDBRANCH  20  41
ENDBRANCH   1   3
TORSDOF 12
ENDMDL
MODEL 9
REMARK VINA RESULT:      -8.3      2.215      2.880
REMARK  12 active torsions:
REMARK  status: ('A' for Active; 'I' for Inactive)
REMARK    1  A    between atoms: O_1  and  C_10 
REMARK    2  A    between atoms: O_2  and  C_17 
REMARK    3  A    between atoms: O_3  and  C_20 
REMARK    4  A    between atoms: O_4  and  C_27 
REMARK    5  A    between atoms: O_6  and  C_29 
REMARK    6  A    between atoms: O_7  and  C_28 
REMARK    7  A    between atoms: O_8  and  C_33 
REMARK    8  A    between atoms: C_11  and  C_20 
REMARK    9  A    between atoms: C_20  and  C_28 
REMARK   10  A    between atoms: C_28  and  C_31 
REMARK   11  A    between atoms: C_31  and  C_32 
REMARK   12  A    between atoms: C_32  and  C_33 
ROOT
HETATM    1  O   UNK     0      63.308  18.006  26.557  0.00  0.00    -0.384 OA
HETATM    2  H   UNK     0      64.183  18.420  26.582  0.00  0.00     0.211 HD
ENDROOT
BRANCH   1   3
HETATM    3  C   UNK     0      62.430  18.695  25.638  0.00  0.00     0.090 C 
HETATM    4  C   UNK     0      62.165  17.798  24.401  0.00  0.00    -0.000 C 
HETATM    5  C   UNK     0      63.592  17.706  23.799  0.00  0.00     0.034 C 
HETATM    6  C   UNK     0      61.603  16.454  24.883  0.00  0.00     0.045 C 
HETATM    7  C   UNK     0      61.179  18.439  23.385  0.00  0.00     0.019 C 
HETATM    8  C   UNK     0      64.160  19.133  23.982  0.00  0.00     0.012 C 
HETATM    9  C   UNK     0      63.274  19.829  25.039  0.00  0.00     0.044 C 
HETATM   10  C   UNK     0      60.307  16.643  25.699  0.00  0.00     0.128 C 
HETATM   11  C   UNK     0      60.424  17.678  26.879  0.00  0.00     0.055 C 
HETATM   12  C   UNK     0      59.046  17.961  27.626  0.00  0.00    -0.021 C 
HETATM   13  C   UNK     0      61.151  18.955  26.407  0.00  0.00    -0.034 C 
HETATM   14  C   UNK     0      59.141  19.276  28.453  0.00  0.00     0.071 C 
HETATM   15  C   UNK     0      58.649  16.769  28.573  0.00  0.00     0.045 C 
HETATM   16  C   UNK     0      57.892  18.137  26.599  0.00  0.00     0.017 C 
HETATM   17  C   UNK     0      60.043  19.205  29.699  0.00  0.00     0.047 C 
HETATM   18  C   UNK     0      59.599  20.432  27.588  0.00  0.00     0.154 C 
HETATM   19  C   UNK     0      60.106  17.820  30.334  0.00  0.00     0.147 C 
HETATM   20  C   UNK     0      58.838  17.017  30.073  0.00  0.00     0.147 C 
HETATM   21  O   UNK     0      59.107  21.554  27.685  0.00  0.00    -0.293 OA
HETATM   22  C   UNK     0      60.738  20.202  26.678  0.00  0.00     0.057 C 
BRANCH   5  23
HETATM   23  C   UNK     0      63.695  17.208  22.364  0.00  0.00     0.084 C 
HETATM   24  C   UNK     0      63.176  15.764  22.275  0.00  0.00     0.049 C 
BRANCH  23  25
HETATM   25  O   UNK     0      62.847  18.020  21.541  0.00  0.00    -0.387 OA
HETATM   26  H   UNK     0      62.884  17.689  20.628  0.00  0.00     0.210 HD
ENDBRANCH  23  25
BRANCH  23  27
HETATM   27  C   UNK     0      65.143  17.305  21.812  0.00  0.00     0.152 C 
BRANCH  27  28
HETATM   28  O   UNK     0      65.140  18.044  20.585  0.00  0.00    -0.393 OA
HETATM   29  H   UNK     0      65.893  17.732  20.056  0.00  0.00     0.210 HD
ENDBRANCH  27  28
BRANCH  27  30
HETATM   30  C   UNK     0      65.816  15.943  21.555  0.00  0.00     0.037 C 
BRANCH  30  31
HETATM   31  C   UNK     0      67.236  15.880  22.146  0.00  0.00     0.040 C 
BRANCH  31  32
HETATM   32  C   UNK     0      68.368  16.067  21.113  0.00  0.00     0.051 C 
HETATM   33  C   UNK     0      67.805  15.891  19.698  0.00  0.00     0.045 C 
HETATM   34  C   UNK     0      69.054  17.429  21.235  0.00  0.00     0.045 C 
BRANCH  32  35
HETATM   35  O   UNK     0      69.345  15.047  21.326  0.00  0.00    -0.391 OA
HETATM   36  H   UNK     0      69.693  14.765  20.464  0.00  0.00     0.210 HD
ENDBRANCH  32  35
ENDBRANCH  31  32
ENDBRANCH  30  31
ENDBRANCH  27  30
ENDBRANCH  23  27
ENDBRANCH   5  23
BRANCH  10  37
HETATM   37  O   UNK     0      59.930  15.361  26.192  0.00  0.00    -0.395 OA
HETATM   38  H   UNK     0      58.961  15.295  26.133  0.00  0.00     0.210 HD
ENDBRANCH  10  37
BRANCH  19  39
HETATM   39  O   UNK     0      60.321  17.967  31.734  0.00  0.00    -0.393 OA
HETATM   40  H   UNK     0      59.911  17.212  32.187  0.00  0.00     0.210 HD
ENDBRANCH  19  39
BRANCH  20  41
HETATM   41  O   UNK     0      57.697  17.713  30.577  0.00  0.00    -0.393 OA
HETATM   42  H   UNK     0      57.801  18.652  30.350  0.00  0.00     0.210 HD
ENDBRANCH  20  41
ENDBRANCH   1   3
TORSDOF 12
ENDMDL
