MODEL 1
REMARK VINA RESULT:    -8.330      0.000      0.000
REMARK INTER + INTRA:         -14.801
REMARK INTER:                 -13.687
REMARK INTRA:                  -1.114
REMARK UNBOUND:                -1.114
REMARK  11 active torsions:
REMARK  status: ('A' for Active; 'I' for Inactive)
REMARK    1  A    between atoms: C_7  and  C_14 
REMARK    2  A    between atoms: C_8  and  C_10 
REMARK    3  A    between atoms: C_10  and  C_11 
REMARK    4  A    between atoms: C_11  and  C_12 
REMARK    5  A    between atoms: C_14  and  C_15 
REMARK    6  A    between atoms: C_19  and  O_23 
REMARK    7  A    between atoms: O_23  and  C_25 
REMARK    8  A    between atoms: C_25  and  C_26 
REMARK    9  A    between atoms: C_26  and  N_27 
REMARK   10  A    between atoms: N_27  and  C_28 
REMARK   11  A    between atoms: N_27  and  C_29 
ROOT
HETATM    1  C   UNL     1       9.103  32.253  33.847  1.00  0.00     0.018 C 
HETATM    2  C   UNL     1       8.808  31.122  34.590  1.00  0.00     0.036 C 
HETATM    3  C   UNL     1       8.713  29.847  33.999  1.00  0.00     0.042 C 
HETATM    4  C   UNL     1       8.629  29.707  32.600  1.00  0.00     0.101 C 
HETATM    5  C   UNL     1       8.762  30.894  31.847  1.00  0.00     0.042 C 
HETATM    6  C   UNL     1       9.034  32.136  32.454  1.00  0.00     0.036 C 
HETATM    7  I   UNL     1       9.007  28.331  35.482  1.00  0.00    -0.042 I 
HETATM    8  I   UNL     1       8.585  30.905  29.740  1.00  0.00    -0.042 I 
ENDROOT
BRANCH   1   9
HETATM    9  C   UNL     1       9.491  33.567  34.462  1.00  0.00     0.195 C 
HETATM   10  O   UNL     1      10.649  33.929  34.255  1.00  0.00    -0.287 OA
BRANCH   9  11
HETATM   11  C   UNL     1       8.562  34.426  35.222  1.00  0.00     0.058 C 
HETATM   12  C   UNL     1       7.674  35.518  34.879  1.00  0.00     0.014 C 
HETATM   13  C   UNL     1       7.155  36.126  33.715  1.00  0.00     0.015 C 
HETATM   14  C   UNL     1       7.280  36.083  36.086  1.00  0.00     0.087 C 
HETATM   15  C   UNL     1       6.442  37.334  33.809  1.00  0.00     0.001 C 
HETATM   16  C   UNL     1       6.167  37.906  35.047  1.00  0.00     0.003 C 
HETATM   17  C   UNL     1       6.552  37.266  36.224  1.00  0.00     0.038 C 
HETATM   18  O   UNL     1       7.674  35.306  37.116  1.00  0.00    -0.313 OA
HETATM   19  C   UNL     1       8.344  34.244  36.590  1.00  0.00     0.069 C 
BRANCH  19  20
HETATM   20  C   UNL     1       8.692  33.158  37.557  1.00  0.00     0.066 C 
BRANCH  20  21
HETATM   21  C   UNL     1       9.816  33.572  38.517  1.00  0.00     0.006 C 
BRANCH  21  22
HETATM   22  C   UNL     1      11.200  33.397  37.898  1.00  0.00    -0.004 C 
HETATM   23  C   UNL     1      12.209  32.940  38.943  1.00  0.00     0.005 C 
ENDBRANCH  21  22
ENDBRANCH  20  21
ENDBRANCH  19  20
ENDBRANCH   9  11
ENDBRANCH   1   9
BRANCH   4  24
HETATM   24  O   UNL     1       8.428  28.566  31.853  1.00  0.00    -0.347 OA
BRANCH  24  25
HETATM   25  C   UNL     1       9.179  27.410  32.204  1.00  0.00     0.206 C 
BRANCH  25  26
HETATM   26  C   UNL     1       9.302  26.363  31.091  1.00  0.00     0.299 C 
BRANCH  26  27
HETATM   27  N   UNL     1       9.560  25.014  31.662  1.00  0.00     0.089 N 
BRANCH  27  28
HETATM   28  C   UNL     1      10.907  24.493  31.350  1.00  0.00     0.268 C 
HETATM   29  C   UNL     1      11.438  24.939  29.991  1.00  0.00     0.037 C 
ENDBRANCH  27  28
BRANCH  27  30
HETATM   30  C   UNL     1       9.308  25.009  33.114  1.00  0.00     0.268 C 
HETATM   31  C   UNL     1       9.255  23.588  33.676  1.00  0.00     0.037 C 
ENDBRANCH  27  30
ENDBRANCH  26  27
ENDBRANCH  25  26
ENDBRANCH  24  25
ENDBRANCH   4  24
TORSDOF 11
ENDMDL
MODEL 2
REMARK VINA RESULT:    -7.905      3.887      7.415
REMARK INTER + INTRA:         -14.103
REMARK INTER:                 -12.325
REMARK INTRA:                  -1.779
REMARK UNBOUND:                -1.114
REMARK  11 active torsions:
REMARK  status: ('A' for Active; 'I' for Inactive)
REMARK    1  A    between atoms: C_7  and  C_14 
REMARK    2  A    between atoms: C_8  and  C_10 
REMARK    3  A    between atoms: C_10  and  C_11 
REMARK    4  A    between atoms: C_11  and  C_12 
REMARK    5  A    between atoms: C_14  and  C_15 
REMARK    6  A    between atoms: C_19  and  O_23 
REMARK    7  A    between atoms: O_23  and  C_25 
REMARK    8  A    between atoms: C_25  and  C_26 
REMARK    9  A    between atoms: C_26  and  N_27 
REMARK   10  A    between atoms: N_27  and  C_28 
REMARK   11  A    between atoms: N_27  and  C_29 
ROOT
HETATM    1  C   UNL     1       9.339  33.087  37.307  1.00  0.00     0.018 C 
HETATM    2  C   UNL     1       9.119  34.401  36.926  1.00  0.00     0.036 C 
HETATM    3  C   UNL     1       8.618  34.732  35.651  1.00  0.00     0.042 C 
HETATM    4  C   UNL     1       8.591  33.776  34.618  1.00  0.00     0.101 C 
HETATM    5  C   UNL     1       8.981  32.466  34.973  1.00  0.00     0.042 C 
HETATM    6  C   UNL     1       9.310  32.118  36.298  1.00  0.00     0.036 C 
HETATM    7  I   UNL     1       7.719  36.674  35.703  1.00  0.00    -0.042 I 
HETATM    8  I   UNL     1       9.086  30.908  33.547  1.00  0.00    -0.042 I 
ENDROOT
BRANCH   1   9
HETATM    9  C   UNL     1       9.596  32.672  38.727  1.00  0.00     0.195 C 
HETATM   10  O   UNL     1       8.903  33.229  39.577  1.00  0.00    -0.287 OA
BRANCH   9  11
HETATM   11  C   UNL     1      10.564  31.628  39.116  1.00  0.00     0.058 C 
HETATM   12  C   UNL     1      12.007  31.574  39.242  1.00  0.00     0.014 C 
HETATM   13  C   UNL     1      13.097  32.471  39.242  1.00  0.00     0.015 C 
HETATM   14  C   UNL     1      12.327  30.228  39.383  1.00  0.00     0.087 C 
HETATM   15  C   UNL     1      14.413  31.980  39.201  1.00  0.00     0.001 C 
HETATM   16  C   UNL     1      14.667  30.613  39.240  1.00  0.00     0.003 C 
HETATM   17  C   UNL     1      13.620  29.702  39.372  1.00  0.00     0.038 C 
HETATM   18  O   UNL     1      11.208  29.499  39.567  1.00  0.00    -0.313 OA
HETATM   19  C   UNL     1      10.152  30.357  39.525  1.00  0.00     0.069 C 
BRANCH  19  20
HETATM   20  C   UNL     1       8.830  29.772  39.907  1.00  0.00     0.066 C 
BRANCH  20  21
HETATM   21  C   UNL     1       7.935  29.513  38.687  1.00  0.00     0.006 C 
BRANCH  21  22
HETATM   22  C   UNL     1       8.168  28.131  38.082  1.00  0.00    -0.004 C 
HETATM   23  C   UNL     1       8.496  28.235  36.599  1.00  0.00     0.005 C 
ENDBRANCH  21  22
ENDBRANCH  20  21
ENDBRANCH  19  20
ENDBRANCH   9  11
ENDBRANCH   1   9
BRANCH   4  24
HETATM   24  O   UNL     1       8.240  33.938  33.295  1.00  0.00    -0.347 OA
BRANCH  24  25
HETATM   25  C   UNL     1       9.108  34.711  32.474  1.00  0.00     0.206 C 
BRANCH  25  26
HETATM   26  C   UNL     1       8.595  34.953  31.050  1.00  0.00     0.299 C 
BRANCH  26  27
HETATM   27  N   UNL     1       9.380  34.161  30.065  1.00  0.00     0.089 N 
BRANCH  27  28
HETATM   28  C   UNL     1       9.020  32.729  30.044  1.00  0.00     0.268 C 
HETATM   29  C   UNL     1      10.011  31.856  29.280  1.00  0.00     0.037 C 
ENDBRANCH  27  28
BRANCH  27  30
HETATM   30  C   UNL     1       9.280  34.757  28.722  1.00  0.00     0.268 C 
HETATM   31  C   UNL     1      10.459  35.683  28.421  1.00  0.00     0.037 C 
ENDBRANCH  27  30
ENDBRANCH  26  27
ENDBRANCH  25  26
ENDBRANCH  24  25
ENDBRANCH   4  24
TORSDOF 11
ENDMDL
MODEL 3
REMARK VINA RESULT:    -7.740      4.450      7.207
REMARK INTER + INTRA:         -13.832
REMARK INTER:                 -12.997
REMARK INTRA:                  -0.835
REMARK UNBOUND:                -1.114
REMARK  11 active torsions:
REMARK  status: ('A' for Active; 'I' for Inactive)
REMARK    1  A    between atoms: C_7  and  C_14 
REMARK    2  A    between atoms: C_8  and  C_10 
REMARK    3  A    between atoms: C_10  and  C_11 
REMARK    4  A    between atoms: C_11  and  C_12 
REMARK    5  A    between atoms: C_14  and  C_15 
REMARK    6  A    between atoms: C_19  and  O_23 
REMARK    7  A    between atoms: O_23  and  C_25 
REMARK    8  A    between atoms: C_25  and  C_26 
REMARK    9  A    between atoms: C_26  and  N_27 
REMARK   10  A    between atoms: N_27  and  C_28 
REMARK   11  A    between atoms: N_27  and  C_29 
ROOT
HETATM    1  C   UNL     1       9.410  26.349  31.710  1.00  0.00     0.018 C 
HETATM    2  C   UNL     1       9.044  25.383  32.633  1.00  0.00     0.036 C 
HETATM    3  C   UNL     1       9.697  24.136  32.704  1.00  0.00     0.042 C 
HETATM    4  C   UNL     1      10.546  23.709  31.666  1.00  0.00     0.101 C 
HETATM    5  C   UNL     1      10.784  24.643  30.633  1.00  0.00     0.042 C 
HETATM    6  C   UNL     1      10.260  25.950  30.673  1.00  0.00     0.036 C 
HETATM    7  I   UNL     1       9.407  23.271  34.640  1.00  0.00    -0.042 I 
HETATM    8  I   UNL     1      11.966  24.163  28.946  1.00  0.00    -0.042 I 
ENDROOT
BRANCH   1   9
HETATM    9  C   UNL     1       8.946  27.775  31.780  1.00  0.00     0.195 C 
HETATM   10  O   UNL     1       8.418  28.213  30.758  1.00  0.00    -0.287 OA
BRANCH   9  11
HETATM   11  C   UNL     1       9.045  28.615  32.990  1.00  0.00     0.058 C 
HETATM   12  C   UNL     1       9.358  28.361  34.382  1.00  0.00     0.014 C 
HETATM   13  C   UNL     1       9.868  27.305  35.170  1.00  0.00     0.015 C 
HETATM   14  C   UNL     1       9.017  29.521  35.068  1.00  0.00     0.087 C 
HETATM   15  C   UNL     1       9.840  27.397  36.572  1.00  0.00     0.001 C 
HETATM   16  C   UNL     1       9.389  28.551  37.204  1.00  0.00     0.003 C 
HETATM   17  C   UNL     1       9.000  29.662  36.456  1.00  0.00     0.038 C 
HETATM   18  O   UNL     1       8.735  30.511  34.196  1.00  0.00    -0.313 OA
HETATM   19  C   UNL     1       8.867  29.999  32.942  1.00  0.00     0.069 C 
BRANCH  19  20
HETATM   20  C   UNL     1       8.790  30.994  31.828  1.00  0.00     0.066 C 
BRANCH  20  21
HETATM   21  C   UNL     1      10.142  31.669  31.558  1.00  0.00     0.006 C 
BRANCH  21  22
HETATM   22  C   UNL     1      10.411  31.852  30.067  1.00  0.00    -0.004 C 
HETATM   23  C   UNL     1       9.256  31.309  29.236  1.00  0.00     0.005 C 
ENDBRANCH  21  22
ENDBRANCH  20  21
ENDBRANCH  19  20
ENDBRANCH   9  11
ENDBRANCH   1   9
BRANCH   4  24
HETATM   24  O   UNL     1      11.182  22.496  31.509  1.00  0.00    -0.347 OA
BRANCH  24  25
HETATM   25  C   UNL     1      12.436  22.322  32.157  1.00  0.00     0.206 C 
BRANCH  25  26
HETATM   26  C   UNL     1      12.425  21.320  33.317  1.00  0.00     0.299 C 
BRANCH  26  27
HETATM   27  N   UNL     1      13.309  20.161  33.020  1.00  0.00     0.089 N 
BRANCH  27  28
HETATM   28  C   UNL     1      12.590  18.870  32.982  1.00  0.00     0.268 C 
HETATM   29  C   UNL     1      12.948  17.933  34.132  1.00  0.00     0.037 C 
ENDBRANCH  27  28
BRANCH  27  30
HETATM   30  C   UNL     1      14.064  20.389  31.776  1.00  0.00     0.268 C 
HETATM   31  C   UNL     1      13.795  19.298  30.740  1.00  0.00     0.037 C 
ENDBRANCH  27  30
ENDBRANCH  26  27
ENDBRANCH  25  26
ENDBRANCH  24  25
ENDBRANCH   4  24
TORSDOF 11
ENDMDL
MODEL 4
REMARK VINA RESULT:    -7.693      2.577     10.130
REMARK INTER + INTRA:         -13.754
REMARK INTER:                 -12.320
REMARK INTRA:                  -1.434
REMARK UNBOUND:                -1.114
REMARK  11 active torsions:
REMARK  status: ('A' for Active; 'I' for Inactive)
REMARK    1  A    between atoms: C_7  and  C_14 
REMARK    2  A    between atoms: C_8  and  C_10 
REMARK    3  A    between atoms: C_10  and  C_11 
REMARK    4  A    between atoms: C_11  and  C_12 
REMARK    5  A    between atoms: C_14  and  C_15 
REMARK    6  A    between atoms: C_19  and  O_23 
REMARK    7  A    between atoms: O_23  and  C_25 
REMARK    8  A    between atoms: C_25  and  C_26 
REMARK    9  A    between atoms: C_26  and  N_27 
REMARK   10  A    between atoms: N_27  and  C_28 
REMARK   11  A    between atoms: N_27  and  C_29 
ROOT
HETATM    1  C   UNL     1       9.002  27.144  32.657  1.00  0.00     0.018 C 
HETATM    2  C   UNL     1       8.616  28.134  31.768  1.00  0.00     0.036 C 
HETATM    3  C   UNL     1       8.603  29.496  32.130  1.00  0.00     0.042 C 
HETATM    4  C   UNL     1       8.703  29.883  33.480  1.00  0.00     0.101 C 
HETATM    5  C   UNL     1       8.929  28.843  34.409  1.00  0.00     0.042 C 
HETATM    6  C   UNL     1       9.115  27.507  34.004  1.00  0.00     0.036 C 
HETATM    7  I   UNL     1       8.708  30.719  30.375  1.00  0.00    -0.042 I 
HETATM    8  I   UNL     1       9.028  29.209  36.490  1.00  0.00    -0.042 I 
ENDROOT
BRANCH   1   9
HETATM    9  C   UNL     1       9.302  25.733  32.241  1.00  0.00     0.195 C 
HETATM   10  O   UNL     1       8.909  25.414  31.120  1.00  0.00    -0.287 OA
BRANCH   9  11
HETATM   11  C   UNL     1      10.063  24.776  33.068  1.00  0.00     0.058 C 
HETATM   12  C   UNL     1       9.738  23.912  34.184  1.00  0.00     0.014 C 
HETATM   13  C   UNL     1       8.584  23.450  34.856  1.00  0.00     0.015 C 
HETATM   14  C   UNL     1      10.954  23.467  34.690  1.00  0.00     0.087 C 
HETATM   15  C   UNL     1       8.708  22.741  36.063  1.00  0.00     0.001 C 
HETATM   16  C   UNL     1       9.961  22.414  36.573  1.00  0.00     0.003 C 
HETATM   17  C   UNL     1      11.119  22.741  35.870  1.00  0.00     0.038 C 
HETATM   18  O   UNL     1      11.958  23.808  33.857  1.00  0.00    -0.313 OA
HETATM   19  C   UNL     1      11.408  24.495  32.818  1.00  0.00     0.069 C 
BRANCH  19  20
HETATM   20  C   UNL     1      12.332  24.792  31.680  1.00  0.00     0.066 C 
BRANCH  20  21
HETATM   21  C   UNL     1      11.977  23.990  30.420  1.00  0.00     0.006 C 
BRANCH  21  22
HETATM   22  C   UNL     1      11.805  24.884  29.195  1.00  0.00    -0.004 C 
HETATM   23  C   UNL     1      12.276  24.174  27.933  1.00  0.00     0.005 C 
ENDBRANCH  21  22
ENDBRANCH  20  21
ENDBRANCH  19  20
ENDBRANCH   9  11
ENDBRANCH   1   9
BRANCH   4  24
HETATM   24  O   UNL     1       8.605  31.142  34.031  1.00  0.00    -0.347 OA
BRANCH  24  25
HETATM   25  C   UNL     1       9.570  32.109  33.636  1.00  0.00     0.206 C 
BRANCH  25  26
HETATM   26  C   UNL     1       9.741  33.281  34.610  1.00  0.00     0.299 C 
BRANCH  26  27
HETATM   27  N   UNL     1       8.574  33.377  35.528  1.00  0.00     0.089 N 
BRANCH  27  28
HETATM   28  C   UNL     1       8.954  33.426  36.956  1.00  0.00     0.268 C 
HETATM   29  C   UNL     1      10.452  33.596  37.187  1.00  0.00     0.037 C 
ENDBRANCH  27  28
BRANCH  27  30
HETATM   30  C   UNL     1       7.719  34.520  35.163  1.00  0.00     0.268 C 
HETATM   31  C   UNL     1       7.131  35.206  36.396  1.00  0.00     0.037 C 
ENDBRANCH  27  30
ENDBRANCH  26  27
ENDBRANCH  25  26
ENDBRANCH  24  25
ENDBRANCH   4  24
TORSDOF 11
ENDMDL
MODEL 5
REMARK VINA RESULT:    -7.683      2.854     10.323
REMARK INTER + INTRA:         -13.738
REMARK INTER:                 -12.674
REMARK INTRA:                  -1.064
REMARK UNBOUND:                -1.114
REMARK  11 active torsions:
REMARK  status: ('A' for Active; 'I' for Inactive)
REMARK    1  A    between atoms: C_7  and  C_14 
REMARK    2  A    between atoms: C_8  and  C_10 
REMARK    3  A    between atoms: C_10  and  C_11 
REMARK    4  A    between atoms: C_11  and  C_12 
REMARK    5  A    between atoms: C_14  and  C_15 
REMARK    6  A    between atoms: C_19  and  O_23 
REMARK    7  A    between atoms: O_23  and  C_25 
REMARK    8  A    between atoms: C_25  and  C_26 
REMARK    9  A    between atoms: C_26  and  N_27 
REMARK   10  A    between atoms: N_27  and  C_28 
REMARK   11  A    between atoms: N_27  and  C_29 
ROOT
HETATM    1  C   UNL     1       9.182  26.644  32.562  1.00  0.00     0.018 C 
HETATM    2  C   UNL     1       9.284  26.839  33.930  1.00  0.00     0.036 C 
HETATM    3  C   UNL     1       8.941  28.065  34.535  1.00  0.00     0.042 C 
HETATM    4  C   UNL     1       8.757  29.224  33.757  1.00  0.00     0.101 C 
HETATM    5  C   UNL     1       8.821  29.050  32.357  1.00  0.00     0.042 C 
HETATM    6  C   UNL     1       8.990  27.781  31.769  1.00  0.00     0.036 C 
HETATM    7  I   UNL     1       8.502  27.758  36.607  1.00  0.00    -0.042 I 
HETATM    8  I   UNL     1       8.650  30.681  31.022  1.00  0.00    -0.042 I 
ENDROOT
BRANCH   1   9
HETATM    9  C   UNL     1       9.260  25.292  31.913  1.00  0.00     0.195 C 
HETATM   10  O   UNL     1       8.879  25.241  30.744  1.00  0.00    -0.287 OA
BRANCH   9  11
HETATM   11  C   UNL     1       9.804  24.091  32.576  1.00  0.00     0.058 C 
HETATM   12  C   UNL     1       9.486  23.367  33.791  1.00  0.00     0.014 C 
HETATM   13  C   UNL     1       8.461  23.341  34.763  1.00  0.00     0.015 C 
HETATM   14  C   UNL     1      10.540  22.485  33.996  1.00  0.00     0.087 C 
HETATM   15  C   UNL     1       8.626  22.592  35.940  1.00  0.00     0.001 C 
HETATM   16  C   UNL     1       9.758  21.805  36.133  1.00  0.00     0.003 C 
HETATM   17  C   UNL     1      10.729  21.705  35.138  1.00  0.00     0.038 C 
HETATM   18  O   UNL     1      11.346  22.461  32.914  1.00  0.00    -0.313 OA
HETATM   19  C   UNL     1      10.837  23.341  32.010  1.00  0.00     0.069 C 
BRANCH  19  20
HETATM   20  C   UNL     1      11.474  23.317  30.657  1.00  0.00     0.066 C 
BRANCH  20  21
HETATM   21  C   UNL     1      12.220  24.621  30.342  1.00  0.00     0.006 C 
BRANCH  21  22
HETATM   22  C   UNL     1      12.001  25.081  28.903  1.00  0.00    -0.004 C 
HETATM   23  C   UNL     1      12.662  24.124  27.921  1.00  0.00     0.005 C 
ENDBRANCH  21  22
ENDBRANCH  20  21
ENDBRANCH  19  20
ENDBRANCH   9  11
ENDBRANCH   1   9
BRANCH   4  24
HETATM   24  O   UNL     1       8.524  30.518  34.171  1.00  0.00    -0.347 OA
BRANCH  24  25
HETATM   25  C   UNL     1       9.404  31.065  35.144  1.00  0.00     0.206 C 
BRANCH  25  26
HETATM   26  C   UNL     1       9.006  32.453  35.662  1.00  0.00     0.299 C 
BRANCH  26  27
HETATM   27  N   UNL     1       8.908  33.425  34.540  1.00  0.00     0.089 N 
BRANCH  27  28
HETATM   28  C   UNL     1       7.688  34.257  34.590  1.00  0.00     0.268 C 
HETATM   29  C   UNL     1       7.351  34.771  35.987  1.00  0.00     0.037 C 
ENDBRANCH  27  28
BRANCH  27  30
HETATM   30  C   UNL     1      10.120  34.259  34.470  1.00  0.00     0.268 C 
HETATM   31  C   UNL     1       9.972  35.393  33.454  1.00  0.00     0.037 C 
ENDBRANCH  27  30
ENDBRANCH  26  27
ENDBRANCH  25  26
ENDBRANCH  24  25
ENDBRANCH   4  24
TORSDOF 11
ENDMDL
MODEL 6
REMARK VINA RESULT:    -7.621      2.333      5.300
REMARK INTER + INTRA:         -13.636
REMARK INTER:                 -12.036
REMARK INTRA:                  -1.600
REMARK UNBOUND:                -1.114
REMARK  11 active torsions:
REMARK  status: ('A' for Active; 'I' for Inactive)
REMARK    1  A    between atoms: C_7  and  C_14 
REMARK    2  A    between atoms: C_8  and  C_10 
REMARK    3  A    between atoms: C_10  and  C_11 
REMARK    4  A    between atoms: C_11  and  C_12 
REMARK    5  A    between atoms: C_14  and  C_15 
REMARK    6  A    between atoms: C_19  and  O_23 
REMARK    7  A    between atoms: O_23  and  C_25 
REMARK    8  A    between atoms: C_25  and  C_26 
REMARK    9  A    between atoms: C_26  and  N_27 
REMARK   10  A    between atoms: N_27  and  C_28 
REMARK   11  A    between atoms: N_27  and  C_29 
ROOT
HETATM    1  C   UNL     1       8.973  29.952  37.044  1.00  0.00     0.018 C 
HETATM    2  C   UNL     1       8.763  28.599  37.255  1.00  0.00     0.036 C 
HETATM    3  C   UNL     1       8.853  27.660  36.208  1.00  0.00     0.042 C 
HETATM    4  C   UNL     1       8.875  28.079  34.864  1.00  0.00     0.101 C 
HETATM    5  C   UNL     1       8.919  29.475  34.649  1.00  0.00     0.042 C 
HETATM    6  C   UNL     1       9.007  30.392  35.715  1.00  0.00     0.036 C 
HETATM    7  I   UNL     1       9.225  25.709  37.009  1.00  0.00    -0.042 I 
HETATM    8  I   UNL     1       8.876  30.306  32.705  1.00  0.00    -0.042 I 
ENDROOT
BRANCH   1   9
HETATM    9  C   UNL     1       9.167  30.941  38.157  1.00  0.00     0.195 C 
HETATM   10  O   UNL     1       8.217  31.066  38.928  1.00  0.00    -0.287 OA
BRANCH   9  11
HETATM   11  C   UNL     1      10.418  31.692  38.381  1.00  0.00     0.058 C 
HETATM   12  C   UNL     1      11.747  31.343  38.840  1.00  0.00     0.014 C 
HETATM   13  C   UNL     1      12.498  30.174  39.097  1.00  0.00     0.015 C 
HETATM   14  C   UNL     1      12.393  32.547  39.092  1.00  0.00     0.087 C 
HETATM   15  C   UNL     1      13.744  30.265  39.741  1.00  0.00     0.001 C 
HETATM   16  C   UNL     1      14.293  31.503  40.062  1.00  0.00     0.003 C 
HETATM   17  C   UNL     1      13.639  32.682  39.706  1.00  0.00     0.038 C 
HETATM   18  O   UNL     1      11.657  33.577  38.627  1.00  0.00    -0.313 OA
HETATM   19  C   UNL     1      10.520  33.055  38.091  1.00  0.00     0.069 C 
BRANCH  19  20
HETATM   20  C   UNL     1       9.658  34.019  37.340  1.00  0.00     0.066 C 
BRANCH  20  21
HETATM   21  C   UNL     1       9.830  33.890  35.820  1.00  0.00     0.006 C 
BRANCH  21  22
HETATM   22  C   UNL     1       8.504  34.007  35.075  1.00  0.00    -0.004 C 
HETATM   23  C   UNL     1       8.546  35.144  34.063  1.00  0.00     0.005 C 
ENDBRANCH  21  22
ENDBRANCH  20  21
ENDBRANCH  19  20
ENDBRANCH   9  11
ENDBRANCH   1   9
BRANCH   4  24
HETATM   24  O   UNL     1       8.855  27.316  33.717  1.00  0.00    -0.347 OA
BRANCH  24  25
HETATM   25  C   UNL     1      10.004  26.527  33.432  1.00  0.00     0.206 C 
BRANCH  25  26
HETATM   26  C   UNL     1       9.780  25.420  32.395  1.00  0.00     0.299 C 
BRANCH  26  27
HETATM   27  N   UNL     1      10.996  25.226  31.561  1.00  0.00     0.089 N 
BRANCH  27  28
HETATM   28  C   UNL     1      11.686  23.946  31.819  1.00  0.00     0.268 C 
HETATM   29  C   UNL     1      12.777  24.039  32.882  1.00  0.00     0.037 C 
ENDBRANCH  27  28
BRANCH  27  30
HETATM   30  C   UNL     1      10.675  25.381  30.131  1.00  0.00     0.268 C 
HETATM   31  C   UNL     1      11.808  24.878  29.236  1.00  0.00     0.037 C 
ENDBRANCH  27  30
ENDBRANCH  26  27
ENDBRANCH  25  26
ENDBRANCH  24  25
ENDBRANCH   4  24
TORSDOF 11
ENDMDL
MODEL 7
REMARK VINA RESULT:    -7.605      3.417     10.349
REMARK INTER + INTRA:         -13.609
REMARK INTER:                 -12.896
REMARK INTRA:                  -0.714
REMARK UNBOUND:                -1.114
REMARK  11 active torsions:
REMARK  status: ('A' for Active; 'I' for Inactive)
REMARK    1  A    between atoms: C_7  and  C_14 
REMARK    2  A    between atoms: C_8  and  C_10 
REMARK    3  A    between atoms: C_10  and  C_11 
REMARK    4  A    between atoms: C_11  and  C_12 
REMARK    5  A    between atoms: C_14  and  C_15 
REMARK    6  A    between atoms: C_19  and  O_23 
REMARK    7  A    between atoms: O_23  and  C_25 
REMARK    8  A    between atoms: C_25  and  C_26 
REMARK    9  A    between atoms: C_26  and  N_27 
REMARK   10  A    between atoms: N_27  and  C_28 
REMARK   11  A    between atoms: N_27  and  C_29 
ROOT
HETATM    1  C   UNL     1       9.299  26.507  33.883  1.00  0.00     0.018 C 
HETATM    2  C   UNL     1       9.644  26.532  35.224  1.00  0.00     0.036 C 
HETATM    3  C   UNL     1       9.466  27.684  36.017  1.00  0.00     0.042 C 
HETATM    4  C   UNL     1       9.204  28.933  35.423  1.00  0.00     0.101 C 
HETATM    5  C   UNL     1       9.019  28.929  34.022  1.00  0.00     0.042 C 
HETATM    6  C   UNL     1       9.026  27.737  33.272  1.00  0.00     0.036 C 
HETATM    7  I   UNL     1       9.376  27.139  38.085  1.00  0.00    -0.042 I 
HETATM    8  I   UNL     1       8.696  30.714  32.935  1.00  0.00    -0.042 I 
ENDROOT
BRANCH   1   9
HETATM    9  C   UNL     1       9.203  25.243  33.078  1.00  0.00     0.195 C 
HETATM   10  O   UNL     1       8.867  25.385  31.903  1.00  0.00    -0.287 OA
BRANCH   9  11
HETATM   11  C   UNL     1       9.534  23.905  33.606  1.00  0.00     0.058 C 
HETATM   12  C   UNL     1       9.061  23.104  34.717  1.00  0.00     0.014 C 
HETATM   13  C   UNL     1       8.004  23.122  35.653  1.00  0.00     0.015 C 
HETATM   14  C   UNL     1       9.963  22.053  34.841  1.00  0.00     0.087 C 
HETATM   15  C   UNL     1       8.006  22.227  36.736  1.00  0.00     0.001 C 
HETATM   16  C   UNL     1       8.998  21.260  36.861  1.00  0.00     0.003 C 
HETATM   17  C   UNL     1       9.985  21.128  35.885  1.00  0.00     0.038 C 
HETATM   18  O   UNL     1      10.801  22.031  33.784  1.00  0.00    -0.313 OA
HETATM   19  C   UNL     1      10.467  23.076  32.979  1.00  0.00     0.069 C 
BRANCH  19  20
HETATM   20  C   UNL     1      11.151  23.110  31.649  1.00  0.00     0.066 C 
BRANCH  20  21
HETATM   21  C   UNL     1      12.277  24.152  31.602  1.00  0.00     0.006 C 
BRANCH  21  22
HETATM   22  C   UNL     1      11.976  25.287  30.626  1.00  0.00    -0.004 C 
HETATM   23  C   UNL     1      11.648  24.742  29.243  1.00  0.00     0.005 C 
ENDBRANCH  21  22
ENDBRANCH  20  21
ENDBRANCH  19  20
ENDBRANCH   9  11
ENDBRANCH   1   9
BRANCH   4  24
HETATM   24  O   UNL     1       9.106  30.173  36.017  1.00  0.00    -0.347 OA
BRANCH  24  25
HETATM   25  C   UNL     1       9.342  30.251  37.417  1.00  0.00     0.206 C 
BRANCH  25  26
HETATM   26  C   UNL     1       9.124  31.641  38.027  1.00  0.00     0.299 C 
BRANCH  26  27
HETATM   27  N   UNL     1      10.369  32.451  37.951  1.00  0.00     0.089 N 
BRANCH  27  28
HETATM   28  C   UNL     1      10.147  33.822  37.446  1.00  0.00     0.268 C 
HETATM   29  C   UNL     1      10.086  33.913  35.924  1.00  0.00     0.037 C 
ENDBRANCH  27  28
BRANCH  27  30
HETATM   30  C   UNL     1      11.058  32.467  39.254  1.00  0.00     0.268 C 
HETATM   31  C   UNL     1      12.523  32.880  39.116  1.00  0.00     0.037 C 
ENDBRANCH  27  30
ENDBRANCH  26  27
ENDBRANCH  25  26
ENDBRANCH  24  25
ENDBRANCH   4  24
TORSDOF 11
ENDMDL
MODEL 8
REMARK VINA RESULT:    -7.578      3.852      8.888
REMARK INTER + INTRA:         -13.565
REMARK INTER:                 -12.066
REMARK INTRA:                  -1.499
REMARK UNBOUND:                -1.114
REMARK  11 active torsions:
REMARK  status: ('A' for Active; 'I' for Inactive)
REMARK    1  A    between atoms: C_7  and  C_14 
REMARK    2  A    between atoms: C_8  and  C_10 
REMARK    3  A    between atoms: C_10  and  C_11 
REMARK    4  A    between atoms: C_11  and  C_12 
REMARK    5  A    between atoms: C_14  and  C_15 
REMARK    6  A    between atoms: C_19  and  O_23 
REMARK    7  A    between atoms: O_23  and  C_25 
REMARK    8  A    between atoms: C_25  and  C_26 
REMARK    9  A    between atoms: C_26  and  N_27 
REMARK   10  A    between atoms: N_27  and  C_28 
REMARK   11  A    between atoms: N_27  and  C_29 
ROOT
HETATM    1  C   UNL     1       8.908  30.013  33.370  1.00  0.00     0.018 C 
HETATM    2  C   UNL     1       8.953  30.565  32.101  1.00  0.00     0.036 C 
HETATM    3  C   UNL     1       9.414  31.878  31.876  1.00  0.00     0.042 C 
HETATM    4  C   UNL     1       9.576  32.777  32.948  1.00  0.00     0.101 C 
HETATM    5  C   UNL     1       9.363  32.249  34.240  1.00  0.00     0.042 C 
HETATM    6  C   UNL     1       9.074  30.886  34.451  1.00  0.00     0.036 C 
HETATM    7  I   UNL     1      10.044  32.091  29.841  1.00  0.00    -0.042 I 
HETATM    8  I   UNL     1       9.478  33.457  35.972  1.00  0.00    -0.042 I 
ENDROOT
BRANCH   1   9
HETATM    9  C   UNL     1       8.699  28.548  33.626  1.00  0.00     0.195 C 
HETATM   10  O   UNL     1       8.054  27.946  32.769  1.00  0.00    -0.287 OA
BRANCH   9  11
HETATM   11  C   UNL     1       9.260  27.827  34.786  1.00  0.00     0.058 C 
HETATM   12  C   UNL     1       9.023  27.859  36.215  1.00  0.00     0.014 C 
HETATM   13  C   UNL     1       8.082  28.409  37.114  1.00  0.00     0.015 C 
HETATM   14  C   UNL     1      10.063  27.138  36.791  1.00  0.00     0.087 C 
HETATM   15  C   UNL     1       8.323  28.366  38.498  1.00  0.00     0.001 C 
HETATM   16  C   UNL     1       9.441  27.715  39.009  1.00  0.00     0.003 C 
HETATM   17  C   UNL     1      10.322  27.049  38.159  1.00  0.00     0.038 C 
HETATM   18  O   UNL     1      10.773  26.503  35.836  1.00  0.00    -0.313 OA
HETATM   19  C   UNL     1      10.218  26.823  34.636  1.00  0.00     0.069 C 
BRANCH  19  20
HETATM   20  C   UNL     1      10.739  26.059  33.460  1.00  0.00     0.066 C 
BRANCH  20  21
HETATM   21  C   UNL     1       9.847  24.861  33.104  1.00  0.00     0.006 C 
BRANCH  21  22
HETATM   22  C   UNL     1       9.433  24.864  31.635  1.00  0.00    -0.004 C 
HETATM   23  C   UNL     1      10.339  25.773  30.816  1.00  0.00     0.005 C 
ENDBRANCH  21  22
ENDBRANCH  20  21
ENDBRANCH  19  20
ENDBRANCH   9  11
ENDBRANCH   1   9
BRANCH   4  24
HETATM   24  O   UNL     1       9.912  34.113  32.915  1.00  0.00    -0.347 OA
BRANCH  24  25
HETATM   25  C   UNL     1       9.050  34.991  32.202  1.00  0.00     0.206 C 
BRANCH  25  26
HETATM   26  C   UNL     1       9.158  36.466  32.607  1.00  0.00     0.299 C 
BRANCH  26  27
HETATM   27  N   UNL     1       9.630  37.293  31.465  1.00  0.00     0.089 N 
BRANCH  27  28
HETATM   28  C   UNL     1      11.031  37.743  31.607  1.00  0.00     0.268 C 
HETATM   29  C   UNL     1      11.336  38.383  32.958  1.00  0.00     0.037 C 
ENDBRANCH  27  28
BRANCH  27  30
HETATM   30  C   UNL     1       9.424  36.583  30.190  1.00  0.00     0.268 C 
HETATM   31  C   UNL     1      10.591  36.797  29.225  1.00  0.00     0.037 C 
ENDBRANCH  27  30
ENDBRANCH  26  27
ENDBRANCH  25  26
ENDBRANCH  24  25
ENDBRANCH   4  24
TORSDOF 11
ENDMDL
MODEL 9
REMARK VINA RESULT:    -7.558      3.447      9.051
REMARK INTER + INTRA:         -13.533
REMARK INTER:                 -12.178
REMARK INTRA:                  -1.355
REMARK UNBOUND:                -1.114
REMARK  11 active torsions:
REMARK  status: ('A' for Active; 'I' for Inactive)
REMARK    1  A    between atoms: C_7  and  C_14 
REMARK    2  A    between atoms: C_8  and  C_10 
REMARK    3  A    between atoms: C_10  and  C_11 
REMARK    4  A    between atoms: C_11  and  C_12 
REMARK    5  A    between atoms: C_14  and  C_15 
REMARK    6  A    between atoms: C_19  and  O_23 
REMARK    7  A    between atoms: O_23  and  C_25 
REMARK    8  A    between atoms: C_25  and  C_26 
REMARK    9  A    between atoms: C_26  and  N_27 
REMARK   10  A    between atoms: N_27  and  C_28 
REMARK   11  A    between atoms: N_27  and  C_29 
ROOT
HETATM    1  C   UNL     1       8.799  30.111  33.457  1.00  0.00     0.018 C 
HETATM    2  C   UNL     1       8.796  30.676  32.192  1.00  0.00     0.036 C 
HETATM    3  C   UNL     1       9.254  31.988  31.961  1.00  0.00     0.042 C 
HETATM    4  C   UNL     1       9.463  32.877  33.033  1.00  0.00     0.101 C 
HETATM    5  C   UNL     1       9.299  32.337  34.329  1.00  0.00     0.042 C 
HETATM    6  C   UNL     1       9.013  30.974  34.538  1.00  0.00     0.036 C 
HETATM    7  I   UNL     1       9.802  32.219  29.904  1.00  0.00    -0.042 I 
HETATM    8  I   UNL     1       9.490  33.528  36.065  1.00  0.00    -0.042 I 
ENDROOT
BRANCH   1   9
HETATM    9  C   UNL     1       8.594  28.646  33.708  1.00  0.00     0.195 C 
HETATM   10  O   UNL     1       7.886  28.060  32.889  1.00  0.00    -0.287 OA
BRANCH   9  11
HETATM   11  C   UNL     1       9.225  27.904  34.817  1.00  0.00     0.058 C 
HETATM   12  C   UNL     1       9.018  27.845  36.250  1.00  0.00     0.014 C 
HETATM   13  C   UNL     1       8.063  28.284  37.194  1.00  0.00     0.015 C 
HETATM   14  C   UNL     1      10.115  27.166  36.767  1.00  0.00     0.087 C 
HETATM   15  C   UNL     1       8.334  28.185  38.569  1.00  0.00     0.001 C 
HETATM   16  C   UNL     1       9.504  27.584  39.024  1.00  0.00     0.003 C 
HETATM   17  C   UNL     1      10.409  27.023  38.123  1.00  0.00     0.038 C 
HETATM   18  O   UNL     1      10.845  26.631  35.767  1.00  0.00    -0.313 OA
HETATM   19  C   UNL     1      10.244  26.975  34.596  1.00  0.00     0.069 C 
BRANCH  19  20
HETATM   20  C   UNL     1      10.789  26.310  33.372  1.00  0.00     0.066 C 
BRANCH  20  21
HETATM   21  C   UNL     1       9.833  25.246  32.815  1.00  0.00     0.006 C 
BRANCH  21  22
HETATM   22  C   UNL     1       9.428  25.529  31.371  1.00  0.00    -0.004 C 
HETATM   23  C   UNL     1      10.599  25.303  30.423  1.00  0.00     0.005 C 
ENDBRANCH  21  22
ENDBRANCH  20  21
ENDBRANCH  19  20
ENDBRANCH   9  11
ENDBRANCH   1   9
BRANCH   4  24
HETATM   24  O   UNL     1       9.803  34.212  33.000  1.00  0.00    -0.347 OA
BRANCH  24  25
HETATM   25  C   UNL     1       8.764  35.149  32.746  1.00  0.00     0.206 C 
BRANCH  25  26
HETATM   26  C   UNL     1       8.912  36.486  33.483  1.00  0.00     0.299 C 
BRANCH  26  27
HETATM   27  N   UNL     1       7.596  36.955  33.994  1.00  0.00     0.089 N 
BRANCH  27  28
HETATM   28  C   UNL     1       7.644  37.422  35.395  1.00  0.00     0.268 C 
HETATM   29  C   UNL     1       6.812  36.577  36.354  1.00  0.00     0.037 C 
ENDBRANCH  27  28
BRANCH  27  30
HETATM   30  C   UNL     1       7.032  37.985  33.105  1.00  0.00     0.268 C 
HETATM   31  C   UNL     1       5.540  37.764  32.855  1.00  0.00     0.037 C 
ENDBRANCH  27  30
ENDBRANCH  26  27
ENDBRANCH  25  26
ENDBRANCH  24  25
ENDBRANCH   4  24
TORSDOF 11
ENDMDL
MODEL 10
REMARK VINA RESULT:    -7.392      3.146      5.947
REMARK INTER + INTRA:         -13.260
REMARK INTER:                 -12.059
REMARK INTRA:                  -1.201
REMARK UNBOUND:                -1.114
REMARK  11 active torsions:
REMARK  status: ('A' for Active; 'I' for Inactive)
REMARK    1  A    between atoms: C_7  and  C_14 
REMARK    2  A    between atoms: C_8  and  C_10 
REMARK    3  A    between atoms: C_10  and  C_11 
REMARK    4  A    between atoms: C_11  and  C_12 
REMARK    5  A    between atoms: C_14  and  C_15 
REMARK    6  A    between atoms: C_19  and  O_23 
REMARK    7  A    between atoms: O_23  and  C_25 
REMARK    8  A    between atoms: C_25  and  C_26 
REMARK    9  A    between atoms: C_26  and  N_27 
REMARK   10  A    between atoms: N_27  and  C_28 
REMARK   11  A    between atoms: N_27  and  C_29 
ROOT
HETATM    1  C   UNL     1       9.114  28.789  33.683  1.00  0.00     0.018 C 
HETATM    2  C   UNL     1       9.608  27.550  33.308  1.00  0.00     0.036 C 
HETATM    3  C   UNL     1       9.563  26.438  34.172  1.00  0.00     0.042 C 
HETATM    4  C   UNL     1       9.282  26.602  35.543  1.00  0.00     0.101 C 
HETATM    5  C   UNL     1       8.942  27.910  35.955  1.00  0.00     0.042 C 
HETATM    6  C   UNL     1       8.820  28.973  35.039  1.00  0.00     0.036 C 
HETATM    7  I   UNL     1       9.685  24.627  33.038  1.00  0.00    -0.042 I 
HETATM    8  I   UNL     1       8.565  28.377  37.983  1.00  0.00    -0.042 I 
ENDROOT
BRANCH   1   9
HETATM    9  C   UNL     1       8.882  29.913  32.715  1.00  0.00     0.195 C 
HETATM   10  O   UNL     1       8.201  29.633  31.729  1.00  0.00    -0.287 OA
BRANCH   9  11
HETATM   11  C   UNL     1       9.370  31.290  32.921  1.00  0.00     0.058 C 
HETATM   12  C   UNL     1       9.420  32.194  34.053  1.00  0.00     0.014 C 
HETATM   13  C   UNL     1       9.221  32.142  35.451  1.00  0.00     0.015 C 
HETATM   14  C   UNL     1       9.747  33.441  33.532  1.00  0.00     0.087 C 
HETATM   15  C   UNL     1       9.179  33.330  36.200  1.00  0.00     0.001 C 
HETATM   16  C   UNL     1       9.413  34.562  35.599  1.00  0.00     0.003 C 
HETATM   17  C   UNL     1       9.743  34.639  34.246  1.00  0.00     0.038 C 
HETATM   18  O   UNL     1      10.104  33.325  32.237  1.00  0.00    -0.313 OA
HETATM   19  C   UNL     1       9.992  32.012  31.899  1.00  0.00     0.069 C 
BRANCH  19  20
HETATM   20  C   UNL     1      10.534  31.642  30.556  1.00  0.00     0.066 C 
BRANCH  20  21
HETATM   21  C   UNL     1       9.918  32.483  29.429  1.00  0.00     0.006 C 
BRANCH  21  22
HETATM   22  C   UNL     1       8.407  32.294  29.326  1.00  0.00    -0.004 C 
HETATM   23  C   UNL     1       7.743  33.533  28.740  1.00  0.00     0.005 C 
ENDBRANCH  21  22
ENDBRANCH  20  21
ENDBRANCH  19  20
ENDBRANCH   9  11
ENDBRANCH   1   9
BRANCH   4  24
HETATM   24  O   UNL     1       9.297  25.662  36.550  1.00  0.00    -0.347 OA
BRANCH  24  25
HETATM   25  C   UNL     1      10.523  24.987  36.801  1.00  0.00     0.206 C 
BRANCH  25  26
HETATM   26  C   UNL     1      10.373  23.602  37.442  1.00  0.00     0.299 C 
BRANCH  26  27
HETATM   27  N   UNL     1       8.961  23.140  37.375  1.00  0.00     0.089 N 
BRANCH  27  28
HETATM   28  C   UNL     1       8.713  22.167  36.291  1.00  0.00     0.268 C 
HETATM   29  C   UNL     1       9.937  21.336  35.919  1.00  0.00     0.037 C 
ENDBRANCH  27  28
BRANCH  27  30
HETATM   30  C   UNL     1       8.526  22.610  38.679  1.00  0.00     0.268 C 
HETATM   31  C   UNL     1       7.195  21.865  38.574  1.00  0.00     0.037 C 
ENDBRANCH  27  30
ENDBRANCH  26  27
ENDBRANCH  25  26
ENDBRANCH  24  25
ENDBRANCH   4  24
TORSDOF 11
ENDMDL
