MODEL 1
REMARK VINA RESULT:    -5.302      0.000      0.000
REMARK INTER + INTRA:          -6.331
REMARK INTER:                  -6.219
REMARK INTRA:                  -0.112
REMARK UNBOUND:                -0.100
REMARK  Name = 287064
REMARK  5 active torsions:
REMARK  status: ('A' for Active; 'I' for Inactive)
REMARK    1  A    between atoms: O_1  and  C_11
REMARK    2  A    between atoms: O_1  and  C_12
REMARK    3  A    between atoms: O_2  and  C_8
REMARK    4  A    between atoms: O_3  and  C_9
REMARK    5  A    between atoms: C_5  and  C_11
REMARK                            x       y       z     vdW  Elec       q    Type
REMARK                         _______ _______ _______ _____ _____    ______ ____
ROOT
ATOM      1  C   UNL     1     -34.784  16.491  54.190  0.00  0.00    +0.000 A 
ATOM      2  C   UNL     1     -34.121  15.654  53.292  0.00  0.00    +0.000 A 
ATOM      3  C   UNL     1     -35.000  16.074  55.503  0.00  0.00    +0.000 A 
ATOM      4  C   UNL     1     -33.676  14.400  53.707  0.00  0.00    +0.000 A 
ATOM      5  C   UNL     1     -33.892  13.982  55.020  0.00  0.00    +0.000 A 
ATOM      6  C   UNL     1     -34.554  14.819  55.918  0.00  0.00    +0.000 A 
ENDROOT
BRANCH   4   7
ATOM      7  O   UNL     1     -33.031  13.590  52.822  0.00  0.00    +0.000 OA
ATOM      8  H   UNL     1     -32.340  14.110  52.377  0.00  0.00    +0.000 HD
ENDBRANCH   4   7
BRANCH   5   9
ATOM      9  O   UNL     1     -33.462  12.759  55.438  0.00  0.00    +0.000 OA
ATOM     10  H   UNL     1     -33.146  12.830  56.355  0.00  0.00    +0.000 HD
ENDBRANCH   5   9
BRANCH   1  12
ATOM     11  O   UNL     1     -35.165  18.198  52.593  0.00  0.00    +0.000 OA
ATOM     12  C   UNL     1     -35.250  17.799  53.756  0.00  0.00    +0.000 C 
BRANCH  12  13
ATOM     13  O   UNL     1     -35.796  18.548  54.770  0.00  0.00    +0.000 OA
ATOM     14  C   UNL     1     -35.195  19.826  55.010  0.00  0.00    +0.000 C 
ENDBRANCH  12  13
ENDBRANCH   1  12
TORSDOF 4
ENDMDL
MODEL 2
REMARK VINA RESULT:    -5.154      1.863      2.795
REMARK INTER + INTRA:          -6.157
REMARK INTER:                  -6.030
REMARK INTRA:                  -0.127
REMARK UNBOUND:                -0.100
REMARK  Name = 287064
REMARK  5 active torsions:
REMARK  status: ('A' for Active; 'I' for Inactive)
REMARK    1  A    between atoms: O_1  and  C_11
REMARK    2  A    between atoms: O_1  and  C_12
REMARK    3  A    between atoms: O_2  and  C_8
REMARK    4  A    between atoms: O_3  and  C_9
REMARK    5  A    between atoms: C_5  and  C_11
REMARK                            x       y       z     vdW  Elec       q    Type
REMARK                         _______ _______ _______ _____ _____    ______ ____
ROOT
ATOM      1  C   UNL     1     -35.047  15.954  55.739  0.00  0.00    +0.000 A 
ATOM      2  C   UNL     1     -34.553  14.684  56.040  0.00  0.00    +0.000 A 
ATOM      3  C   UNL     1     -34.898  16.474  54.454  0.00  0.00    +0.000 A 
ATOM      4  C   UNL     1     -33.908  13.936  55.056  0.00  0.00    +0.000 A 
ATOM      5  C   UNL     1     -33.758  14.457  53.770  0.00  0.00    +0.000 A 
ATOM      6  C   UNL     1     -34.252  15.725  53.469  0.00  0.00    +0.000 A 
ENDROOT
BRANCH   4   7
ATOM      7  O   UNL     1     -33.428  12.698  55.361  0.00  0.00    +0.000 OA
ATOM      8  H   UNL     1     -32.604  12.558  54.863  0.00  0.00    +0.000 HD
ENDBRANCH   4   7
BRANCH   5   9
ATOM      9  O   UNL     1     -33.129  13.735  52.800  0.00  0.00    +0.000 OA
ATOM     10  H   UNL     1     -32.228  14.081  52.682  0.00  0.00    +0.000 HD
ENDBRANCH   5   9
BRANCH   1  12
ATOM     11  O   UNL     1     -36.897  17.090  56.687  0.00  0.00    +0.000 OA
ATOM     12  C   UNL     1     -35.719  16.735  56.767  0.00  0.00    +0.000 C 
BRANCH  12  13
ATOM     13  O   UNL     1     -34.912  17.040  57.835  0.00  0.00    +0.000 OA
ATOM     14  C   UNL     1     -34.165  18.258  57.741  0.00  0.00    +0.000 C 
ENDBRANCH  12  13
ENDBRANCH   1  12
TORSDOF 4
ENDMDL
MODEL 3
REMARK VINA RESULT:    -5.076      0.800      1.950
REMARK INTER + INTRA:          -6.066
REMARK INTER:                  -5.967
REMARK INTRA:                  -0.099
REMARK UNBOUND:                -0.100
REMARK  Name = 287064
REMARK  5 active torsions:
REMARK  status: ('A' for Active; 'I' for Inactive)
REMARK    1  A    between atoms: O_1  and  C_11
REMARK    2  A    between atoms: O_1  and  C_12
REMARK    3  A    between atoms: O_2  and  C_8
REMARK    4  A    between atoms: O_3  and  C_9
REMARK    5  A    between atoms: C_5  and  C_11
REMARK                            x       y       z     vdW  Elec       q    Type
REMARK                         _______ _______ _______ _____ _____    ______ ____
ROOT
ATOM      1  C   UNL     1     -34.754  16.546  54.060  0.00  0.00    +0.000 A 
ATOM      2  C   UNL     1     -34.982  16.138  55.374  0.00  0.00    +0.000 A 
ATOM      3  C   UNL     1     -34.101  15.695  53.169  0.00  0.00    +0.000 A 
ATOM      4  C   UNL     1     -34.555  14.879  55.797  0.00  0.00    +0.000 A 
ATOM      5  C   UNL     1     -33.902  14.028  54.906  0.00  0.00    +0.000 A 
ATOM      6  C   UNL     1     -33.674  14.435  53.592  0.00  0.00    +0.000 A 
ENDROOT
BRANCH   4   7
ATOM      7  O   UNL     1     -34.782  14.491  57.083  0.00  0.00    +0.000 OA
ATOM      8  H   UNL     1     -34.355  13.629  57.223  0.00  0.00    +0.000 HD
ENDBRANCH   4   7
BRANCH   5   9
ATOM      9  O   UNL     1     -33.481  12.796  55.308  0.00  0.00    +0.000 OA
ATOM     10  H   UNL     1     -33.589  12.169  54.572  0.00  0.00    +0.000 HD
ENDBRANCH   5   9
BRANCH   1  12
ATOM     11  O   UNL     1     -35.023  18.285  52.475  0.00  0.00    +0.000 OA
ATOM     12  C   UNL     1     -35.198  17.859  53.619  0.00  0.00    +0.000 C 
BRANCH  12  13
ATOM     13  O   UNL     1     -35.831  18.580  54.601  0.00  0.00    +0.000 OA
ATOM     14  C   UNL     1     -35.200  19.802  55.000  0.00  0.00    +0.000 C 
ENDBRANCH  12  13
ENDBRANCH   1  12
TORSDOF 4
ENDMDL
MODEL 4
REMARK VINA RESULT:    -4.986      1.510      4.489
REMARK INTER + INTRA:          -5.960
REMARK INTER:                  -5.834
REMARK INTRA:                  -0.126
REMARK UNBOUND:                -0.100
REMARK  Name = 287064
REMARK  5 active torsions:
REMARK  status: ('A' for Active; 'I' for Inactive)
REMARK    1  A    between atoms: O_1  and  C_11
REMARK    2  A    between atoms: O_1  and  C_12
REMARK    3  A    between atoms: O_2  and  C_8
REMARK    4  A    between atoms: O_3  and  C_9
REMARK    5  A    between atoms: C_5  and  C_11
REMARK                            x       y       z     vdW  Elec       q    Type
REMARK                         _______ _______ _______ _____ _____    ______ ____
ROOT
ATOM      1  C   UNL     1     -35.064  15.570  53.888  0.00  0.00    +0.000 A 
ATOM      2  C   UNL     1     -34.445  16.740  53.446  0.00  0.00    +0.000 A 
ATOM      3  C   UNL     1     -36.455  15.466  53.868  0.00  0.00    +0.000 A 
ATOM      4  C   UNL     1     -35.218  17.806  52.986  0.00  0.00    +0.000 A 
ATOM      5  C   UNL     1     -36.609  17.702  52.967  0.00  0.00    +0.000 A 
ATOM      6  C   UNL     1     -37.228  16.533  53.408  0.00  0.00    +0.000 A 
ENDROOT
BRANCH   4   7
ATOM      7  O   UNL     1     -34.604  18.944  52.558  0.00  0.00    +0.000 OA
ATOM      8  H   UNL     1     -33.645  18.840  52.683  0.00  0.00    +0.000 HD
ENDBRANCH   4   7
BRANCH   5   9
ATOM      9  O   UNL     1     -37.374  18.737  52.520  0.00  0.00    +0.000 OA
ATOM     10  H   UNL     1     -38.302  18.570  52.759  0.00  0.00    +0.000 HD
ENDBRANCH   5   9
BRANCH   1  12
ATOM     11  O   UNL     1     -33.328  13.967  53.727  0.00  0.00    +0.000 OA
ATOM     12  C   UNL     1     -34.258  14.459  54.369  0.00  0.00    +0.000 C 
BRANCH  12  13
ATOM     13  O   UNL     1     -34.635  14.009  55.611  0.00  0.00    +0.000 OA
ATOM     14  C   UNL     1     -34.182  14.778  56.730  0.00  0.00    +0.000 C 
ENDBRANCH  12  13
ENDBRANCH   1  12
TORSDOF 4
ENDMDL
MODEL 5
REMARK VINA RESULT:    -4.851      1.633      2.100
REMARK INTER + INTRA:          -5.801
REMARK INTER:                  -5.715
REMARK INTRA:                  -0.086
REMARK UNBOUND:                -0.100
REMARK  Name = 287064
REMARK  5 active torsions:
REMARK  status: ('A' for Active; 'I' for Inactive)
REMARK    1  A    between atoms: O_1  and  C_11
REMARK    2  A    between atoms: O_1  and  C_12
REMARK    3  A    between atoms: O_2  and  C_8
REMARK    4  A    between atoms: O_3  and  C_9
REMARK    5  A    between atoms: C_5  and  C_11
REMARK                            x       y       z     vdW  Elec       q    Type
REMARK                         _______ _______ _______ _____ _____    ______ ____
ROOT
ATOM      1  C   UNL     1     -35.588  15.977  54.531  0.00  0.00    +0.000 A 
ATOM      2  C   UNL     1     -34.902  14.784  54.300  0.00  0.00    +0.000 A 
ATOM      3  C   UNL     1     -35.487  16.611  55.769  0.00  0.00    +0.000 A 
ATOM      4  C   UNL     1     -34.117  14.226  55.308  0.00  0.00    +0.000 A 
ATOM      5  C   UNL     1     -34.015  14.860  56.546  0.00  0.00    +0.000 A 
ATOM      6  C   UNL     1     -34.701  16.053  56.777  0.00  0.00    +0.000 A 
ENDROOT
BRANCH   4   7
ATOM      7  O   UNL     1     -33.452  13.060  55.072  0.00  0.00    +0.000 OA
ATOM      8  H   UNL     1     -33.750  12.705  54.218  0.00  0.00    +0.000 HD
ENDBRANCH   4   7
BRANCH   5   9
ATOM      9  O   UNL     1     -33.251  14.324  57.538  0.00  0.00    +0.000 OA
ATOM     10  H   UNL     1     -32.507  14.923  57.723  0.00  0.00    +0.000 HD
ENDBRANCH   5   9
BRANCH   1  12
ATOM     11  O   UNL     1     -37.533  16.143  53.190  0.00  0.00    +0.000 OA
ATOM     12  C   UNL     1     -36.409  16.559  53.480  0.00  0.00    +0.000 C 
BRANCH  12  13
ATOM     13  O   UNL     1     -35.811  17.618  52.842  0.00  0.00    +0.000 OA
ATOM     14  C   UNL     1     -36.683  18.650  52.369  0.00  0.00    +0.000 C 
ENDBRANCH  12  13
ENDBRANCH   1  12
TORSDOF 4
ENDMDL
MODEL 6
REMARK VINA RESULT:    -4.818     17.780     18.638
REMARK INTER + INTRA:          -5.763
REMARK INTER:                  -5.663
REMARK INTRA:                  -0.100
REMARK UNBOUND:                -0.100
REMARK  Name = 287064
REMARK  5 active torsions:
REMARK  status: ('A' for Active; 'I' for Inactive)
REMARK    1  A    between atoms: O_1  and  C_11
REMARK    2  A    between atoms: O_1  and  C_12
REMARK    3  A    between atoms: O_2  and  C_8
REMARK    4  A    between atoms: O_3  and  C_9
REMARK    5  A    between atoms: C_5  and  C_11
REMARK                            x       y       z     vdW  Elec       q    Type
REMARK                         _______ _______ _______ _____ _____    ______ ____
ROOT
ATOM      1  C   UNL     1     -24.474   3.427  46.073  0.00  0.00    +0.000 A 
ATOM      2  C   UNL     1     -25.183   2.243  45.869  0.00  0.00    +0.000 A 
ATOM      3  C   UNL     1     -24.784   4.563  45.325  0.00  0.00    +0.000 A 
ATOM      4  C   UNL     1     -26.202   2.196  44.918  0.00  0.00    +0.000 A 
ATOM      5  C   UNL     1     -26.512   3.332  44.170  0.00  0.00    +0.000 A 
ATOM      6  C   UNL     1     -25.803   4.516  44.373  0.00  0.00    +0.000 A 
ENDROOT
BRANCH   4   7
ATOM      7  O   UNL     1     -26.887   1.034  44.727  0.00  0.00    +0.000 OA
ATOM      8  H   UNL     1     -27.182   0.706  45.593  0.00  0.00    +0.000 HD
ENDBRANCH   4   7
BRANCH   5   9
ATOM      9  O   UNL     1     -27.504   3.298  43.238  0.00  0.00    +0.000 OA
ATOM     10  H   UNL     1     -27.920   4.176  43.185  0.00  0.00    +0.000 HD
ENDBRANCH   5   9
BRANCH   1  12
ATOM     11  O   UNL     1     -22.839   4.518  47.394  0.00  0.00    +0.000 OA
ATOM     12  C   UNL     1     -23.410   3.477  47.064  0.00  0.00    +0.000 C 
BRANCH  12  13
ATOM     13  O   UNL     1     -23.103   2.249  47.597  0.00  0.00    +0.000 OA
ATOM     14  C   UNL     1     -22.205   2.246  48.712  0.00  0.00    +0.000 C 
ENDBRANCH  12  13
ENDBRANCH   1  12
TORSDOF 4
ENDMDL
MODEL 7
REMARK VINA RESULT:    -4.719     17.646     18.093
REMARK INTER + INTRA:          -5.647
REMARK INTER:                  -5.546
REMARK INTRA:                  -0.101
REMARK UNBOUND:                -0.100
REMARK  Name = 287064
REMARK  5 active torsions:
REMARK  status: ('A' for Active; 'I' for Inactive)
REMARK    1  A    between atoms: O_1  and  C_11
REMARK    2  A    between atoms: O_1  and  C_12
REMARK    3  A    between atoms: O_2  and  C_8
REMARK    4  A    between atoms: O_3  and  C_9
REMARK    5  A    between atoms: C_5  and  C_11
REMARK                            x       y       z     vdW  Elec       q    Type
REMARK                         _______ _______ _______ _____ _____    ______ ____
ROOT
ATOM      1  C   UNL     1     -24.287   4.521  45.499  0.00  0.00    +0.000 A 
ATOM      2  C   UNL     1     -24.906   4.446  44.251  0.00  0.00    +0.000 A 
ATOM      3  C   UNL     1     -24.584   3.577  46.482  0.00  0.00    +0.000 A 
ATOM      4  C   UNL     1     -25.821   3.429  43.986  0.00  0.00    +0.000 A 
ATOM      5  C   UNL     1     -26.118   2.484  44.969  0.00  0.00    +0.000 A 
ATOM      6  C   UNL     1     -25.500   2.558  46.217  0.00  0.00    +0.000 A 
ENDROOT
BRANCH   4   7
ATOM      7  O   UNL     1     -26.420   3.366  42.764  0.00  0.00    +0.000 OA
ATOM      8  H   UNL     1     -25.833   3.786  42.113  0.00  0.00    +0.000 HD
ENDBRANCH   4   7
BRANCH   5   9
ATOM      9  O   UNL     1     -27.011   1.486  44.722  0.00  0.00    +0.000 OA
ATOM     10  H   UNL     1     -27.289   1.093  45.568  0.00  0.00    +0.000 HD
ENDBRANCH   5   9
BRANCH   1  12
ATOM     11  O   UNL     1     -22.646   5.629  46.799  0.00  0.00    +0.000 OA
ATOM     12  C   UNL     1     -23.333   5.584  45.776  0.00  0.00    +0.000 C 
BRANCH  12  13
ATOM     13  O   UNL     1     -23.272   6.534  44.787  0.00  0.00    +0.000 OA
ATOM     14  C   UNL     1     -22.153   7.426  44.831  0.00  0.00    +0.000 C 
ENDBRANCH  12  13
ENDBRANCH   1  12
TORSDOF 4
ENDMDL
MODEL 8
REMARK VINA RESULT:    -4.653      2.060      4.799
REMARK INTER + INTRA:          -5.569
REMARK INTER:                  -5.454
REMARK INTRA:                  -0.115
REMARK UNBOUND:                -0.100
REMARK  Name = 287064
REMARK  5 active torsions:
REMARK  status: ('A' for Active; 'I' for Inactive)
REMARK    1  A    between atoms: O_1  and  C_11
REMARK    2  A    between atoms: O_1  and  C_12
REMARK    3  A    between atoms: O_2  and  C_8
REMARK    4  A    between atoms: O_3  and  C_9
REMARK    5  A    between atoms: C_5  and  C_11
REMARK                            x       y       z     vdW  Elec       q    Type
REMARK                         _______ _______ _______ _____ _____    ______ ____
ROOT
ATOM      1  C   UNL     1     -35.532  15.836  53.963  0.00  0.00    +0.000 A 
ATOM      2  C   UNL     1     -36.912  15.875  53.767  0.00  0.00    +0.000 A 
ATOM      3  C   UNL     1     -34.731  16.879  53.499  0.00  0.00    +0.000 A 
ATOM      4  C   UNL     1     -37.491  16.958  53.105  0.00  0.00    +0.000 A 
ATOM      5  C   UNL     1     -36.690  18.001  52.640  0.00  0.00    +0.000 A 
ATOM      6  C   UNL     1     -35.310  17.962  52.836  0.00  0.00    +0.000 A 
ENDROOT
BRANCH   4   7
ATOM      7  O   UNL     1     -38.840  16.985  52.917  0.00  0.00    +0.000 OA
ATOM      8  H   UNL     1     -39.255  16.415  53.587  0.00  0.00    +0.000 HD
ENDBRANCH   4   7
BRANCH   5   9
ATOM      9  O   UNL     1     -37.244  19.063  51.992  0.00  0.00    +0.000 OA
ATOM     10  H   UNL     1     -36.687  19.295  51.229  0.00  0.00    +0.000 HD
ENDBRANCH   5   9
BRANCH   1  12
ATOM     11  O   UNL     1     -35.216  13.532  54.412  0.00  0.00    +0.000 OA
ATOM     12  C   UNL     1     -34.927  14.706  54.652  0.00  0.00    +0.000 C 
BRANCH  12  13
ATOM     13  O   UNL     1     -34.001  15.074  55.597  0.00  0.00    +0.000 OA
ATOM     14  C   UNL     1     -34.386  14.902  56.965  0.00  0.00    +0.000 C 
ENDBRANCH  12  13
ENDBRANCH   1  12
TORSDOF 4
ENDMDL
MODEL 9
REMARK VINA RESULT:    -4.634      2.149      2.689
REMARK INTER + INTRA:          -5.546
REMARK INTER:                  -5.445
REMARK INTRA:                  -0.101
REMARK UNBOUND:                -0.100
REMARK  Name = 287064
REMARK  5 active torsions:
REMARK  status: ('A' for Active; 'I' for Inactive)
REMARK    1  A    between atoms: O_1  and  C_11
REMARK    2  A    between atoms: O_1  and  C_12
REMARK    3  A    between atoms: O_2  and  C_8
REMARK    4  A    between atoms: O_3  and  C_9
REMARK    5  A    between atoms: C_5  and  C_11
REMARK                            x       y       z     vdW  Elec       q    Type
REMARK                         _______ _______ _______ _____ _____    ______ ____
ROOT
ATOM      1  C   UNL     1     -34.859  17.154  56.759  0.00  0.00    +0.000 A 
ATOM      2  C   UNL     1     -34.866  16.686  55.445  0.00  0.00    +0.000 A 
ATOM      3  C   UNL     1     -34.470  16.309  57.798  0.00  0.00    +0.000 A 
ATOM      4  C   UNL     1     -34.484  15.374  55.170  0.00  0.00    +0.000 A 
ATOM      5  C   UNL     1     -34.094  14.529  56.209  0.00  0.00    +0.000 A 
ATOM      6  C   UNL     1     -34.087  14.996  57.523  0.00  0.00    +0.000 A 
ENDROOT
BRANCH   4   7
ATOM      7  O   UNL     1     -34.495  14.927  53.883  0.00  0.00    +0.000 OA
ATOM      8  H   UNL     1     -33.588  14.676  53.638  0.00  0.00    +0.000 HD
ENDBRANCH   4   7
BRANCH   5   9
ATOM      9  O   UNL     1     -33.718  13.244  55.954  0.00  0.00    +0.000 OA
ATOM     10  H   UNL     1     -33.708  12.745  56.788  0.00  0.00    +0.000 HD
ENDBRANCH   5   9
BRANCH   1  12
ATOM     11  O   UNL     1     -35.379  19.391  56.178  0.00  0.00    +0.000 OA
ATOM     12  C   UNL     1     -35.260  18.523  57.046  0.00  0.00    +0.000 C 
BRANCH  12  13
ATOM     13  O   UNL     1     -35.494  18.756  58.379  0.00  0.00    +0.000 OA
ATOM     14  C   UNL     1     -36.438  19.787  58.689  0.00  0.00    +0.000 C 
ENDBRANCH  12  13
ENDBRANCH   1  12
TORSDOF 4
ENDMDL
MODEL 10
REMARK VINA RESULT:    -4.534      1.863      5.249
REMARK INTER + INTRA:          -5.429
REMARK INTER:                  -5.329
REMARK INTRA:                  -0.100
REMARK UNBOUND:                -0.100
REMARK  Name = 287064
REMARK  5 active torsions:
REMARK  status: ('A' for Active; 'I' for Inactive)
REMARK    1  A    between atoms: O_1  and  C_11
REMARK    2  A    between atoms: O_1  and  C_12
REMARK    3  A    between atoms: O_2  and  C_8
REMARK    4  A    between atoms: O_3  and  C_9
REMARK    5  A    between atoms: C_5  and  C_11
REMARK                            x       y       z     vdW  Elec       q    Type
REMARK                         _______ _______ _______ _____ _____    ______ ____
ROOT
ATOM      1  C   UNL     1     -34.866  16.523  55.612  0.00  0.00    +0.000 A 
ATOM      2  C   UNL     1     -34.863  17.135  56.866  0.00  0.00    +0.000 A 
ATOM      3  C   UNL     1     -35.191  17.262  54.476  0.00  0.00    +0.000 A 
ATOM      4  C   UNL     1     -35.187  18.486  56.982  0.00  0.00    +0.000 A 
ATOM      5  C   UNL     1     -35.513  19.226  55.845  0.00  0.00    +0.000 A 
ATOM      6  C   UNL     1     -35.516  18.614  54.592  0.00  0.00    +0.000 A 
ENDROOT
BRANCH   4   7
ATOM      7  O   UNL     1     -35.183  19.074  58.211  0.00  0.00    +0.000 OA
ATOM      8  H   UNL     1     -35.439  18.407  58.871  0.00  0.00    +0.000 HD
ENDBRANCH   4   7
BRANCH   5   9
ATOM      9  O   UNL     1     -35.831  20.547  55.946  0.00  0.00    +0.000 OA
ATOM     10  H   UNL     1     -35.016  21.060  56.079  0.00  0.00    +0.000 HD
ENDBRANCH   5   9
BRANCH   1  12
ATOM     11  O   UNL     1     -34.556  14.325  56.440  0.00  0.00    +0.000 OA
ATOM     12  C   UNL     1     -34.530  15.112  55.491  0.00  0.00    +0.000 C 
BRANCH  12  13
ATOM     13  O   UNL     1     -34.179  14.742  54.216  0.00  0.00    +0.000 OA
ATOM     14  C   UNL     1     -34.143  13.336  53.950  0.00  0.00    +0.000 C 
ENDBRANCH  12  13
ENDBRANCH   1  12
TORSDOF 4
ENDMDL
