MODEL 1
REMARK VINA RESULT:      -6.8      0.000      0.000
REMARK  Name = 2162
REMARK  14 active torsions:
REMARK  status: ('A' for Active; 'I' for Inactive)
REMARK    1  A    between atoms: O_2  and  C_15
REMARK    2  A    between atoms: O_2  and  C_24
REMARK    3  A    between atoms: O_3  and  C_16
REMARK    4  A    between atoms: O_3  and  C_25
REMARK    5  A    between atoms: O_4  and  C_18
REMARK    6  A    between atoms: O_4  and  C_27
REMARK    7  A    between atoms: N_8  and  C_26
REMARK    8  A    between atoms: C_9  and  C_14
REMARK    9  A    between atoms: C_10  and  C_16
REMARK   10  A    between atoms: C_11  and  C_18
REMARK   11  A    between atoms: C_12  and  C_15
REMARK   12  A    between atoms: C_13  and  C_17
REMARK   13  A    between atoms: C_24  and  C_26
REMARK   14  A    between atoms: C_25  and  C_28
REMARK                            x       y       z     vdW  Elec       q    Type
REMARK                         _______ _______ _______ _____ _____    ______ ____
ROOT
ATOM      1  C   UNL     1     151.128 148.401 142.520  0.00  0.00    +0.097 C 
ATOM      2  C   UNL     1     150.860 149.855 142.923  0.00  0.00    +0.065 C 
ATOM      3  C   UNL     1     149.599 150.324 143.055  0.00  0.00    +0.016 C 
ATOM      4  C   UNL     1     149.226 151.713 143.494  0.00  0.00    +0.061 C 
ATOM      5  N   UNL     1     148.527 149.494 142.767  0.00  0.00    -0.319 N 
ATOM      6  H   UNL     1     147.596 149.877 142.886  0.00  0.00    +0.152 HD
ATOM      7  C   UNL     1     148.635 148.210 142.258  0.00  0.00    +0.045 C 
ATOM      8  C   UNL     1     149.857 147.651 142.108  0.00  0.00    +0.068 C 
ENDROOT
BRANCH   1  15
ATOM      9 CL   UNL     1     154.123 147.725 142.209  0.00  0.00    -0.083 Cl
ATOM     10  C   UNL     1     153.160 147.331 143.585  0.00  0.00    +0.045 A 
ATOM     11  C   UNL     1     153.756 146.658 144.649  0.00  0.00    +0.020 A 
ATOM     12  C   UNL     1     153.003 146.327 145.775  0.00  0.00    +0.001 A 
ATOM     13  C   UNL     1     151.652 146.670 145.837  0.00  0.00    +0.000 A 
ATOM     14  C   UNL     1     151.055 147.343 144.772  0.00  0.00    +0.006 A 
ATOM     15  C   UNL     1     151.809 147.675 143.646  0.00  0.00    -0.017 A 
ENDBRANCH   1  15
BRANCH   2  16
ATOM     16  C   UNL     1     152.040 150.716 143.109  0.00  0.00    +0.337 C 
ATOM     17  O   UNL     1     152.688 151.171 142.185  0.00  0.00    -0.245 OA
BRANCH  16  18
ATOM     18  O   UNL     1     152.241 150.884 144.439  0.00  0.00    -0.465 OA
ATOM     19  C   UNL     1     153.602 150.781 144.864  0.00  0.00    +0.280 C 
ENDBRANCH  16  18
ENDBRANCH   2  16
BRANCH   8  20
ATOM     20  C   UNL     1     150.043 146.330 141.486  0.00  0.00    +0.338 C 
ATOM     21  O   UNL     1     150.425 146.179 140.339  0.00  0.00    -0.245 OA
BRANCH  20  22
ATOM     22  O   UNL     1     149.724 145.379 142.396  0.00  0.00    -0.462 OA
BRANCH  22  23
ATOM     23  C   UNL     1     150.326 144.100 142.174  0.00  0.00    +0.229 C 
ATOM     24  C   UNL     1     151.618 144.021 142.957  0.00  0.00    +0.048 C 
ENDBRANCH  22  23
ENDBRANCH  20  22
ENDBRANCH   8  20
BRANCH   7  25
ATOM     25  C   UNL     1     147.326 147.548 141.921  0.00  0.00    +0.211 C 
BRANCH  25  26
ATOM     26  O   UNL     1     146.967 147.860 140.589  0.00  0.00    -0.373 OA
BRANCH  26  27
ATOM     27  C   UNL     1     146.161 146.842 140.006  0.00  0.00    +0.175 C 
BRANCH  27  28
ATOM     28  C   UNL     1     147.070 145.815 139.349  0.00  0.00    +0.106 C 
BRANCH  28  29
ATOM     29  N   UNL     1     148.038 146.466 138.481  0.00  0.00    -0.328 NA
ATOM     30  H   UNL     1     148.463 147.250 138.975  0.00  0.00    +0.118 HD
ATOM     31  H   UNL     1     147.563 146.861 137.671  0.00  0.00    +0.118 HD
ENDBRANCH  28  29
ENDBRANCH  27  28
ENDBRANCH  26  27
ENDBRANCH  25  26
ENDBRANCH   7  25
TORSDOF 11
ENDMDL
MODEL 2
REMARK VINA RESULT:      -6.5      2.270      4.403
REMARK  Name = 2162
REMARK  14 active torsions:
REMARK  status: ('A' for Active; 'I' for Inactive)
REMARK    1  A    between atoms: O_2  and  C_15
REMARK    2  A    between atoms: O_2  and  C_24
REMARK    3  A    between atoms: O_3  and  C_16
REMARK    4  A    between atoms: O_3  and  C_25
REMARK    5  A    between atoms: O_4  and  C_18
REMARK    6  A    between atoms: O_4  and  C_27
REMARK    7  A    between atoms: N_8  and  C_26
REMARK    8  A    between atoms: C_9  and  C_14
REMARK    9  A    between atoms: C_10  and  C_16
REMARK   10  A    between atoms: C_11  and  C_18
REMARK   11  A    between atoms: C_12  and  C_15
REMARK   12  A    between atoms: C_13  and  C_17
REMARK   13  A    between atoms: C_24  and  C_26
REMARK   14  A    between atoms: C_25  and  C_28
REMARK                            x       y       z     vdW  Elec       q    Type
REMARK                         _______ _______ _______ _____ _____    ______ ____
ROOT
ATOM      1  C   UNL     1     149.981 147.997 143.287  0.00  0.00    +0.097 C 
ATOM      2  C   UNL     1     150.551 147.082 142.198  0.00  0.00    +0.065 C 
ATOM      3  C   UNL     1     149.877 146.856 141.048  0.00  0.00    +0.016 C 
ATOM      4  C   UNL     1     150.368 146.020 139.898  0.00  0.00    +0.061 C 
ATOM      5  N   UNL     1     148.621 147.415 140.871  0.00  0.00    -0.319 N 
ATOM      6  H   UNL     1     148.149 147.231 139.993  0.00  0.00    +0.152 HD
ATOM      7  C   UNL     1     147.934 148.139 141.832  0.00  0.00    +0.045 C 
ATOM      8  C   UNL     1     148.537 148.429 143.008  0.00  0.00    +0.068 C 
ENDROOT
BRANCH   1  15
ATOM      9 CL   UNL     1     151.407 148.402 145.994  0.00  0.00    -0.083 Cl
ATOM     10  C   UNL     1     151.535 149.465 144.640  0.00  0.00    +0.045 A 
ATOM     11  C   UNL     1     152.339 150.598 144.753  0.00  0.00    +0.020 A 
ATOM     12  C   UNL     1     152.463 151.475 143.675  0.00  0.00    +0.001 A 
ATOM     13  C   UNL     1     151.783 151.218 142.484  0.00  0.00    +0.000 A 
ATOM     14  C   UNL     1     150.980 150.084 142.372  0.00  0.00    +0.006 A 
ATOM     15  C   UNL     1     150.856 149.207 143.449  0.00  0.00    -0.017 A 
ENDBRANCH   1  15
BRANCH   2  16
ATOM     16  C   UNL     1     151.839 146.431 142.492  0.00  0.00    +0.337 C 
ATOM     17  O   UNL     1     151.936 145.391 143.117  0.00  0.00    -0.245 OA
BRANCH  16  18
ATOM     18  O   UNL     1     152.830 147.184 141.956  0.00  0.00    -0.465 OA
ATOM     19  C   UNL     1     153.961 147.391 142.807  0.00  0.00    +0.280 C 
ENDBRANCH  16  18
ENDBRANCH   2  16
BRANCH   8  20
ATOM     20  C   UNL     1     147.830 149.112 144.103  0.00  0.00    +0.338 C 
ATOM     21  O   UNL     1     147.208 148.522 144.968  0.00  0.00    -0.245 OA
BRANCH  20  22
ATOM     22  O   UNL     1     148.005 150.447 143.959  0.00  0.00    -0.462 OA
BRANCH  22  23
ATOM     23  C   UNL     1     148.167 151.174 145.182  0.00  0.00    +0.229 C 
ATOM     24  C   UNL     1     149.073 152.360 144.934  0.00  0.00    +0.048 C 
ENDBRANCH  22  23
ENDBRANCH  20  22
ENDBRANCH   8  20
BRANCH   7  25
ATOM     25  C   UNL     1     146.539 148.548 141.443  0.00  0.00    +0.211 C 
BRANCH  25  26
ATOM     26  O   UNL     1     146.093 147.743 140.370  0.00  0.00    -0.373 OA
BRANCH  26  27
ATOM     27  C   UNL     1     145.353 146.615 140.826  0.00  0.00    +0.175 C 
BRANCH  27  28
ATOM     28  C   UNL     1     145.619 145.446 139.892  0.00  0.00    +0.106 C 
BRANCH  28  29
ATOM     29  N   UNL     1     146.806 145.691 139.086  0.00  0.00    -0.328 NA
ATOM     30  H   UNL     1     146.683 145.271 138.166  0.00  0.00    +0.118 HD
ATOM     31  H   UNL     1     147.609 145.227 139.507  0.00  0.00    +0.118 HD
ENDBRANCH  28  29
ENDBRANCH  27  28
ENDBRANCH  26  27
ENDBRANCH  25  26
ENDBRANCH   7  25
TORSDOF 11
ENDMDL
MODEL 3
REMARK VINA RESULT:      -6.4      2.507      4.500
REMARK  Name = 2162
REMARK  14 active torsions:
REMARK  status: ('A' for Active; 'I' for Inactive)
REMARK    1  A    between atoms: O_2  and  C_15
REMARK    2  A    between atoms: O_2  and  C_24
REMARK    3  A    between atoms: O_3  and  C_16
REMARK    4  A    between atoms: O_3  and  C_25
REMARK    5  A    between atoms: O_4  and  C_18
REMARK    6  A    between atoms: O_4  and  C_27
REMARK    7  A    between atoms: N_8  and  C_26
REMARK    8  A    between atoms: C_9  and  C_14
REMARK    9  A    between atoms: C_10  and  C_16
REMARK   10  A    between atoms: C_11  and  C_18
REMARK   11  A    between atoms: C_12  and  C_15
REMARK   12  A    between atoms: C_13  and  C_17
REMARK   13  A    between atoms: C_24  and  C_26
REMARK   14  A    between atoms: C_25  and  C_28
REMARK                            x       y       z     vdW  Elec       q    Type
REMARK                         _______ _______ _______ _____ _____    ______ ____
ROOT
ATOM      1  C   UNL     1     150.120 147.713 144.515  0.00  0.00    +0.097 C 
ATOM      2  C   UNL     1     151.091 146.543 144.335  0.00  0.00    +0.065 C 
ATOM      3  C   UNL     1     150.784 145.493 143.539  0.00  0.00    +0.016 C 
ATOM      4  C   UNL     1     151.684 144.322 143.252  0.00  0.00    +0.061 C 
ATOM      5  N   UNL     1     149.547 145.445 142.918  0.00  0.00    -0.319 N 
ATOM      6  H   UNL     1     149.355 144.648 142.321  0.00  0.00    +0.152 HD
ATOM      7  C   UNL     1     148.527 146.364 143.112  0.00  0.00    +0.045 C 
ATOM      8  C   UNL     1     148.749 147.455 143.879  0.00  0.00    +0.068 C 
ENDROOT
BRANCH   1  15
ATOM      9 CL   UNL     1     150.675 150.055 146.447  0.00  0.00    -0.083 Cl
ATOM     10  C   UNL     1     151.001 150.073 144.753  0.00  0.00    +0.045 A 
ATOM     11  C   UNL     1     151.557 151.221 144.190  0.00  0.00    +0.020 A 
ATOM     12  C   UNL     1     151.832 151.265 142.824  0.00  0.00    +0.001 A 
ATOM     13  C   UNL     1     151.551 150.161 142.019  0.00  0.00    +0.000 A 
ATOM     14  C   UNL     1     150.994 149.013 142.582  0.00  0.00    +0.006 A 
ATOM     15  C   UNL     1     150.719 148.969 143.948  0.00  0.00    -0.017 A 
ENDBRANCH   1  15
BRANCH   2  16
ATOM     16  C   UNL     1     152.344 146.601 145.106  0.00  0.00    +0.337 C 
ATOM     17  O   UNL     1     152.410 146.348 146.295  0.00  0.00    -0.245 OA
BRANCH  16  18
ATOM     18  O   UNL     1     153.344 146.972 144.270  0.00  0.00    -0.465 OA
ATOM     19  C   UNL     1     154.153 148.055 144.736  0.00  0.00    +0.280 C 
ENDBRANCH  16  18
ENDBRANCH   2  16
BRANCH   8  20
ATOM     20  C   UNL     1     147.682 148.417 144.199  0.00  0.00    +0.338 C 
ATOM     21  O   UNL     1     147.026 148.371 145.225  0.00  0.00    -0.245 OA
BRANCH  20  22
ATOM     22  O   UNL     1     147.588 149.307 143.183  0.00  0.00    -0.462 OA
BRANCH  22  23
ATOM     23  C   UNL     1     146.256 149.714 142.854  0.00  0.00    +0.229 C 
ATOM     24  C   UNL     1     145.956 149.309 141.427  0.00  0.00    +0.048 C 
ENDBRANCH  22  23
ENDBRANCH  20  22
ENDBRANCH   8  20
BRANCH   7  25
ATOM     25  C   UNL     1     147.236 146.037 142.413  0.00  0.00    +0.211 C 
BRANCH  25  26
ATOM     26  O   UNL     1     147.462 145.026 141.450  0.00  0.00    -0.373 OA
BRANCH  26  27
ATOM     27  C   UNL     1     146.992 145.407 140.161  0.00  0.00    +0.175 C 
BRANCH  27  28
ATOM     28  C   UNL     1     147.735 146.659 139.721  0.00  0.00    +0.106 C 
BRANCH  28  29
ATOM     29  N   UNL     1     148.136 146.555 138.326  0.00  0.00    -0.328 NA
ATOM     30  H   UNL     1     149.079 146.925 138.216  0.00  0.00    +0.118 HD
ATOM     31  H   UNL     1     147.530 147.137 137.750  0.00  0.00    +0.118 HD
ENDBRANCH  28  29
ENDBRANCH  27  28
ENDBRANCH  26  27
ENDBRANCH  25  26
ENDBRANCH   7  25
TORSDOF 11
ENDMDL
MODEL 4
REMARK VINA RESULT:      -6.4      2.957      5.308
REMARK  Name = 2162
REMARK  14 active torsions:
REMARK  status: ('A' for Active; 'I' for Inactive)
REMARK    1  A    between atoms: O_2  and  C_15
REMARK    2  A    between atoms: O_2  and  C_24
REMARK    3  A    between atoms: O_3  and  C_16
REMARK    4  A    between atoms: O_3  and  C_25
REMARK    5  A    between atoms: O_4  and  C_18
REMARK    6  A    between atoms: O_4  and  C_27
REMARK    7  A    between atoms: N_8  and  C_26
REMARK    8  A    between atoms: C_9  and  C_14
REMARK    9  A    between atoms: C_10  and  C_16
REMARK   10  A    between atoms: C_11  and  C_18
REMARK   11  A    between atoms: C_12  and  C_15
REMARK   12  A    between atoms: C_13  and  C_17
REMARK   13  A    between atoms: C_24  and  C_26
REMARK   14  A    between atoms: C_25  and  C_28
REMARK                            x       y       z     vdW  Elec       q    Type
REMARK                         _______ _______ _______ _____ _____    ______ ____
ROOT
ATOM      1  C   UNL     1     150.790 149.921 143.692  0.00  0.00    +0.097 C 
ATOM      2  C   UNL     1     151.962 150.830 144.075  0.00  0.00    +0.065 C 
ATOM      3  C   UNL     1     151.830 151.781 145.027  0.00  0.00    +0.016 C 
ATOM      4  C   UNL     1     152.927 152.689 145.513  0.00  0.00    +0.061 C 
ATOM      5  N   UNL     1     150.598 151.977 145.631  0.00  0.00    -0.319 N 
ATOM      6  H   UNL     1     150.538 152.692 146.347  0.00  0.00    +0.152 HD
ATOM      7  C   UNL     1     149.429 151.323 145.275  0.00  0.00    +0.045 C 
ATOM      8  C   UNL     1     149.469 150.343 144.343  0.00  0.00    +0.068 C 
ENDROOT
BRANCH   1  15
ATOM      9 CL   UNL     1     151.015 147.860 141.406  0.00  0.00    -0.083 Cl
ATOM     10  C   UNL     1     151.226 147.504 143.081  0.00  0.00    +0.045 A 
ATOM     11  C   UNL     1     151.521 146.194 143.456  0.00  0.00    +0.020 A 
ATOM     12  C   UNL     1     151.697 145.876 144.803  0.00  0.00    +0.001 A 
ATOM     13  C   UNL     1     151.579 146.870 145.775  0.00  0.00    +0.000 A 
ATOM     14  C   UNL     1     151.283 148.180 145.400  0.00  0.00    +0.006 A 
ATOM     15  C   UNL     1     151.107 148.497 144.054  0.00  0.00    -0.017 A 
ENDBRANCH   1  15
BRANCH   2  16
ATOM     16  C   UNL     1     153.213 150.645 143.321  0.00  0.00    +0.337 C 
ATOM     17  O   UNL     1     153.403 151.113 142.213  0.00  0.00    -0.245 OA
BRANCH  16  18
ATOM     18  O   UNL     1     154.056 149.893 144.070  0.00  0.00    -0.465 OA
ATOM     19  C   UNL     1     154.623 148.766 143.396  0.00  0.00    +0.280 C 
ENDBRANCH  16  18
ENDBRANCH   2  16
BRANCH   8  20
ATOM     20  C   UNL     1     148.250 149.677 143.856  0.00  0.00    +0.338 C 
ATOM     21  O   UNL     1     147.479 149.079 144.583  0.00  0.00    -0.245 OA
BRANCH  20  22
ATOM     22  O   UNL     1     148.170 149.858 142.516  0.00  0.00    -0.462 OA
BRANCH  22  23
ATOM     23  C   UNL     1     147.644 148.747 141.784  0.00  0.00    +0.229 C 
ATOM     24  C   UNL     1     146.215 149.049 141.388  0.00  0.00    +0.048 C 
ENDBRANCH  22  23
ENDBRANCH  20  22
ENDBRANCH   8  20
BRANCH   7  25
ATOM     25  C   UNL     1     148.196 151.787 146.001  0.00  0.00    +0.211 C 
BRANCH  25  26
ATOM     26  O   UNL     1     148.560 152.706 147.012  0.00  0.00    -0.373 OA
BRANCH  26  27
ATOM     27  C   UNL     1     147.912 153.963 146.843  0.00  0.00    +0.175 C 
BRANCH  27  28
ATOM     28  C   UNL     1     146.533 153.892 147.481  0.00  0.00    +0.106 C 
BRANCH  28  29
ATOM     29  N   UNL     1     146.641 153.685 148.917  0.00  0.00    -0.328 NA
ATOM     30  H   UNL     1     147.145 152.818 149.097  0.00  0.00    +0.118 HD
ATOM     31  H   UNL     1     145.712 153.564 149.317  0.00  0.00    +0.118 HD
ENDBRANCH  28  29
ENDBRANCH  27  28
ENDBRANCH  26  27
ENDBRANCH  25  26
ENDBRANCH   7  25
TORSDOF 11
ENDMDL
MODEL 5
REMARK VINA RESULT:      -6.3      2.684      5.738
REMARK  Name = 2162
REMARK  14 active torsions:
REMARK  status: ('A' for Active; 'I' for Inactive)
REMARK    1  A    between atoms: O_2  and  C_15
REMARK    2  A    between atoms: O_2  and  C_24
REMARK    3  A    between atoms: O_3  and  C_16
REMARK    4  A    between atoms: O_3  and  C_25
REMARK    5  A    between atoms: O_4  and  C_18
REMARK    6  A    between atoms: O_4  and  C_27
REMARK    7  A    between atoms: N_8  and  C_26
REMARK    8  A    between atoms: C_9  and  C_14
REMARK    9  A    between atoms: C_10  and  C_16
REMARK   10  A    between atoms: C_11  and  C_18
REMARK   11  A    between atoms: C_12  and  C_15
REMARK   12  A    between atoms: C_13  and  C_17
REMARK   13  A    between atoms: C_24  and  C_26
REMARK   14  A    between atoms: C_25  and  C_28
REMARK                            x       y       z     vdW  Elec       q    Type
REMARK                         _______ _______ _______ _____ _____    ______ ____
ROOT
ATOM      1  C   UNL     1     149.030 147.430 142.768  0.00  0.00    +0.097 C 
ATOM      2  C   UNL     1     148.837 148.933 142.988  0.00  0.00    +0.065 C 
ATOM      3  C   UNL     1     149.879 149.792 142.912  0.00  0.00    +0.016 C 
ATOM      4  C   UNL     1     149.791 151.287 143.059  0.00  0.00    +0.061 C 
ATOM      5  N   UNL     1     151.155 149.301 142.686  0.00  0.00    -0.319 N 
ATOM      6  H   UNL     1     151.910 149.975 142.625  0.00  0.00    +0.152 HD
ATOM      7  C   UNL     1     151.484 147.957 142.614  0.00  0.00    +0.045 C 
ATOM      8  C   UNL     1     150.505 147.025 142.664  0.00  0.00    +0.068 C 
ENDROOT
BRANCH   1  15
ATOM      9 CL   UNL     1     146.362 145.923 143.136  0.00  0.00    -0.083 Cl
ATOM     10  C   UNL     1     147.079 146.307 141.614  0.00  0.00    +0.045 A 
ATOM     11  C   UNL     1     146.422 145.918 140.447  0.00  0.00    +0.020 A 
ATOM     12  C   UNL     1     146.976 146.215 139.202  0.00  0.00    +0.001 A 
ATOM     13  C   UNL     1     148.188 146.901 139.124  0.00  0.00    +0.000 A 
ATOM     14  C   UNL     1     148.845 147.290 140.291  0.00  0.00    +0.006 A 
ATOM     15  C   UNL     1     148.291 146.993 141.536  0.00  0.00    -0.017 A 
ENDBRANCH   1  15
BRANCH   2  16
ATOM     16  C   UNL     1     147.477 149.380 143.332  0.00  0.00    +0.337 C 
ATOM     17  O   UNL     1     146.950 149.155 144.406  0.00  0.00    -0.245 OA
BRANCH  16  18
ATOM     18  O   UNL     1     146.967 150.052 142.271  0.00  0.00    -0.465 OA
ATOM     19  C   UNL     1     145.658 149.640 141.867  0.00  0.00    +0.280 C 
ENDBRANCH  16  18
ENDBRANCH   2  16
BRANCH   8  20
ATOM     20  C   UNL     1     150.797 145.583 142.687  0.00  0.00    +0.338 C 
ATOM     21  O   UNL     1     150.763 144.910 143.701  0.00  0.00    -0.245 OA
BRANCH  20  22
ATOM     22  O   UNL     1     151.090 145.186 141.426  0.00  0.00    -0.462 OA
BRANCH  22  23
ATOM     23  C   UNL     1     150.388 144.021 140.978  0.00  0.00    +0.229 C 
ATOM     24  C   UNL     1     151.348 142.853 140.935  0.00  0.00    +0.048 C 
ENDBRANCH  22  23
ENDBRANCH  20  22
ENDBRANCH   8  20
BRANCH   7  25
ATOM     25  C   UNL     1     152.955 147.670 142.473  0.00  0.00    +0.211 C 
BRANCH  25  26
ATOM     26  O   UNL     1     153.636 148.116 143.629  0.00  0.00    -0.373 OA
BRANCH  26  27
ATOM     27  C   UNL     1     154.694 149.013 143.307  0.00  0.00    +0.175 C 
BRANCH  27  28
ATOM     28  C   UNL     1     154.309 150.409 143.768  0.00  0.00    +0.106 C 
BRANCH  28  29
ATOM     29  N   UNL     1     153.805 151.198 142.654  0.00  0.00    -0.328 NA
ATOM     30  H   UNL     1     153.625 150.585 141.859  0.00  0.00    +0.118 HD
ATOM     31  H   UNL     1     154.518 151.859 142.350  0.00  0.00    +0.118 HD
ENDBRANCH  28  29
ENDBRANCH  27  28
ENDBRANCH  26  27
ENDBRANCH  25  26
ENDBRANCH   7  25
TORSDOF 11
ENDMDL
MODEL 6
REMARK VINA RESULT:      -6.3      2.834      6.493
REMARK  Name = 2162
REMARK  14 active torsions:
REMARK  status: ('A' for Active; 'I' for Inactive)
REMARK    1  A    between atoms: O_2  and  C_15
REMARK    2  A    between atoms: O_2  and  C_24
REMARK    3  A    between atoms: O_3  and  C_16
REMARK    4  A    between atoms: O_3  and  C_25
REMARK    5  A    between atoms: O_4  and  C_18
REMARK    6  A    between atoms: O_4  and  C_27
REMARK    7  A    between atoms: N_8  and  C_26
REMARK    8  A    between atoms: C_9  and  C_14
REMARK    9  A    between atoms: C_10  and  C_16
REMARK   10  A    between atoms: C_11  and  C_18
REMARK   11  A    between atoms: C_12  and  C_15
REMARK   12  A    between atoms: C_13  and  C_17
REMARK   13  A    between atoms: C_24  and  C_26
REMARK   14  A    between atoms: C_25  and  C_28
REMARK                            x       y       z     vdW  Elec       q    Type
REMARK                         _______ _______ _______ _____ _____    ______ ____
ROOT
ATOM      1  C   UNL     1     151.128 148.132 142.933  0.00  0.00    +0.097 C 
ATOM      2  C   UNL     1     151.936 146.838 143.074  0.00  0.00    +0.065 C 
ATOM      3  C   UNL     1     153.192 146.848 143.574  0.00  0.00    +0.016 C 
ATOM      4  C   UNL     1     154.050 145.633 143.803  0.00  0.00    +0.061 C 
ATOM      5  N   UNL     1     153.784 148.054 143.913  0.00  0.00    -0.319 N 
ATOM      6  H   UNL     1     154.724 148.022 144.293  0.00  0.00    +0.152 HD
ATOM      7  C   UNL     1     153.218 149.301 143.700  0.00  0.00    +0.045 C 
ATOM      8  C   UNL     1     151.957 149.389 143.219  0.00  0.00    +0.068 C 
ENDROOT
BRANCH   1  15
ATOM      9 CL   UNL     1     148.329 148.348 141.651  0.00  0.00    -0.083 Cl
ATOM     10  C   UNL     1     148.631 148.182 143.342  0.00  0.00    +0.045 A 
ATOM     11  C   UNL     1     147.546 148.140 144.215  0.00  0.00    +0.020 A 
ATOM     12  C   UNL     1     147.759 148.006 145.587  0.00  0.00    +0.001 A 
ATOM     13  C   UNL     1     149.059 147.914 146.085  0.00  0.00    +0.000 A 
ATOM     14  C   UNL     1     150.144 147.957 145.212  0.00  0.00    +0.006 A 
ATOM     15  C   UNL     1     149.931 148.091 143.840  0.00  0.00    -0.017 A 
ENDBRANCH   1  15
BRANCH   2  16
ATOM     16  C   UNL     1     151.293 145.603 142.596  0.00  0.00    +0.337 C 
ATOM     17  O   UNL     1     150.865 144.739 143.339  0.00  0.00    -0.245 OA
BRANCH  16  18
ATOM     18  O   UNL     1     151.277 145.627 141.241  0.00  0.00    -0.465 OA
ATOM     19  C   UNL     1     150.029 145.264 140.643  0.00  0.00    +0.280 C 
ENDBRANCH  16  18
ENDBRANCH   2  16
BRANCH   8  20
ATOM     20  C   UNL     1     151.335 150.680 142.883  0.00  0.00    +0.338 C 
ATOM     21  O   UNL     1     151.341 151.152 141.760  0.00  0.00    -0.245 OA
BRANCH  20  22
ATOM     22  O   UNL     1     150.790 151.198 144.009  0.00  0.00    -0.462 OA
BRANCH  22  23
ATOM     23  C   UNL     1     149.454 151.691 143.865  0.00  0.00    +0.229 C 
ATOM     24  C   UNL     1     148.746 151.591 145.198  0.00  0.00    +0.048 C 
ENDBRANCH  22  23
ENDBRANCH  20  22
ENDBRANCH   8  20
BRANCH   7  25
ATOM     25  C   UNL     1     154.102 150.468 144.049  0.00  0.00    +0.211 C 
BRANCH  25  26
ATOM     26  O   UNL     1     154.093 150.665 145.449  0.00  0.00    -0.373 OA
BRANCH  26  27
ATOM     27  C   UNL     1     153.710 151.993 145.794  0.00  0.00    +0.175 C 
BRANCH  27  28
ATOM     28  C   UNL     1     152.709 151.932 146.936  0.00  0.00    +0.106 C 
BRANCH  28  29
ATOM     29  N   UNL     1     151.876 150.743 146.827  0.00  0.00    -0.328 NA
ATOM     30  H   UNL     1     150.950 150.943 147.201  0.00  0.00    +0.118 HD
ATOM     31  H   UNL     1     152.263 149.998 147.404  0.00  0.00    +0.118 HD
ENDBRANCH  28  29
ENDBRANCH  27  28
ENDBRANCH  26  27
ENDBRANCH  25  26
ENDBRANCH   7  25
TORSDOF 11
ENDMDL
MODEL 7
REMARK VINA RESULT:      -6.2      2.680      5.529
REMARK  Name = 2162
REMARK  14 active torsions:
REMARK  status: ('A' for Active; 'I' for Inactive)
REMARK    1  A    between atoms: O_2  and  C_15
REMARK    2  A    between atoms: O_2  and  C_24
REMARK    3  A    between atoms: O_3  and  C_16
REMARK    4  A    between atoms: O_3  and  C_25
REMARK    5  A    between atoms: O_4  and  C_18
REMARK    6  A    between atoms: O_4  and  C_27
REMARK    7  A    between atoms: N_8  and  C_26
REMARK    8  A    between atoms: C_9  and  C_14
REMARK    9  A    between atoms: C_10  and  C_16
REMARK   10  A    between atoms: C_11  and  C_18
REMARK   11  A    between atoms: C_12  and  C_15
REMARK   12  A    between atoms: C_13  and  C_17
REMARK   13  A    between atoms: C_24  and  C_26
REMARK   14  A    between atoms: C_25  and  C_28
REMARK                            x       y       z     vdW  Elec       q    Type
REMARK                         _______ _______ _______ _____ _____    ______ ____
ROOT
ATOM      1  C   UNL     1     150.274 146.917 142.560  0.00  0.00    +0.097 C 
ATOM      2  C   UNL     1     149.055 146.150 142.038  0.00  0.00    +0.065 C 
ATOM      3  C   UNL     1     149.012 144.799 142.068  0.00  0.00    +0.016 C 
ATOM      4  C   UNL     1     147.847 143.953 141.631  0.00  0.00    +0.061 C 
ATOM      5  N   UNL     1     150.110 144.090 142.527  0.00  0.00    -0.319 N 
ATOM      6  H   UNL     1     150.039 143.079 142.543  0.00  0.00    +0.152 HD
ATOM      7  C   UNL     1     151.322 144.655 142.890  0.00  0.00    +0.045 C 
ATOM      8  C   UNL     1     151.453 146.002 142.907  0.00  0.00    +0.068 C 
ENDROOT
BRANCH   1  15
ATOM      9 CL   UNL     1     150.500 149.989 142.358  0.00  0.00    -0.083 Cl
ATOM     10  C   UNL     1     149.963 149.127 143.753  0.00  0.00    +0.045 A 
ATOM     11  C   UNL     1     149.597 149.850 144.888  0.00  0.00    +0.020 A 
ATOM     12  C   UNL     1     149.158 149.182 146.030  0.00  0.00    +0.001 A 
ATOM     13  C   UNL     1     149.085 147.789 146.038  0.00  0.00    +0.000 A 
ATOM     14  C   UNL     1     149.451 147.065 144.904  0.00  0.00    +0.006 A 
ATOM     15  C   UNL     1     149.890 147.734 143.761  0.00  0.00    -0.017 A 
ENDBRANCH   1  15
BRANCH   2  16
ATOM     16  C   UNL     1     147.965 146.957 141.463  0.00  0.00    +0.337 C 
ATOM     17  O   UNL     1     146.891 147.120 142.013  0.00  0.00    -0.245 OA
BRANCH  16  18
ATOM     18  O   UNL     1     148.381 147.448 140.270  0.00  0.00    -0.465 OA
ATOM     19  C   UNL     1     147.912 146.731 139.124  0.00  0.00    +0.280 C 
ENDBRANCH  16  18
ENDBRANCH   2  16
BRANCH   8  20
ATOM     20  C   UNL     1     152.738 146.660 143.192  0.00  0.00    +0.338 C 
ATOM     21  O   UNL     1     153.426 147.183 142.334  0.00  0.00    -0.245 OA
BRANCH  20  22
ATOM     22  O   UNL     1     152.980 146.570 144.521  0.00  0.00    -0.462 OA
BRANCH  22  23
ATOM     23  C   UNL     1     153.830 147.590 145.054  0.00  0.00    +0.229 C 
ATOM     24  C   UNL     1     152.982 148.605 145.788  0.00  0.00    +0.048 C 
ENDBRANCH  22  23
ENDBRANCH  20  22
ENDBRANCH   8  20
BRANCH   7  25
ATOM     25  C   UNL     1     152.401 143.670 143.248  0.00  0.00    +0.211 C 
BRANCH  25  26
ATOM     26  O   UNL     1     151.988 142.366 142.891  0.00  0.00    -0.373 OA
BRANCH  26  27
ATOM     27  C   UNL     1     153.011 141.657 142.199  0.00  0.00    +0.175 C 
BRANCH  27  28
ATOM     28  C   UNL     1     152.477 141.229 140.841  0.00  0.00    +0.106 C 
BRANCH  28  29
ATOM     29  N   UNL     1     151.226 141.909 140.544  0.00  0.00    -0.328 NA
ATOM     30  H   UNL     1     150.489 141.539 141.143  0.00  0.00    +0.118 HD
ATOM     31  H   UNL     1     150.944 141.707 139.586  0.00  0.00    +0.118 HD
ENDBRANCH  28  29
ENDBRANCH  27  28
ENDBRANCH  26  27
ENDBRANCH  25  26
ENDBRANCH   7  25
TORSDOF 11
ENDMDL
MODEL 8
REMARK VINA RESULT:      -6.2      3.538      6.949
REMARK  Name = 2162
REMARK  14 active torsions:
REMARK  status: ('A' for Active; 'I' for Inactive)
REMARK    1  A    between atoms: O_2  and  C_15
REMARK    2  A    between atoms: O_2  and  C_24
REMARK    3  A    between atoms: O_3  and  C_16
REMARK    4  A    between atoms: O_3  and  C_25
REMARK    5  A    between atoms: O_4  and  C_18
REMARK    6  A    between atoms: O_4  and  C_27
REMARK    7  A    between atoms: N_8  and  C_26
REMARK    8  A    between atoms: C_9  and  C_14
REMARK    9  A    between atoms: C_10  and  C_16
REMARK   10  A    between atoms: C_11  and  C_18
REMARK   11  A    between atoms: C_12  and  C_15
REMARK   12  A    between atoms: C_13  and  C_17
REMARK   13  A    between atoms: C_24  and  C_26
REMARK   14  A    between atoms: C_25  and  C_28
REMARK                            x       y       z     vdW  Elec       q    Type
REMARK                         _______ _______ _______ _____ _____    ______ ____
ROOT
ATOM      1  C   UNL     1     150.258 149.997 145.505  0.00  0.00    +0.097 C 
ATOM      2  C   UNL     1     149.129 149.285 144.752  0.00  0.00    +0.065 C 
ATOM      3  C   UNL     1     147.949 149.900 144.514  0.00  0.00    +0.016 C 
ATOM      4  C   UNL     1     146.799 149.313 143.743  0.00  0.00    +0.061 C 
ATOM      5  N   UNL     1     147.732 151.177 145.007  0.00  0.00    -0.319 N 
ATOM      6  H   UNL     1     146.838 151.610 144.801  0.00  0.00    +0.152 HD
ATOM      7  C   UNL     1     148.612 151.871 145.821  0.00  0.00    +0.045 C 
ATOM      8  C   UNL     1     149.824 151.341 146.100  0.00  0.00    +0.068 C 
ENDROOT
BRANCH   1  15
ATOM      9 CL   UNL     1     152.951 148.727 146.317  0.00  0.00    -0.083 Cl
ATOM     10  C   UNL     1     152.688 149.656 144.887  0.00  0.00    +0.045 A 
ATOM     11  C   UNL     1     153.757 149.862 144.017  0.00  0.00    +0.020 A 
ATOM     12  C   UNL     1     153.575 150.608 142.853  0.00  0.00    +0.001 A 
ATOM     13  C   UNL     1     152.323 151.149 142.559  0.00  0.00    +0.000 A 
ATOM     14  C   UNL     1     151.254 150.943 143.430  0.00  0.00    +0.006 A 
ATOM     15  C   UNL     1     151.436 150.196 144.594  0.00  0.00    -0.017 A 
ENDBRANCH   1  15
BRANCH   2  16
ATOM     16  C   UNL     1     149.382 147.891 144.350  0.00  0.00    +0.337 C 
ATOM     17  O   UNL     1     149.309 146.949 145.117  0.00  0.00    -0.245 OA
BRANCH  16  18
ATOM     18  O   UNL     1     149.693 147.877 143.031  0.00  0.00    -0.465 OA
ATOM     19  C   UNL     1     150.844 147.100 142.688  0.00  0.00    +0.280 C 
ENDBRANCH  16  18
ENDBRANCH   2  16
BRANCH   8  20
ATOM     20  C   UNL     1     150.765 151.984 147.032  0.00  0.00    +0.338 C 
ATOM     21  O   UNL     1     150.851 151.682 148.208  0.00  0.00    -0.245 OA
BRANCH  20  22
ATOM     22  O   UNL     1     151.469 152.920 146.352  0.00  0.00    -0.462 OA
BRANCH  22  23
ATOM     23  C   UNL     1     152.867 152.967 146.657  0.00  0.00    +0.229 C 
ATOM     24  C   UNL     1     153.637 153.272 145.391  0.00  0.00    +0.048 C 
ENDBRANCH  22  23
ENDBRANCH  20  22
ENDBRANCH   8  20
BRANCH   7  25
ATOM     25  C   UNL     1     148.104 153.197 146.321  0.00  0.00    +0.211 C 
BRANCH  25  26
ATOM     26  O   UNL     1     147.207 152.986 147.393  0.00  0.00    -0.373 OA
BRANCH  26  27
ATOM     27  C   UNL     1     146.487 154.170 147.722  0.00  0.00    +0.175 C 
BRANCH  27  28
ATOM     28  C   UNL     1     147.225 154.899 148.833  0.00  0.00    +0.106 C 
BRANCH  28  29
ATOM     29  N   UNL     1     147.156 154.145 150.076  0.00  0.00    -0.328 NA
ATOM     30  H   UNL     1     147.488 153.195 149.915  0.00  0.00    +0.118 HD
ATOM     31  H   UNL     1     146.186 154.062 150.375  0.00  0.00    +0.118 HD
ENDBRANCH  28  29
ENDBRANCH  27  28
ENDBRANCH  26  27
ENDBRANCH  25  26
ENDBRANCH   7  25
TORSDOF 11
ENDMDL
MODEL 9
REMARK VINA RESULT:      -6.1      8.928     12.946
REMARK  Name = 2162
REMARK  14 active torsions:
REMARK  status: ('A' for Active; 'I' for Inactive)
REMARK    1  A    between atoms: O_2  and  C_15
REMARK    2  A    between atoms: O_2  and  C_24
REMARK    3  A    between atoms: O_3  and  C_16
REMARK    4  A    between atoms: O_3  and  C_25
REMARK    5  A    between atoms: O_4  and  C_18
REMARK    6  A    between atoms: O_4  and  C_27
REMARK    7  A    between atoms: N_8  and  C_26
REMARK    8  A    between atoms: C_9  and  C_14
REMARK    9  A    between atoms: C_10  and  C_16
REMARK   10  A    between atoms: C_11  and  C_18
REMARK   11  A    between atoms: C_12  and  C_15
REMARK   12  A    between atoms: C_13  and  C_17
REMARK   13  A    between atoms: C_24  and  C_26
REMARK   14  A    between atoms: C_25  and  C_28
REMARK                            x       y       z     vdW  Elec       q    Type
REMARK                         _______ _______ _______ _____ _____    ______ ____
ROOT
ATOM      1  C   UNL     1     151.026 155.396 150.059  0.00  0.00    +0.097 C 
ATOM      2  C   UNL     1     151.789 154.326 150.846  0.00  0.00    +0.065 C 
ATOM      3  C   UNL     1     152.529 154.649 151.931  0.00  0.00    +0.016 C 
ATOM      4  C   UNL     1     153.273 153.673 152.802  0.00  0.00    +0.061 C 
ATOM      5  N   UNL     1     152.648 155.977 152.308  0.00  0.00    -0.319 N 
ATOM      6  H   UNL     1     153.204 156.180 153.131  0.00  0.00    +0.152 HD
ATOM      7  C   UNL     1     152.129 157.049 151.600  0.00  0.00    +0.045 C 
ATOM      8  C   UNL     1     151.360 156.822 150.511  0.00  0.00    +0.068 C 
ENDROOT
BRANCH   1  15
ATOM      9 CL   UNL     1     149.409 155.072 147.451  0.00  0.00    -0.083 Cl
ATOM     10  C   UNL     1     148.744 155.000 149.041  0.00  0.00    +0.045 A 
ATOM     11  C   UNL     1     147.375 154.780 149.186  0.00  0.00    +0.020 A 
ATOM     12  C   UNL     1     146.808 154.717 150.459  0.00  0.00    +0.001 A 
ATOM     13  C   UNL     1     147.611 154.874 151.588  0.00  0.00    +0.000 A 
ATOM     14  C   UNL     1     148.980 155.095 151.444  0.00  0.00    +0.006 A 
ATOM     15  C   UNL     1     149.547 155.158 150.171  0.00  0.00    -0.017 A 
ENDBRANCH   1  15
BRANCH   2  16
ATOM     16  C   UNL     1     151.711 152.949 150.332  0.00  0.00    +0.337 C 
ATOM     17  O   UNL     1     150.941 152.114 150.769  0.00  0.00    -0.245 OA
BRANCH  16  18
ATOM     18  O   UNL     1     152.619 152.813 149.334  0.00  0.00    -0.465 OA
ATOM     19  C   UNL     1     152.078 152.398 148.076  0.00  0.00    +0.280 C 
ENDBRANCH  16  18
ENDBRANCH   2  16
BRANCH   8  20
ATOM     20  C   UNL     1     150.859 157.917 149.665  0.00  0.00    +0.338 C 
ATOM     21  O   UNL     1     151.326 158.186 148.573  0.00  0.00    -0.245 OA
BRANCH  20  22
ATOM     22  O   UNL     1     149.834 158.522 150.310  0.00  0.00    -0.462 OA
BRANCH  22  23
ATOM     23  C   UNL     1     148.634 158.667 149.543  0.00  0.00    +0.229 C 
ATOM     24  C   UNL     1     147.441 158.434 150.445  0.00  0.00    +0.048 C 
ENDBRANCH  22  23
ENDBRANCH  20  22
ENDBRANCH   8  20
BRANCH   7  25
ATOM     25  C   UNL     1     152.485 158.405 152.150  0.00  0.00    +0.211 C 
BRANCH  25  26
ATOM     26  O   UNL     1     153.396 159.044 151.277  0.00  0.00    -0.373 OA
BRANCH  26  27
ATOM     27  C   UNL     1     154.594 158.290 151.118  0.00  0.00    +0.175 C 
BRANCH  27  28
ATOM     28  C   UNL     1     155.375 158.333 152.421  0.00  0.00    +0.106 C 
BRANCH  28  29
ATOM     29  N   UNL     1     155.768 156.992 152.829  0.00  0.00    -0.328 NA
ATOM     30  H   UNL     1     155.783 156.938 153.846  0.00  0.00    +0.118 HD
ATOM     31  H   UNL     1     156.719 156.803 152.518  0.00  0.00    +0.118 HD
ENDBRANCH  28  29
ENDBRANCH  27  28
ENDBRANCH  26  27
ENDBRANCH  25  26
ENDBRANCH   7  25
TORSDOF 11
ENDMDL
MODEL 10
REMARK VINA RESULT:      -6.1      2.324      4.416
REMARK  Name = 2162
REMARK  14 active torsions:
REMARK  status: ('A' for Active; 'I' for Inactive)
REMARK    1  A    between atoms: O_2  and  C_15
REMARK    2  A    between atoms: O_2  and  C_24
REMARK    3  A    between atoms: O_3  and  C_16
REMARK    4  A    between atoms: O_3  and  C_25
REMARK    5  A    between atoms: O_4  and  C_18
REMARK    6  A    between atoms: O_4  and  C_27
REMARK    7  A    between atoms: N_8  and  C_26
REMARK    8  A    between atoms: C_9  and  C_14
REMARK    9  A    between atoms: C_10  and  C_16
REMARK   10  A    between atoms: C_11  and  C_18
REMARK   11  A    between atoms: C_12  and  C_15
REMARK   12  A    between atoms: C_13  and  C_17
REMARK   13  A    between atoms: C_24  and  C_26
REMARK   14  A    between atoms: C_25  and  C_28
REMARK                            x       y       z     vdW  Elec       q    Type
REMARK                         _______ _______ _______ _____ _____    ______ ____
ROOT
ATOM      1  C   UNL     1     151.122 148.617 144.787  0.00  0.00    +0.097 C 
ATOM      2  C   UNL     1     152.537 148.577 144.201  0.00  0.00    +0.065 C 
ATOM      3  C   UNL     1     152.884 147.660 143.270  0.00  0.00    +0.016 C 
ATOM      4  C   UNL     1     154.224 147.566 142.594  0.00  0.00    +0.061 C 
ATOM      5  N   UNL     1     151.962 146.702 142.877  0.00  0.00    -0.319 N 
ATOM      6  H   UNL     1     152.254 146.037 142.170  0.00  0.00    +0.152 HD
ATOM      7  C   UNL     1     150.703 146.541 143.433  0.00  0.00    +0.045 C 
ATOM      8  C   UNL     1     150.264 147.422 144.360  0.00  0.00    +0.068 C 
ENDROOT
BRANCH   1  15
ATOM      9 CL   UNL     1     150.195 150.507 147.045  0.00  0.00    -0.083 Cl
ATOM     10  C   UNL     1     149.994 150.809 145.358  0.00  0.00    +0.045 A 
ATOM     11  C   UNL     1     149.368 151.989 144.959  0.00  0.00    +0.020 A 
ATOM     12  C   UNL     1     149.191 152.261 143.603  0.00  0.00    +0.001 A 
ATOM     13  C   UNL     1     149.641 151.353 142.645  0.00  0.00    +0.000 A 
ATOM     14  C   UNL     1     150.266 150.172 143.043  0.00  0.00    +0.006 A 
ATOM     15  C   UNL     1     150.443 149.900 144.400  0.00  0.00    -0.017 A 
ENDBRANCH   1  15
BRANCH   2  16
ATOM     16  C   UNL     1     153.501 149.551 144.739  0.00  0.00    +0.337 C 
ATOM     17  O   UNL     1     153.907 149.529 145.886  0.00  0.00    -0.245 OA
BRANCH  16  18
ATOM     18  O   UNL     1     153.823 150.423 143.752  0.00  0.00    -0.465 OA
ATOM     19  C   UNL     1     153.609 151.802 144.067  0.00  0.00    +0.280 C 
ENDBRANCH  16  18
ENDBRANCH   2  16
BRANCH   8  20
ATOM     20  C   UNL     1     148.977 147.252 145.054  0.00  0.00    +0.338 C 
ATOM     21  O   UNL     1     148.880 147.131 146.262  0.00  0.00    -0.245 OA
BRANCH  20  22
ATOM     22  O   UNL     1     147.988 147.258 144.130  0.00  0.00    -0.462 OA
BRANCH  22  23
ATOM     23  C   UNL     1     147.137 148.408 144.159  0.00  0.00    +0.229 C 
ATOM     24  C   UNL     1     146.802 148.810 142.739  0.00  0.00    +0.048 C 
ENDBRANCH  22  23
ENDBRANCH  20  22
ENDBRANCH   8  20
BRANCH   7  25
ATOM     25  C   UNL     1     149.928 145.359 142.916  0.00  0.00    +0.211 C 
BRANCH  25  26
ATOM     26  O   UNL     1     149.900 145.393 141.503  0.00  0.00    -0.373 OA
BRANCH  26  27
ATOM     27  C   UNL     1     148.637 145.827 141.008  0.00  0.00    +0.175 C 
BRANCH  27  28
ATOM     28  C   UNL     1     148.869 146.863 139.919  0.00  0.00    +0.106 C 
BRANCH  28  29
ATOM     29  N   UNL     1     148.242 146.448 138.673  0.00  0.00    -0.328 NA
ATOM     30  H   UNL     1     148.928 145.966 138.094  0.00  0.00    +0.118 HD
ATOM     31  H   UNL     1     147.948 147.269 138.146  0.00  0.00    +0.118 HD
ENDBRANCH  28  29
ENDBRANCH  27  28
ENDBRANCH  26  27
ENDBRANCH  25  26
ENDBRANCH   7  25
TORSDOF 11
ENDMDL
