MODEL 1
REMARK VINA RESULT:   -12.345      0.000      0.000
REMARK INTER + INTRA:         -29.799
REMARK INTER:                 -31.830
REMARK INTRA:                   2.031
REMARK UNBOUND:                 2.031
REMARK WARNING: 32 MAX_TORS EXCEEDED!!!
REMARK  38 active torsions:
REMARK  status: ('A' for Active; 'I' for Inactive)
REMARK    1  A    between atoms: O_2  and  C_27 
REMARK    2  A    between atoms: O_2  and  C_33 
REMARK    3  A    between atoms: O_3  and  C_28 
REMARK    4  A    between atoms: O_3  and  C_34 
REMARK    5  A    between atoms: O_4  and  C_29 
REMARK    6  A    between atoms: O_4  and  C_35 
REMARK    7  A    between atoms: O_5  and  C_31 
REMARK    8  A    between atoms: O_5  and  C_36 
REMARK    9  A    between atoms: O_6  and  C_32 
REMARK   10  A    between atoms: O_6  and  C_39 
REMARK   11  A    between atoms: O_12  and  C_51 
REMARK   12  A    between atoms: O_13  and  C_52 
REMARK   13  A    between atoms: O_14  and  C_53 
REMARK   14  A    between atoms: O_15  and  C_54 
REMARK   15  A    between atoms: O_16  and  C_55 
REMARK   16  A    between atoms: O_17  and  C_56 
REMARK   17  A    between atoms: O_18  and  C_59 
REMARK   18  A    between atoms: O_19  and  C_60 
REMARK   19  A    between atoms: O_20  and  C_61 
REMARK   20  A    between atoms: O_21  and  C_62 
REMARK   21  A    between atoms: O_22  and  C_63 
REMARK   22  A    between atoms: O_23  and  C_64 
REMARK   23  A    between atoms: O_24  and  C_65 
REMARK   24  A    between atoms: O_24  and  C_86 
REMARK   25  A    between atoms: O_25  and  C_66 
REMARK   26  A    between atoms: O_26  and  C_67 
REMARK   27  A    between atoms: C_28  and  C_30 
REMARK   28  A    between atoms: C_29  and  C_31 
REMARK   29  A    between atoms: C_30  and  C_32 
REMARK   30  A    between atoms: C_33  and  C_37 
REMARK   31  A    between atoms: C_34  and  C_38 
REMARK   32  A    between atoms: C_35  and  C_40 
REMARK   33  A    between atoms: C_36  and  C_41 
REMARK   34  A    between atoms: C_39  and  C_42 
REMARK   35  A    between atoms: O_83  and  C_90 
REMARK   36  A    between atoms: O_84  and  C_91 
REMARK   37  A    between atoms: O_85  and  C_92 
REMARK   38  A    between atoms: C_86  and  C_87 
ROOT
HETATM    1  O   UNL     1      80.429  90.954 115.269  1.00  0.00    -0.348 OA
HETATM    2  C   UNL     1      80.656  91.108 113.936  1.00  0.00     0.201 A 
HETATM    3  C   UNL     1      81.047  92.113 114.874  1.00  0.00     0.282 A 
ENDROOT
BRANCH   2   4
HETATM    4  C   UNL     1      80.238  91.673 113.505  1.00  0.00     0.199 A 
HETATM    5  C   UNL     1      79.223  91.041 112.470  1.00  0.00     0.198 A 
HETATM    6  C   UNL     1      79.007  91.081 113.923  1.00  0.00     0.215 A 
BRANCH   4   7
HETATM    7  O   UNL     1      81.367  91.592 112.176  1.00  0.00    -0.306 OA
BRANCH   7   8
HETATM    8  C   UNL     1      81.849  92.020 111.021  1.00  0.00     0.294 C 
HETATM    9  O   UNL     1      81.610  91.458 109.958  1.00  0.00    -0.259 OA
BRANCH   8  10
HETATM   10  C   UNL     1      82.640  93.236 110.963  1.00  0.00     0.045 A 
HETATM   11  C   UNL     1      82.099  94.339 110.290  1.00  0.00     0.057 A 
HETATM   12  C   UNL     1      82.571  95.605 110.608  1.00  0.00     0.102 A 
HETATM   13  C   UNL     1      83.576  95.759 111.560  1.00  0.00     0.132 A 
HETATM   14  C   UNL     1      84.127  94.652 112.195  1.00  0.00     0.102 A 
HETATM   15  C   UNL     1      83.645  93.383 111.923  1.00  0.00     0.057 A 
BRANCH  12  16
HETATM   16  O   UNL     1      82.017  96.730 110.064  1.00  0.00    -0.358 OA
HETATM   17  H   UNL     1      81.511  96.461 109.275  1.00  0.00     0.217 HD
ENDBRANCH  12  16
BRANCH  13  18
HETATM   18  O   UNL     1      83.985  97.009 111.940  1.00  0.00    -0.356 OA
HETATM   19  H   UNL     1      83.195  97.398 112.368  1.00  0.00     0.218 HD
ENDBRANCH  13  18
BRANCH  14  20
HETATM   20  O   UNL     1      85.088  94.813 113.151  1.00  0.00    -0.358 OA
HETATM   21  H   UNL     1      84.616  94.632 113.992  1.00  0.00     0.217 HD
ENDBRANCH  14  20
ENDBRANCH   8  10
ENDBRANCH   7   8
ENDBRANCH   4   7
BRANCH   5  22
HETATM   22  O   UNL     1      78.487  92.168 111.720  1.00  0.00    -0.306 OA
BRANCH  22  23
HETATM   23  C   UNL     1      77.974  91.995 110.447  1.00  0.00     0.294 C 
HETATM   24  O   UNL     1      77.391  91.017 109.996  1.00  0.00    -0.259 OA
BRANCH  23  25
HETATM   25  C   UNL     1      78.197  93.129 109.555  1.00  0.00     0.045 A 
HETATM   26  C   UNL     1      78.600  94.359 110.102  1.00  0.00     0.057 A 
HETATM   27  C   UNL     1      78.789  95.441 109.255  1.00  0.00     0.102 A 
HETATM   28  C   UNL     1      78.549  95.301 107.894  1.00  0.00     0.132 A 
HETATM   29  C   UNL     1      78.041  94.111 107.387  1.00  0.00     0.102 A 
HETATM   30  C   UNL     1      77.845  93.019 108.213  1.00  0.00     0.057 A 
BRANCH  27  31
HETATM   31  O   UNL     1      79.204  96.657 109.717  1.00  0.00    -0.358 OA
HETATM   32  H   UNL     1      80.170  96.622 109.855  1.00  0.00     0.217 HD
ENDBRANCH  27  31
BRANCH  28  33
HETATM   33  O   UNL     1      78.802  96.334 107.034  1.00  0.00    -0.356 OA
HETATM   34  H   UNL     1      79.641  96.716 107.362  1.00  0.00     0.218 HD
ENDBRANCH  28  33
BRANCH  29  35
HETATM   35  O   UNL     1      77.730  94.001 106.066  1.00  0.00    -0.358 OA
HETATM   36  H   UNL     1      77.064  94.698 105.906  1.00  0.00     0.217 HD
ENDBRANCH  29  35
ENDBRANCH  23  25
ENDBRANCH  22  23
ENDBRANCH   5  22
BRANCH   6  37
HETATM   37  O   UNL     1      77.423  90.849 114.303  1.00  0.00    -0.304 OA
BRANCH  37  38
HETATM   38  C   UNL     1      76.582  91.780 114.829  1.00  0.00     0.294 C 
HETATM   39  O   UNL     1      76.611  92.261 115.943  1.00  0.00    -0.259 OA
BRANCH  38  40
HETATM   40  C   UNL     1      75.574  92.085 113.811  1.00  0.00     0.045 A 
HETATM   41  C   UNL     1      74.925  93.318 113.910  1.00  0.00     0.057 A 
HETATM   42  C   UNL     1      73.989  93.664 112.957  1.00  0.00     0.102 A 
HETATM   43  C   UNL     1      73.712  92.804 111.905  1.00  0.00     0.132 A 
HETATM   44  C   UNL     1      74.384  91.587 111.794  1.00  0.00     0.102 A 
HETATM   45  C   UNL     1      75.322  91.211 112.749  1.00  0.00     0.057 A 
BRANCH  42  46
HETATM   46  O   UNL     1      73.367  94.869 113.062  1.00  0.00    -0.358 OA
HETATM   47  H   UNL     1      73.554  95.331 112.222  1.00  0.00     0.217 HD
ENDBRANCH  42  46
BRANCH  43  48
HETATM   48  O   UNL     1      72.791  93.181 110.968  1.00  0.00    -0.356 OA
HETATM   49  H   UNL     1      72.201  92.405 110.884  1.00  0.00     0.218 HD
ENDBRANCH  43  48
BRANCH  44  50
HETATM   50  O   UNL     1      74.101  90.806 110.708  1.00  0.00    -0.358 OA
HETATM   51  H   UNL     1      74.465  89.917 110.870  1.00  0.00     0.217 HD
ENDBRANCH  44  50
ENDBRANCH  38  40
ENDBRANCH  37  38
ENDBRANCH   6  37
ENDBRANCH   2   4
BRANCH   2  52
HETATM   52  C   UNL     1      81.465  90.220 112.795  1.00  0.00     0.216 C 
BRANCH  52  53
HETATM   53  O   UNL     1      81.730  88.960 113.405  1.00  0.00    -0.315 OA
BRANCH  53  54
HETATM   54  C   UNL     1      82.924  88.892 114.013  1.00  0.00     0.293 C 
HETATM   55  O   UNL     1      83.145  89.069 115.195  1.00  0.00    -0.259 OA
BRANCH  54  56
HETATM   56  C   UNL     1      83.919  88.644 112.956  1.00  0.00     0.045 C 
HETATM   57  C   UNL     1      84.346  89.662 112.081  1.00  0.00     0.057 C 
HETATM   58  C   UNL     1      85.341  89.401 111.157  1.00  0.00     0.102 C 
HETATM   59  C   UNL     1      86.014  88.192 111.196  1.00  0.00     0.133 C 
HETATM   60  C   UNL     1      85.658  87.245 112.160  1.00  0.00     0.116 C 
HETATM   61  C   UNL     1      84.519  87.393 112.941  1.00  0.00     0.058 C 
BRANCH  58  62
HETATM   62  O   UNL     1      85.725  90.371 110.277  1.00  0.00    -0.358 OA
HETATM   63  H   UNL     1      86.685  90.217 110.152  1.00  0.00     0.217 HD
ENDBRANCH  58  62
BRANCH  59  64
HETATM   64  O   UNL     1      87.076  88.034 110.352  1.00  0.00    -0.356 OA
HETATM   65  H   UNL     1      87.627  87.307 110.700  1.00  0.00     0.218 HD
ENDBRANCH  59  64
BRANCH  60  66
HETATM   66  O   UNL     1      86.565  86.262 112.555  1.00  0.00    -0.272 OA
BRANCH  66  67
HETATM   67  C   UNL     1      87.207  86.772 113.677  1.00  0.00     0.298 C 
HETATM   68  O   UNL     1      88.005  87.695 113.624  1.00  0.00    -0.259 OA
BRANCH  67  69
HETATM   69  C   UNL     1      86.862  86.072 114.946  1.00  0.00     0.045 A 
HETATM   70  C   UNL     1      86.010  86.704 115.867  1.00  0.00     0.057 A 
HETATM   71  C   UNL     1      85.636  86.030 117.024  1.00  0.00     0.102 A 
HETATM   72  C   UNL     1      86.135  84.763 117.290  1.00  0.00     0.132 A 
HETATM   73  C   UNL     1      87.005  84.155 116.388  1.00  0.00     0.102 A 
HETATM   74  C   UNL     1      87.360  84.788 115.197  1.00  0.00     0.057 A 
BRANCH  71  75
HETATM   75  O   UNL     1      84.781  86.662 117.872  1.00  0.00    -0.358 OA
HETATM   76  H   UNL     1      84.261  85.994 118.367  1.00  0.00     0.217 HD
ENDBRANCH  71  75
BRANCH  72  77
HETATM   77  O   UNL     1      85.783  84.121 118.444  1.00  0.00    -0.356 OA
HETATM   78  H   UNL     1      86.396  84.464 119.126  1.00  0.00     0.218 HD
ENDBRANCH  72  77
BRANCH  73  79
HETATM   79  O   UNL     1      87.500  82.924 116.724  1.00  0.00    -0.358 OA
HETATM   80  H   UNL     1      87.204  82.710 117.628  1.00  0.00     0.217 HD
ENDBRANCH  73  79
ENDBRANCH  67  69
ENDBRANCH  66  67
ENDBRANCH  60  66
ENDBRANCH  54  56
ENDBRANCH  53  54
ENDBRANCH  52  53
ENDBRANCH   2  52
BRANCH   3  81
HETATM   81  O   UNL     1      82.600  92.163 114.716  1.00  0.00    -0.285 OA
BRANCH  81  82
HETATM   82  C   UNL     1      83.361  92.950 115.523  1.00  0.00     0.295 C 
HETATM   83  O   UNL     1      82.873  93.906 116.111  1.00  0.00    -0.259 OA
BRANCH  82  84
HETATM   84  C   UNL     1      84.764  92.527 115.787  1.00  0.00     0.045 A 
HETATM   85  C   UNL     1      85.535  93.101 116.806  1.00  0.00     0.057 A 
HETATM   86  C   UNL     1      86.874  92.734 116.933  1.00  0.00     0.102 A 
HETATM   87  C   UNL     1      87.452  91.828 116.050  1.00  0.00     0.132 A 
HETATM   88  C   UNL     1      86.696  91.271 115.030  1.00  0.00     0.102 A 
HETATM   89  C   UNL     1      85.355  91.617 114.889  1.00  0.00     0.057 A 
BRANCH  86  90
HETATM   90  O   UNL     1      87.644  93.282 117.921  1.00  0.00    -0.358 OA
HETATM   91  H   UNL     1      87.230  92.957 118.749  1.00  0.00     0.217 HD
ENDBRANCH  86  90
BRANCH  87  92
HETATM   92  O   UNL     1      88.778  91.516 116.195  1.00  0.00    -0.356 OA
HETATM   93  H   UNL     1      89.197  92.360 116.467  1.00  0.00     0.218 HD
ENDBRANCH  87  92
BRANCH  88  94
HETATM   94  O   UNL     1      87.319  90.404 114.175  1.00  0.00    -0.358 OA
HETATM   95  H   UNL     1      86.950  89.514 114.327  1.00  0.00     0.217 HD
ENDBRANCH  88  94
ENDBRANCH  82  84
ENDBRANCH  81  82
ENDBRANCH   3  81
TORSDOF 38
ENDMDL
MODEL 2
REMARK VINA RESULT:   -12.247      1.523      8.386
REMARK INTER + INTRA:         -29.546
REMARK INTER:                 -30.368
REMARK INTRA:                   0.822
REMARK UNBOUND:                 2.031
REMARK WARNING: 32 MAX_TORS EXCEEDED!!!
REMARK  38 active torsions:
REMARK  status: ('A' for Active; 'I' for Inactive)
REMARK    1  A    between atoms: O_2  and  C_27 
REMARK    2  A    between atoms: O_2  and  C_33 
REMARK    3  A    between atoms: O_3  and  C_28 
REMARK    4  A    between atoms: O_3  and  C_34 
REMARK    5  A    between atoms: O_4  and  C_29 
REMARK    6  A    between atoms: O_4  and  C_35 
REMARK    7  A    between atoms: O_5  and  C_31 
REMARK    8  A    between atoms: O_5  and  C_36 
REMARK    9  A    between atoms: O_6  and  C_32 
REMARK   10  A    between atoms: O_6  and  C_39 
REMARK   11  A    between atoms: O_12  and  C_51 
REMARK   12  A    between atoms: O_13  and  C_52 
REMARK   13  A    between atoms: O_14  and  C_53 
REMARK   14  A    between atoms: O_15  and  C_54 
REMARK   15  A    between atoms: O_16  and  C_55 
REMARK   16  A    between atoms: O_17  and  C_56 
REMARK   17  A    between atoms: O_18  and  C_59 
REMARK   18  A    between atoms: O_19  and  C_60 
REMARK   19  A    between atoms: O_20  and  C_61 
REMARK   20  A    between atoms: O_21  and  C_62 
REMARK   21  A    between atoms: O_22  and  C_63 
REMARK   22  A    between atoms: O_23  and  C_64 
REMARK   23  A    between atoms: O_24  and  C_65 
REMARK   24  A    between atoms: O_24  and  C_86 
REMARK   25  A    between atoms: O_25  and  C_66 
REMARK   26  A    between atoms: O_26  and  C_67 
REMARK   27  A    between atoms: C_28  and  C_30 
REMARK   28  A    between atoms: C_29  and  C_31 
REMARK   29  A    between atoms: C_30  and  C_32 
REMARK   30  A    between atoms: C_33  and  C_37 
REMARK   31  A    between atoms: C_34  and  C_38 
REMARK   32  A    between atoms: C_35  and  C_40 
REMARK   33  A    between atoms: C_36  and  C_41 
REMARK   34  A    between atoms: C_39  and  C_42 
REMARK   35  A    between atoms: O_83  and  C_90 
REMARK   36  A    between atoms: O_84  and  C_91 
REMARK   37  A    between atoms: O_85  and  C_92 
REMARK   38  A    between atoms: C_86  and  C_87 
ROOT
HETATM    1  O   UNL     1      82.308  91.708 111.103  1.00  0.00    -0.348 OA
HETATM    2  C   UNL     1      81.631  91.480 112.261  1.00  0.00     0.201 A 
HETATM    3  C   UNL     1      81.005  92.135 111.155  1.00  0.00     0.282 A 
ENDROOT
BRANCH   2   4
HETATM    4  C   UNL     1      81.421  92.108 112.751  1.00  0.00     0.199 A 
HETATM    5  C   UNL     1      82.090  92.032 114.181  1.00  0.00     0.198 A 
HETATM    6  C   UNL     1      82.803  92.412 112.954  1.00  0.00     0.215 A 
BRANCH   4   7
HETATM    7  O   UNL     1      80.140  91.187 113.497  1.00  0.00    -0.306 OA
BRANCH   7   8
HETATM    8  C   UNL     1      78.976  91.088 114.116  1.00  0.00     0.294 C 
HETATM    9  O   UNL     1      78.745  90.224 114.955  1.00  0.00    -0.259 OA
BRANCH   8  10
HETATM   10  C   UNL     1      77.929  92.064 113.867  1.00  0.00     0.045 A 
HETATM   11  C   UNL     1      76.726  91.608 113.314  1.00  0.00     0.057 A 
HETATM   12  C   UNL     1      75.581  92.370 113.502  1.00  0.00     0.102 A 
HETATM   13  C   UNL     1      75.647  93.571 114.205  1.00  0.00     0.132 A 
HETATM   14  C   UNL     1      76.856  94.027 114.718  1.00  0.00     0.102 A 
HETATM   15  C   UNL     1      78.002  93.265 114.577  1.00  0.00     0.057 A 
BRANCH  12  16
HETATM   16  O   UNL     1      74.356  91.935 113.078  1.00  0.00    -0.358 OA
HETATM   17  H   UNL     1      74.256  92.196 112.143  1.00  0.00     0.217 HD
ENDBRANCH  12  16
BRANCH  13  18
HETATM   18  O   UNL     1      74.508  94.284 114.467  1.00  0.00    -0.356 OA
HETATM   19  H   UNL     1      73.809  93.803 113.979  1.00  0.00     0.218 HD
ENDBRANCH  13  18
BRANCH  14  20
HETATM   20  O   UNL     1      76.907  95.188 115.435  1.00  0.00    -0.358 OA
HETATM   21  H   UNL     1      75.986  95.525 115.401  1.00  0.00     0.217 HD
ENDBRANCH  14  20
ENDBRANCH   8  10
ENDBRANCH   7   8
ENDBRANCH   4   7
BRANCH   5  22
HETATM   22  O   UNL     1      81.647  93.246 115.022  1.00  0.00    -0.306 OA
BRANCH  22  23
HETATM   23  C   UNL     1      81.694  93.245 116.403  1.00  0.00     0.294 C 
HETATM   24  O   UNL     1      81.057  93.945 117.180  1.00  0.00    -0.259 OA
BRANCH  23  25
HETATM   25  C   UNL     1      82.651  92.298 116.966  1.00  0.00     0.045 A 
HETATM   26  C   UNL     1      82.374  90.922 116.894  1.00  0.00     0.057 A 
HETATM   27  C   UNL     1      83.274  90.025 117.449  1.00  0.00     0.102 A 
HETATM   28  C   UNL     1      84.411  90.498 118.092  1.00  0.00     0.132 A 
HETATM   29  C   UNL     1      84.612  91.863 118.254  1.00  0.00     0.102 A 
HETATM   30  C   UNL     1      83.727  92.776 117.708  1.00  0.00     0.057 A 
BRANCH  27  31
HETATM   31  O   UNL     1      83.078  88.675 117.392  1.00  0.00    -0.358 OA
HETATM   32  H   UNL     1      82.323  88.447 117.967  1.00  0.00     0.217 HD
ENDBRANCH  27  31
BRANCH  28  33
HETATM   33  O   UNL     1      85.347  89.628 118.579  1.00  0.00    -0.356 OA
HETATM   34  H   UNL     1      84.824  88.847 118.854  1.00  0.00     0.218 HD
ENDBRANCH  28  33
BRANCH  29  35
HETATM   35  O   UNL     1      85.685  92.324 118.954  1.00  0.00    -0.358 OA
HETATM   36  H   UNL     1      86.157  92.912 118.333  1.00  0.00     0.217 HD
ENDBRANCH  29  35
ENDBRANCH  23  25
ENDBRANCH  22  23
ENDBRANCH   5  22
BRANCH   6  37
HETATM   37  O   UNL     1      84.206  93.202 113.291  1.00  0.00    -0.304 OA
BRANCH  37  38
HETATM   38  C   UNL     1      85.456  92.798 112.937  1.00  0.00     0.294 C 
HETATM   39  O   UNL     1      85.908  92.679 111.818  1.00  0.00    -0.259 OA
BRANCH  38  40
HETATM   40  C   UNL     1      86.178  92.477 114.171  1.00  0.00     0.045 A 
HETATM   41  C   UNL     1      86.487  91.133 114.393  1.00  0.00     0.057 A 
HETATM   42  C   UNL     1      87.193  90.784 115.526  1.00  0.00     0.102 A 
HETATM   43  C   UNL     1      87.605  91.760 116.421  1.00  0.00     0.132 A 
HETATM   44  C   UNL     1      87.321  93.103 116.179  1.00  0.00     0.102 A 
HETATM   45  C   UNL     1      86.600  93.478 115.051  1.00  0.00     0.057 A 
BRANCH  42  46
HETATM   46  O   UNL     1      87.490  89.472 115.729  1.00  0.00    -0.358 OA
HETATM   47  H   UNL     1      88.391  89.353 115.370  1.00  0.00     0.217 HD
ENDBRANCH  42  46
BRANCH  43  48
HETATM   48  O   UNL     1      88.317  91.384 117.526  1.00  0.00    -0.356 OA
HETATM   49  H   UNL     1      88.858  92.170 117.742  1.00  0.00     0.218 HD
ENDBRANCH  43  48
BRANCH  44  50
HETATM   50  O   UNL     1      87.797  94.020 117.074  1.00  0.00    -0.358 OA
HETATM   51  H   UNL     1      87.159  94.088 117.808  1.00  0.00     0.217 HD
ENDBRANCH  44  50
ENDBRANCH  38  40
ENDBRANCH  37  38
ENDBRANCH   6  37
ENDBRANCH   2   4
BRANCH   2  52
HETATM   52  C   UNL     1      81.283  90.122 113.142  1.00  0.00     0.216 C 
BRANCH  52  53
HETATM   53  O   UNL     1      81.972  89.055 112.495  1.00  0.00    -0.315 OA
BRANCH  53  54
HETATM   54  C   UNL     1      82.909  88.473 113.257  1.00  0.00     0.293 C 
HETATM   55  O   UNL     1      82.811  88.192 114.436  1.00  0.00    -0.259 OA
BRANCH  54  56
HETATM   56  C   UNL     1      84.103  88.318 112.409  1.00  0.00     0.045 C 
HETATM   57  C   UNL     1      84.607  89.379 111.633  1.00  0.00     0.057 C 
HETATM   58  C   UNL     1      85.777  89.209 110.914  1.00  0.00     0.102 C 
HETATM   59  C   UNL     1      86.522  88.054 111.079  1.00  0.00     0.133 C 
HETATM   60  C   UNL     1      86.063  87.067 111.955  1.00  0.00     0.116 C 
HETATM   61  C   UNL     1      84.789  87.117 112.506  1.00  0.00     0.058 C 
BRANCH  58  62
HETATM   62  O   UNL     1      86.245  90.220 110.125  1.00  0.00    -0.358 OA
HETATM   63  H   UNL     1      86.835  89.771 109.484  1.00  0.00     0.217 HD
ENDBRANCH  58  62
BRANCH  59  64
HETATM   64  O   UNL     1      87.733  87.991 110.452  1.00  0.00    -0.356 OA
HETATM   65  H   UNL     1      88.157  88.868 110.533  1.00  0.00     0.218 HD
ENDBRANCH  59  64
BRANCH  60  66
HETATM   66  O   UNL     1      86.953  86.149 112.514  1.00  0.00    -0.272 OA
BRANCH  66  67
HETATM   67  C   UNL     1      87.410  86.736 113.687  1.00  0.00     0.298 C 
HETATM   68  O   UNL     1      88.119  87.731 113.701  1.00  0.00    -0.259 OA
BRANCH  67  69
HETATM   69  C   UNL     1      86.989  86.026 114.928  1.00  0.00     0.045 A 
HETATM   70  C   UNL     1      86.131  86.675 115.830  1.00  0.00     0.057 A 
HETATM   71  C   UNL     1      85.686  85.995 116.958  1.00  0.00     0.102 A 
HETATM   72  C   UNL     1      86.121  84.703 117.215  1.00  0.00     0.132 A 
HETATM   73  C   UNL     1      86.998  84.076 116.332  1.00  0.00     0.102 A 
HETATM   74  C   UNL     1      87.423  84.717 115.169  1.00  0.00     0.057 A 
BRANCH  71  75
HETATM   75  O   UNL     1      84.826  86.645 117.787  1.00  0.00    -0.358 OA
HETATM   76  H   UNL     1      83.910  86.345 117.607  1.00  0.00     0.217 HD
ENDBRANCH  71  75
BRANCH  72  77
HETATM   77  O   UNL     1      85.699  84.053 118.340  1.00  0.00    -0.356 OA
HETATM   78  H   UNL     1      84.814  84.424 118.535  1.00  0.00     0.218 HD
ENDBRANCH  72  77
BRANCH  73  79
HETATM   79  O   UNL     1      87.428  82.819 116.659  1.00  0.00    -0.358 OA
HETATM   80  H   UNL     1      88.332  82.886 117.019  1.00  0.00     0.217 HD
ENDBRANCH  73  79
ENDBRANCH  67  69
ENDBRANCH  66  67
ENDBRANCH  60  66
ENDBRANCH  54  56
ENDBRANCH  53  54
ENDBRANCH  52  53
ENDBRANCH   2  52
BRANCH   3  81
HETATM   81  O   UNL     1      79.843  91.162 110.776  1.00  0.00    -0.285 OA
BRANCH  81  82
HETATM   82  C   UNL     1      78.718  91.620 110.163  1.00  0.00     0.295 C 
HETATM   83  O   UNL     1      77.652  91.033 110.286  1.00  0.00    -0.259 OA
BRANCH  82  84
HETATM   84  C   UNL     1      78.791  92.932 109.463  1.00  0.00     0.045 A 
HETATM   85  C   UNL     1      79.090  94.121 110.141  1.00  0.00     0.057 A 
HETATM   86  C   UNL     1      79.041  95.329 109.447  1.00  0.00     0.102 A 
HETATM   87  C   UNL     1      78.678  95.366 108.105  1.00  0.00     0.132 A 
HETATM   88  C   UNL     1      78.364  94.193 107.435  1.00  0.00     0.102 A 
HETATM   89  C   UNL     1      78.415  92.975 108.107  1.00  0.00     0.057 A 
BRANCH  86  90
HETATM   90  O   UNL     1      79.329  96.501 110.089  1.00  0.00    -0.358 OA
HETATM   91  H   UNL     1      79.051  97.192 109.451  1.00  0.00     0.217 HD
ENDBRANCH  86  90
BRANCH  87  92
HETATM   92  O   UNL     1      78.616  96.578 107.469  1.00  0.00    -0.356 OA
HETATM   93  H   UNL     1      77.676  96.662 107.200  1.00  0.00     0.218 HD
ENDBRANCH  87  92
BRANCH  88  94
HETATM   94  O   UNL     1      77.991  94.288 106.123  1.00  0.00    -0.358 OA
HETATM   95  H   UNL     1      77.024  94.410 106.093  1.00  0.00     0.217 HD
ENDBRANCH  88  94
ENDBRANCH  82  84
ENDBRANCH  81  82
ENDBRANCH   3  81
TORSDOF 38
ENDMDL
MODEL 3
REMARK VINA RESULT:   -12.129      2.005      3.594
REMARK INTER + INTRA:         -29.243
REMARK INTER:                 -29.611
REMARK INTRA:                   0.368
REMARK UNBOUND:                 2.031
REMARK WARNING: 32 MAX_TORS EXCEEDED!!!
REMARK  38 active torsions:
REMARK  status: ('A' for Active; 'I' for Inactive)
REMARK    1  A    between atoms: O_2  and  C_27 
REMARK    2  A    between atoms: O_2  and  C_33 
REMARK    3  A    between atoms: O_3  and  C_28 
REMARK    4  A    between atoms: O_3  and  C_34 
REMARK    5  A    between atoms: O_4  and  C_29 
REMARK    6  A    between atoms: O_4  and  C_35 
REMARK    7  A    between atoms: O_5  and  C_31 
REMARK    8  A    between atoms: O_5  and  C_36 
REMARK    9  A    between atoms: O_6  and  C_32 
REMARK   10  A    between atoms: O_6  and  C_39 
REMARK   11  A    between atoms: O_12  and  C_51 
REMARK   12  A    between atoms: O_13  and  C_52 
REMARK   13  A    between atoms: O_14  and  C_53 
REMARK   14  A    between atoms: O_15  and  C_54 
REMARK   15  A    between atoms: O_16  and  C_55 
REMARK   16  A    between atoms: O_17  and  C_56 
REMARK   17  A    between atoms: O_18  and  C_59 
REMARK   18  A    between atoms: O_19  and  C_60 
REMARK   19  A    between atoms: O_20  and  C_61 
REMARK   20  A    between atoms: O_21  and  C_62 
REMARK   21  A    between atoms: O_22  and  C_63 
REMARK   22  A    between atoms: O_23  and  C_64 
REMARK   23  A    between atoms: O_24  and  C_65 
REMARK   24  A    between atoms: O_24  and  C_86 
REMARK   25  A    between atoms: O_25  and  C_66 
REMARK   26  A    between atoms: O_26  and  C_67 
REMARK   27  A    between atoms: C_28  and  C_30 
REMARK   28  A    between atoms: C_29  and  C_31 
REMARK   29  A    between atoms: C_30  and  C_32 
REMARK   30  A    between atoms: C_33  and  C_37 
REMARK   31  A    between atoms: C_34  and  C_38 
REMARK   32  A    between atoms: C_35  and  C_40 
REMARK   33  A    between atoms: C_36  and  C_41 
REMARK   34  A    between atoms: C_39  and  C_42 
REMARK   35  A    between atoms: O_83  and  C_90 
REMARK   36  A    between atoms: O_84  and  C_91 
REMARK   37  A    between atoms: O_85  and  C_92 
REMARK   38  A    between atoms: C_86  and  C_87 
ROOT
HETATM    1  O   UNL     1      79.659  91.551 115.890  1.00  0.00    -0.348 OA
HETATM    2  C   UNL     1      80.188  91.490 114.638  1.00  0.00     0.201 A 
HETATM    3  C   UNL     1      80.453  92.599 115.499  1.00  0.00     0.282 A 
ENDROOT
BRANCH   2   4
HETATM    4  C   UNL     1      79.930  92.007 114.051  1.00  0.00     0.199 A 
HETATM    5  C   UNL     1      79.393  91.269 112.761  1.00  0.00     0.198 A 
HETATM    6  C   UNL     1      78.660  91.352 114.031  1.00  0.00     0.215 A 
BRANCH   4   7
HETATM    7  O   UNL     1      81.468  91.949 113.227  1.00  0.00    -0.306 OA
BRANCH   7   8
HETATM    8  C   UNL     1      82.316  92.359 112.299  1.00  0.00     0.294 C 
HETATM    9  O   UNL     1      82.025  93.218 111.473  1.00  0.00    -0.259 OA
BRANCH   8  10
HETATM   10  C   UNL     1      83.673  91.844 112.267  1.00  0.00     0.045 A 
HETATM   11  C   UNL     1      83.961  90.813 111.365  1.00  0.00     0.057 A 
HETATM   12  C   UNL     1      85.278  90.630 110.967  1.00  0.00     0.102 A 
HETATM   13  C   UNL     1      86.284  91.446 111.480  1.00  0.00     0.132 A 
HETATM   14  C   UNL     1      85.986  92.445 112.401  1.00  0.00     0.102 A 
HETATM   15  C   UNL     1      84.675  92.670 112.782  1.00  0.00     0.057 A 
BRANCH  12  16
HETATM   16  O   UNL     1      85.616  89.710 110.014  1.00  0.00    -0.358 OA
HETATM   17  H   UNL     1      84.977  88.975 110.071  1.00  0.00     0.217 HD
ENDBRANCH  12  16
BRANCH  13  18
HETATM   18  O   UNL     1      87.571  91.329 111.029  1.00  0.00    -0.356 OA
HETATM   19  H   UNL     1      87.527  91.640 110.101  1.00  0.00     0.218 HD
ENDBRANCH  13  18
BRANCH  14  20
HETATM   20  O   UNL     1      86.972  93.263 112.874  1.00  0.00    -0.358 OA
HETATM   21  H   UNL     1      87.057  93.952 112.182  1.00  0.00     0.217 HD
ENDBRANCH  14  20
ENDBRANCH   8  10
ENDBRANCH   7   8
ENDBRANCH   4   7
BRANCH   5  22
HETATM   22  O   UNL     1      78.929  92.312 111.726  1.00  0.00    -0.306 OA
BRANCH  22  23
HETATM   23  C   UNL     1      78.676  91.984 110.407  1.00  0.00     0.294 C 
HETATM   24  O   UNL     1      78.458  90.874 109.935  1.00  0.00    -0.259 OA
BRANCH  23  25
HETATM   25  C   UNL     1      78.707  93.120 109.493  1.00  0.00     0.045 A 
HETATM   26  C   UNL     1      79.169  94.362 109.962  1.00  0.00     0.057 A 
HETATM   27  C   UNL     1      79.176  95.446 109.097  1.00  0.00     0.102 A 
HETATM   28  C   UNL     1      78.701  95.297 107.800  1.00  0.00     0.132 A 
HETATM   29  C   UNL     1      78.143  94.093 107.388  1.00  0.00     0.102 A 
HETATM   30  C   UNL     1      78.125  92.999 108.234  1.00  0.00     0.057 A 
BRANCH  27  31
HETATM   31  O   UNL     1      79.634  96.674 109.480  1.00  0.00    -0.358 OA
HETATM   32  H   UNL     1      79.024  97.037 110.150  1.00  0.00     0.217 HD
ENDBRANCH  27  31
BRANCH  28  33
HETATM   33  O   UNL     1      78.769  96.334 106.911  1.00  0.00    -0.356 OA
HETATM   34  H   UNL     1      79.058  95.912 106.076  1.00  0.00     0.218 HD
ENDBRANCH  28  33
BRANCH  29  35
HETATM   35  O   UNL     1      77.604  93.972 106.144  1.00  0.00    -0.358 OA
HETATM   36  H   UNL     1      77.559  94.886 105.800  1.00  0.00     0.217 HD
ENDBRANCH  29  35
ENDBRANCH  23  25
ENDBRANCH  22  23
ENDBRANCH   5  22
BRANCH   6  37
HETATM   37  O   UNL     1      77.060  91.031 113.826  1.00  0.00    -0.304 OA
BRANCH  37  38
HETATM   38  C   UNL     1      76.042  91.923 113.957  1.00  0.00     0.294 C 
HETATM   39  O   UNL     1      75.513  92.300 114.982  1.00  0.00    -0.259 OA
BRANCH  38  40
HETATM   40  C   UNL     1      75.645  92.335 112.609  1.00  0.00     0.045 A 
HETATM   41  C   UNL     1      75.704  93.700 112.319  1.00  0.00     0.057 A 
HETATM   42  C   UNL     1      75.369  94.135 111.053  1.00  0.00     0.102 A 
HETATM   43  C   UNL     1      74.997  93.223 110.077  1.00  0.00     0.132 A 
HETATM   44  C   UNL     1      74.969  91.858 110.362  1.00  0.00     0.102 A 
HETATM   45  C   UNL     1      75.290  91.397 111.634  1.00  0.00     0.057 A 
BRANCH  42  46
HETATM   46  O   UNL     1      75.434  95.466 110.783  1.00  0.00    -0.358 OA
HETATM   47  H   UNL     1      74.651  95.857 111.217  1.00  0.00     0.217 HD
ENDBRANCH  42  46
BRANCH  43  48
HETATM   48  O   UNL     1      74.687  93.682 108.828  1.00  0.00    -0.356 OA
HETATM   49  H   UNL     1      73.921  93.138 108.555  1.00  0.00     0.218 HD
ENDBRANCH  43  48
BRANCH  44  50
HETATM   50  O   UNL     1      74.642  91.007 109.343  1.00  0.00    -0.358 OA
HETATM   51  H   UNL     1      75.381  90.385 109.217  1.00  0.00     0.217 HD
ENDBRANCH  44  50
ENDBRANCH  38  40
ENDBRANCH  37  38
ENDBRANCH   6  37
ENDBRANCH   2   4
BRANCH   2  52
HETATM   52  C   UNL     1      81.143  90.394 113.844  1.00  0.00     0.216 C 
BRANCH  52  53
HETATM   53  O   UNL     1      81.759  89.610 114.861  1.00  0.00    -0.315 OA
BRANCH  53  54
HETATM   54  C   UNL     1      82.770  88.847 114.422  1.00  0.00     0.293 C 
HETATM   55  O   UNL     1      82.716  88.009 113.544  1.00  0.00    -0.259 OA
BRANCH  54  56
HETATM   56  C   UNL     1      83.934  89.168 115.265  1.00  0.00     0.045 C 
HETATM   57  C   UNL     1      83.907  89.005 116.664  1.00  0.00     0.057 C 
HETATM   58  C   UNL     1      85.050  89.243 117.406  1.00  0.00     0.102 C 
HETATM   59  C   UNL     1      86.249  89.492 116.758  1.00  0.00     0.133 C 
HETATM   60  C   UNL     1      86.275  89.522 115.362  1.00  0.00     0.116 C 
HETATM   61  C   UNL     1      85.107  89.514 114.611  1.00  0.00     0.058 C 
BRANCH  58  62
HETATM   62  O   UNL     1      85.016  89.131 118.766  1.00  0.00    -0.358 OA
HETATM   63  H   UNL     1      85.856  88.679 118.991  1.00  0.00     0.217 HD
ENDBRANCH  58  62
BRANCH  59  64
HETATM   64  O   UNL     1      87.372  89.587 117.528  1.00  0.00    -0.356 OA
HETATM   65  H   UNL     1      87.113  89.976 118.387  1.00  0.00     0.218 HD
ENDBRANCH  59  64
BRANCH  60  66
HETATM   66  O   UNL     1      87.466  89.290 114.672  1.00  0.00    -0.272 OA
BRANCH  66  67
HETATM   67  C   UNL     1      87.555  87.911 114.529  1.00  0.00     0.298 C 
HETATM   68  O   UNL     1      87.625  87.147 115.479  1.00  0.00    -0.259 OA
BRANCH  67  69
HETATM   69  C   UNL     1      87.593  87.448 113.113  1.00  0.00     0.045 A 
HETATM   70  C   UNL     1      87.137  86.157 112.803  1.00  0.00     0.057 A 
HETATM   71  C   UNL     1      87.112  85.741 111.476  1.00  0.00     0.102 A 
HETATM   72  C   UNL     1      87.578  86.577 110.471  1.00  0.00     0.132 A 
HETATM   73  C   UNL     1      88.060  87.846 110.789  1.00  0.00     0.102 A 
HETATM   74  C   UNL     1      88.052  88.306 112.105  1.00  0.00     0.057 A 
BRANCH  71  75
HETATM   75  O   UNL     1      86.628  84.498 111.214  1.00  0.00    -0.358 OA
HETATM   76  H   UNL     1      87.345  83.942 110.840  1.00  0.00     0.217 HD
ENDBRANCH  71  75
BRANCH  72  77
HETATM   77  O   UNL     1      87.576  86.149 109.174  1.00  0.00    -0.356 OA
HETATM   78  H   UNL     1      88.415  86.481 108.793  1.00  0.00     0.218 HD
ENDBRANCH  72  77
BRANCH  73  79
HETATM   79  O   UNL     1      88.546  88.609 109.763  1.00  0.00    -0.358 OA
HETATM   80  H   UNL     1      87.900  88.591 109.033  1.00  0.00     0.217 HD
ENDBRANCH  73  79
ENDBRANCH  67  69
ENDBRANCH  66  67
ENDBRANCH  60  66
ENDBRANCH  54  56
ENDBRANCH  53  54
ENDBRANCH  52  53
ENDBRANCH   2  52
BRANCH   3  81
HETATM   81  O   UNL     1      82.001  92.532 115.701  1.00  0.00    -0.285 OA
BRANCH  81  82
HETATM   82  C   UNL     1      82.562  92.794 116.912  1.00  0.00     0.295 C 
HETATM   83  O   UNL     1      81.893  92.753 117.936  1.00  0.00    -0.259 OA
BRANCH  82  84
HETATM   84  C   UNL     1      84.037  92.983 116.971  1.00  0.00     0.045 A 
HETATM   85  C   UNL     1      84.802  92.538 118.056  1.00  0.00     0.057 A 
HETATM   86  C   UNL     1      86.163  92.839 118.097  1.00  0.00     0.102 A 
HETATM   87  C   UNL     1      86.758  93.591 117.089  1.00  0.00     0.132 A 
HETATM   88  C   UNL     1      86.000  94.049 116.022  1.00  0.00     0.102 A 
HETATM   89  C   UNL     1      84.641  93.753 115.957  1.00  0.00     0.057 A 
BRANCH  86  90
HETATM   90  O   UNL     1      86.927  92.414 119.147  1.00  0.00    -0.358 OA
HETATM   91  H   UNL     1      87.846  92.476 118.808  1.00  0.00     0.217 HD
ENDBRANCH  86  90
BRANCH  87  92
HETATM   92  O   UNL     1      88.092  93.887 117.183  1.00  0.00    -0.356 OA
HETATM   93  H   UNL     1      88.536  93.157 116.702  1.00  0.00     0.218 HD
ENDBRANCH  87  92
BRANCH  88  94
HETATM   94  O   UNL     1      86.629  94.803 115.071  1.00  0.00    -0.358 OA
HETATM   95  H   UNL     1      87.429  94.323 114.786  1.00  0.00     0.217 HD
ENDBRANCH  88  94
ENDBRANCH  82  84
ENDBRANCH  81  82
ENDBRANCH   3  81
TORSDOF 38
ENDMDL
MODEL 4
REMARK VINA RESULT:   -12.055      1.698      8.475
REMARK INTER + INTRA:         -29.051
REMARK INTER:                 -30.645
REMARK INTRA:                   1.594
REMARK UNBOUND:                 2.031
REMARK WARNING: 32 MAX_TORS EXCEEDED!!!
REMARK  38 active torsions:
REMARK  status: ('A' for Active; 'I' for Inactive)
REMARK    1  A    between atoms: O_2  and  C_27 
REMARK    2  A    between atoms: O_2  and  C_33 
REMARK    3  A    between atoms: O_3  and  C_28 
REMARK    4  A    between atoms: O_3  and  C_34 
REMARK    5  A    between atoms: O_4  and  C_29 
REMARK    6  A    between atoms: O_4  and  C_35 
REMARK    7  A    between atoms: O_5  and  C_31 
REMARK    8  A    between atoms: O_5  and  C_36 
REMARK    9  A    between atoms: O_6  and  C_32 
REMARK   10  A    between atoms: O_6  and  C_39 
REMARK   11  A    between atoms: O_12  and  C_51 
REMARK   12  A    between atoms: O_13  and  C_52 
REMARK   13  A    between atoms: O_14  and  C_53 
REMARK   14  A    between atoms: O_15  and  C_54 
REMARK   15  A    between atoms: O_16  and  C_55 
REMARK   16  A    between atoms: O_17  and  C_56 
REMARK   17  A    between atoms: O_18  and  C_59 
REMARK   18  A    between atoms: O_19  and  C_60 
REMARK   19  A    between atoms: O_20  and  C_61 
REMARK   20  A    between atoms: O_21  and  C_62 
REMARK   21  A    between atoms: O_22  and  C_63 
REMARK   22  A    between atoms: O_23  and  C_64 
REMARK   23  A    between atoms: O_24  and  C_65 
REMARK   24  A    between atoms: O_24  and  C_86 
REMARK   25  A    between atoms: O_25  and  C_66 
REMARK   26  A    between atoms: O_26  and  C_67 
REMARK   27  A    between atoms: C_28  and  C_30 
REMARK   28  A    between atoms: C_29  and  C_31 
REMARK   29  A    between atoms: C_30  and  C_32 
REMARK   30  A    between atoms: C_33  and  C_37 
REMARK   31  A    between atoms: C_34  and  C_38 
REMARK   32  A    between atoms: C_35  and  C_40 
REMARK   33  A    between atoms: C_36  and  C_41 
REMARK   34  A    between atoms: C_39  and  C_42 
REMARK   35  A    between atoms: O_83  and  C_90 
REMARK   36  A    between atoms: O_84  and  C_91 
REMARK   37  A    between atoms: O_85  and  C_92 
REMARK   38  A    between atoms: C_86  and  C_87 
ROOT
HETATM    1  O   UNL     1      83.065  93.076 111.664  1.00  0.00    -0.348 OA
HETATM    2  C   UNL     1      82.417  92.798 112.828  1.00  0.00     0.201 A 
HETATM    3  C   UNL     1      81.921  93.787 111.924  1.00  0.00     0.282 A 
ENDROOT
BRANCH   2   4
HETATM    4  C   UNL     1      82.404  93.351 113.440  1.00  0.00     0.199 A 
HETATM    5  C   UNL     1      82.892  92.761 114.823  1.00  0.00     0.198 A 
HETATM    6  C   UNL     1      83.784  93.091 113.703  1.00  0.00     0.215 A 
BRANCH   4   7
HETATM    7  O   UNL     1      80.828  92.824 113.973  1.00  0.00    -0.306 OA
BRANCH   7   8
HETATM    8  C   UNL     1      79.679  93.016 114.600  1.00  0.00     0.294 C 
HETATM    9  O   UNL     1      79.515  93.918 115.415  1.00  0.00    -0.259 OA
BRANCH   8  10
HETATM   10  C   UNL     1      78.527  92.189 114.287  1.00  0.00     0.045 A 
HETATM   11  C   UNL     1      77.301  92.523 114.875  1.00  0.00     0.057 A 
HETATM   12  C   UNL     1      76.134  92.091 114.263  1.00  0.00     0.102 A 
HETATM   13  C   UNL     1      76.195  91.323 113.102  1.00  0.00     0.132 A 
HETATM   14  C   UNL     1      77.421  90.970 112.549  1.00  0.00     0.102 A 
HETATM   15  C   UNL     1      78.597  91.422 113.121  1.00  0.00     0.057 A 
BRANCH  12  16
HETATM   16  O   UNL     1      74.903  92.466 114.725  1.00  0.00    -0.358 OA
HETATM   17  H   UNL     1      74.896  92.333 115.691  1.00  0.00     0.217 HD
ENDBRANCH  12  16
BRANCH  13  18
HETATM   18  O   UNL     1      75.048  90.965 112.446  1.00  0.00    -0.356 OA
HETATM   19  H   UNL     1      74.412  91.673 112.677  1.00  0.00     0.218 HD
ENDBRANCH  13  18
BRANCH  14  20
HETATM   20  O   UNL     1      77.473  90.245 111.393  1.00  0.00    -0.358 OA
HETATM   21  H   UNL     1      77.615  90.922 110.698  1.00  0.00     0.217 HD
ENDBRANCH  14  20
ENDBRANCH   8  10
ENDBRANCH   7   8
ENDBRANCH   4   7
BRANCH   5  22
HETATM   22  O   UNL     1      82.839  93.863 115.899  1.00  0.00    -0.306 OA
BRANCH  22  23
HETATM   23  C   UNL     1      82.361  93.628 117.174  1.00  0.00     0.294 C 
HETATM   24  O   UNL     1      81.951  94.447 117.988  1.00  0.00    -0.259 OA
BRANCH  23  25
HETATM   25  C   UNL     1      82.388  92.225 117.572  1.00  0.00     0.045 A 
HETATM   26  C   UNL     1      83.429  91.769 118.400  1.00  0.00     0.057 A 
HETATM   27  C   UNL     1      83.465  90.430 118.759  1.00  0.00     0.102 A 
HETATM   28  C   UNL     1      82.497  89.560 118.273  1.00  0.00     0.132 A 
HETATM   29  C   UNL     1      81.543  90.003 117.365  1.00  0.00     0.102 A 
HETATM   30  C   UNL     1      81.489  91.334 116.993  1.00  0.00     0.057 A 
BRANCH  27  31
HETATM   31  O   UNL     1      84.432  89.927 119.580  1.00  0.00    -0.358 OA
HETATM   32  H   UNL     1      84.018  89.290 120.192  1.00  0.00     0.217 HD
ENDBRANCH  27  31
BRANCH  28  33
HETATM   33  O   UNL     1      82.472  88.253 118.675  1.00  0.00    -0.356 OA
HETATM   34  H   UNL     1      81.917  87.808 118.002  1.00  0.00     0.218 HD
ENDBRANCH  28  33
BRANCH  29  35
HETATM   35  O   UNL     1      80.645  89.132 116.827  1.00  0.00    -0.358 OA
HETATM   36  H   UNL     1      81.113  88.725 116.071  1.00  0.00     0.217 HD
ENDBRANCH  29  35
ENDBRANCH  23  25
ENDBRANCH  22  23
ENDBRANCH   5  22
BRANCH   6  37
HETATM   37  O   UNL     1      85.345  93.242 114.202  1.00  0.00    -0.304 OA
BRANCH  37  38
HETATM   38  C   UNL     1      86.179  92.221 114.538  1.00  0.00     0.294 C 
HETATM   39  O   UNL     1      86.611  91.347 113.817  1.00  0.00    -0.259 OA
BRANCH  38  40
HETATM   40  C   UNL     1      86.443  92.328 115.975  1.00  0.00     0.045 A 
HETATM   41  C   UNL     1      86.090  93.527 116.598  1.00  0.00     0.057 A 
HETATM   42  C   UNL     1      86.291  93.665 117.956  1.00  0.00     0.102 A 
HETATM   43  C   UNL     1      86.820  92.617 118.694  1.00  0.00     0.132 A 
HETATM   44  C   UNL     1      87.142  91.411 118.074  1.00  0.00     0.102 A 
HETATM   45  C   UNL     1      86.961  91.252 116.704  1.00  0.00     0.057 A 
BRANCH  42  46
HETATM   46  O   UNL     1      85.940  94.837 118.550  1.00  0.00    -0.358 OA
HETATM   47  H   UNL     1      86.778  95.234 118.856  1.00  0.00     0.217 HD
ENDBRANCH  42  46
BRANCH  43  48
HETATM   48  O   UNL     1      86.992  92.778 120.040  1.00  0.00    -0.356 OA
HETATM   49  H   UNL     1      86.712  91.922 120.423  1.00  0.00     0.218 HD
ENDBRANCH  43  48
BRANCH  44  50
HETATM   50  O   UNL     1      87.614  90.400 118.864  1.00  0.00    -0.358 OA
HETATM   51  H   UNL     1      88.468  90.103 118.500  1.00  0.00     0.217 HD
ENDBRANCH  44  50
ENDBRANCH  38  40
ENDBRANCH  37  38
ENDBRANCH   6  37
ENDBRANCH   2   4
BRANCH   2  52
HETATM   52  C   UNL     1      81.780  91.420 113.491  1.00  0.00     0.216 C 
BRANCH  52  53
HETATM   53  O   UNL     1      82.112  90.369 112.589  1.00  0.00    -0.315 OA
BRANCH  53  54
HETATM   54  C   UNL     1      82.755  89.343 113.164  1.00  0.00     0.293 C 
HETATM   55  O   UNL     1      82.465  88.805 114.215  1.00  0.00    -0.259 OA
BRANCH  54  56
HETATM   56  C   UNL     1      83.924  89.051 112.316  1.00  0.00     0.045 C 
HETATM   57  C   UNL     1      84.535  90.043 111.525  1.00  0.00     0.057 C 
HETATM   58  C   UNL     1      85.678  89.741 110.807  1.00  0.00     0.102 C 
HETATM   59  C   UNL     1      86.298  88.517 110.987  1.00  0.00     0.133 C 
HETATM   60  C   UNL     1      85.741  87.595 111.877  1.00  0.00     0.116 C 
HETATM   61  C   UNL     1      84.481  87.786 112.429  1.00  0.00     0.058 C 
BRANCH  58  62
HETATM   62  O   UNL     1      86.247  90.687 110.003  1.00  0.00    -0.358 OA
HETATM   63  H   UNL     1      85.972  90.431 109.098  1.00  0.00     0.217 HD
ENDBRANCH  58  62
BRANCH  59  64
HETATM   64  O   UNL     1      87.494  88.318 110.359  1.00  0.00    -0.356 OA
HETATM   65  H   UNL     1      87.351  87.668 109.644  1.00  0.00     0.218 HD
ENDBRANCH  59  64
BRANCH  60  66
HETATM   66  O   UNL     1      86.530  86.597 112.447  1.00  0.00    -0.272 OA
BRANCH  66  67
HETATM   67  C   UNL     1      87.045  87.146 113.615  1.00  0.00     0.298 C 
HETATM   68  O   UNL     1      87.729  88.158 113.629  1.00  0.00    -0.259 OA
BRANCH  67  69
HETATM   69  C   UNL     1      86.719  86.373 114.846  1.00  0.00     0.045 A 
HETATM   70  C   UNL     1      85.876  86.948 115.811  1.00  0.00     0.057 A 
HETATM   71  C   UNL     1      85.518  86.208 116.933  1.00  0.00     0.102 A 
HETATM   72  C   UNL     1      86.026  84.930 117.121  1.00  0.00     0.132 A 
HETATM   73  C   UNL     1      86.888  84.378 116.175  1.00  0.00     0.102 A 
HETATM   74  C   UNL     1      87.225  85.079 115.019  1.00  0.00     0.057 A 
BRANCH  71  75
HETATM   75  O   UNL     1      84.671  86.786 117.826  1.00  0.00    -0.358 OA
HETATM   76  H   UNL     1      84.552  86.190 118.595  1.00  0.00     0.217 HD
ENDBRANCH  71  75
BRANCH  72  77
HETATM   77  O   UNL     1      85.691  84.222 118.240  1.00  0.00    -0.356 OA
HETATM   78  H   UNL     1      86.485  84.254 118.812  1.00  0.00     0.218 HD
ENDBRANCH  72  77
BRANCH  73  79
HETATM   79  O   UNL     1      87.392  83.133 116.435  1.00  0.00    -0.358 OA
HETATM   80  H   UNL     1      87.791  82.785 115.616  1.00  0.00     0.217 HD
ENDBRANCH  73  79
ENDBRANCH  67  69
ENDBRANCH  66  67
ENDBRANCH  60  66
ENDBRANCH  54  56
ENDBRANCH  53  54
ENDBRANCH  52  53
ENDBRANCH   2  52
BRANCH   3  81
HETATM   81  O   UNL     1      80.528  93.219 111.503  1.00  0.00    -0.285 OA
BRANCH  81  82
HETATM   82  C   UNL     1      79.523  94.047 111.111  1.00  0.00     0.295 C 
HETATM   83  O   UNL     1      79.073  94.894 111.872  1.00  0.00    -0.259 OA
BRANCH  82  84
HETATM   84  C   UNL     1      79.091  93.993 109.688  1.00  0.00     0.045 A 
HETATM   85  C   UNL     1      79.142  95.115 108.851  1.00  0.00     0.057 A 
HETATM   86  C   UNL     1      78.626  95.024 107.560  1.00  0.00     0.102 A 
HETATM   87  C   UNL     1      78.044  93.845 107.106  1.00  0.00     0.132 A 
HETATM   88  C   UNL     1      77.976  92.737 107.937  1.00  0.00     0.102 A 
HETATM   89  C   UNL     1      78.492  92.804 109.228  1.00  0.00     0.057 A 
BRANCH  86  90
HETATM   90  O   UNL     1      78.666  96.108 106.727  1.00  0.00    -0.358 OA
HETATM   91  H   UNL     1      77.721  96.298 106.545  1.00  0.00     0.217 HD
ENDBRANCH  86  90
BRANCH  87  92
HETATM   92  O   UNL     1      77.525  93.808 105.839  1.00  0.00    -0.356 OA
HETATM   93  H   UNL     1      76.679  94.299 105.909  1.00  0.00     0.218 HD
ENDBRANCH  87  92
BRANCH  88  94
HETATM   94  O   UNL     1      77.373  91.611 107.449  1.00  0.00    -0.358 OA
HETATM   95  H   UNL     1      77.985  90.862 107.578  1.00  0.00     0.217 HD
ENDBRANCH  88  94
ENDBRANCH  82  84
ENDBRANCH  81  82
ENDBRANCH   3  81
TORSDOF 38
ENDMDL
MODEL 5
REMARK VINA RESULT:   -12.003      1.866      8.740
REMARK INTER + INTRA:         -28.917
REMARK INTER:                 -29.934
REMARK INTRA:                   1.017
REMARK UNBOUND:                 2.031
REMARK WARNING: 32 MAX_TORS EXCEEDED!!!
REMARK  38 active torsions:
REMARK  status: ('A' for Active; 'I' for Inactive)
REMARK    1  A    between atoms: O_2  and  C_27 
REMARK    2  A    between atoms: O_2  and  C_33 
REMARK    3  A    between atoms: O_3  and  C_28 
REMARK    4  A    between atoms: O_3  and  C_34 
REMARK    5  A    between atoms: O_4  and  C_29 
REMARK    6  A    between atoms: O_4  and  C_35 
REMARK    7  A    between atoms: O_5  and  C_31 
REMARK    8  A    between atoms: O_5  and  C_36 
REMARK    9  A    between atoms: O_6  and  C_32 
REMARK   10  A    between atoms: O_6  and  C_39 
REMARK   11  A    between atoms: O_12  and  C_51 
REMARK   12  A    between atoms: O_13  and  C_52 
REMARK   13  A    between atoms: O_14  and  C_53 
REMARK   14  A    between atoms: O_15  and  C_54 
REMARK   15  A    between atoms: O_16  and  C_55 
REMARK   16  A    between atoms: O_17  and  C_56 
REMARK   17  A    between atoms: O_18  and  C_59 
REMARK   18  A    between atoms: O_19  and  C_60 
REMARK   19  A    between atoms: O_20  and  C_61 
REMARK   20  A    between atoms: O_21  and  C_62 
REMARK   21  A    between atoms: O_22  and  C_63 
REMARK   22  A    between atoms: O_23  and  C_64 
REMARK   23  A    between atoms: O_24  and  C_65 
REMARK   24  A    between atoms: O_24  and  C_86 
REMARK   25  A    between atoms: O_25  and  C_66 
REMARK   26  A    between atoms: O_26  and  C_67 
REMARK   27  A    between atoms: C_28  and  C_30 
REMARK   28  A    between atoms: C_29  and  C_31 
REMARK   29  A    between atoms: C_30  and  C_32 
REMARK   30  A    between atoms: C_33  and  C_37 
REMARK   31  A    between atoms: C_34  and  C_38 
REMARK   32  A    between atoms: C_35  and  C_40 
REMARK   33  A    between atoms: C_36  and  C_41 
REMARK   34  A    between atoms: C_39  and  C_42 
REMARK   35  A    between atoms: O_83  and  C_90 
REMARK   36  A    between atoms: O_84  and  C_91 
REMARK   37  A    between atoms: O_85  and  C_92 
REMARK   38  A    between atoms: C_86  and  C_87 
ROOT
HETATM    1  O   UNL     1      83.289  93.280 111.695  1.00  0.00    -0.348 OA
HETATM    2  C   UNL     1      82.448  93.059 112.742  1.00  0.00     0.201 A 
HETATM    3  C   UNL     1      82.175  94.077 111.778  1.00  0.00     0.282 A 
ENDROOT
BRANCH   2   4
HETATM    4  C   UNL     1      82.381  93.614 113.347  1.00  0.00     0.199 A 
HETATM    5  C   UNL     1      82.689  93.017 114.778  1.00  0.00     0.198 A 
HETATM    6  C   UNL     1      83.714  93.317 113.768  1.00  0.00     0.215 A 
BRANCH   4   7
HETATM    7  O   UNL     1      80.739  93.135 113.697  1.00  0.00    -0.306 OA
BRANCH   7   8
HETATM    8  C   UNL     1      79.568  93.311 114.285  1.00  0.00     0.294 C 
HETATM    9  O   UNL     1      79.454  93.861 115.376  1.00  0.00    -0.259 OA
BRANCH   8  10
HETATM   10  C   UNL     1      78.344  92.912 113.615  1.00  0.00     0.045 A 
HETATM   11  C   UNL     1      78.437  91.967 112.586  1.00  0.00     0.057 A 
HETATM   12  C   UNL     1      77.309  91.227 112.262  1.00  0.00     0.102 A 
HETATM   13  C   UNL     1      76.111  91.446 112.937  1.00  0.00     0.132 A 
HETATM   14  C   UNL     1      76.024  92.412 113.934  1.00  0.00     0.102 A 
HETATM   15  C   UNL     1      77.146  93.135 114.299  1.00  0.00     0.057 A 
BRANCH  12  16
HETATM   16  O   UNL     1      77.356  90.219 111.340  1.00  0.00    -0.358 OA
HETATM   17  H   UNL     1      76.439  90.005 111.086  1.00  0.00     0.217 HD
ENDBRANCH  12  16
BRANCH  13  18
HETATM   18  O   UNL     1      75.018  90.662 112.683  1.00  0.00    -0.356 OA
HETATM   19  H   UNL     1      74.731  90.359 113.569  1.00  0.00     0.218 HD
ENDBRANCH  13  18
BRANCH  14  20
HETATM   20  O   UNL     1      74.855  92.599 114.614  1.00  0.00    -0.358 OA
HETATM   21  H   UNL     1      75.138  92.676 115.550  1.00  0.00     0.217 HD
ENDBRANCH  14  20
ENDBRANCH   8  10
ENDBRANCH   7   8
ENDBRANCH   4   7
BRANCH   5  22
HETATM   22  O   UNL     1      82.545  94.125 115.839  1.00  0.00    -0.306 OA
BRANCH  22  23
HETATM   23  C   UNL     1      82.443  93.846 117.190  1.00  0.00     0.294 C 
HETATM   24  O   UNL     1      82.326  94.638 118.117  1.00  0.00    -0.259 OA
BRANCH  23  25
HETATM   25  C   UNL     1      82.514  92.425 117.512  1.00  0.00     0.045 A 
HETATM   26  C   UNL     1      81.531  91.559 117.002  1.00  0.00     0.057 A 
HETATM   27  C   UNL     1      81.587  90.212 117.328  1.00  0.00     0.102 A 
HETATM   28  C   UNL     1      82.588  89.748 118.172  1.00  0.00     0.132 A 
HETATM   29  C   UNL     1      83.483  90.635 118.758  1.00  0.00     0.102 A 
HETATM   30  C   UNL     1      83.445  91.983 118.447  1.00  0.00     0.057 A 
BRANCH  27  31
HETATM   31  O   UNL     1      80.679  89.313 116.847  1.00  0.00    -0.358 OA
HETATM   32  H   UNL     1      79.931  89.265 117.472  1.00  0.00     0.217 HD
ENDBRANCH  27  31
BRANCH  28  33
HETATM   33  O   UNL     1      82.705  88.413 118.444  1.00  0.00    -0.356 OA
HETATM   34  H   UNL     1      81.854  88.183 118.872  1.00  0.00     0.218 HD
ENDBRANCH  28  33
BRANCH  29  35
HETATM   35  O   UNL     1      84.413  90.191 119.648  1.00  0.00    -0.358 OA
HETATM   36  H   UNL     1      83.997  89.420 120.081  1.00  0.00     0.217 HD
ENDBRANCH  29  35
ENDBRANCH  23  25
ENDBRANCH  22  23
ENDBRANCH   5  22
BRANCH   6  37
HETATM   37  O   UNL     1      85.210  93.425 114.443  1.00  0.00    -0.304 OA
BRANCH  37  38
HETATM   38  C   UNL     1      86.278  92.635 114.150  1.00  0.00     0.294 C 
HETATM   39  O   UNL     1      86.725  92.367 113.054  1.00  0.00    -0.259 OA
BRANCH  38  40
HETATM   40  C   UNL     1      86.791  92.104 115.416  1.00  0.00     0.045 A 
HETATM   41  C   UNL     1      86.226  90.915 115.880  1.00  0.00     0.057 A 
HETATM   42  C   UNL     1      86.696  90.359 117.052  1.00  0.00     0.102 A 
HETATM   43  C   UNL     1      87.730  90.968 117.748  1.00  0.00     0.132 A 
HETATM   44  C   UNL     1      88.311  92.139 117.265  1.00  0.00     0.102 A 
HETATM   45  C   UNL     1      87.846  92.725 116.092  1.00  0.00     0.057 A 
BRANCH  42  46
HETATM   46  O   UNL     1      86.140  89.198 117.491  1.00  0.00    -0.358 OA
HETATM   47  H   UNL     1      86.477  88.506 116.890  1.00  0.00     0.217 HD
ENDBRANCH  42  46
BRANCH  43  48
HETATM   48  O   UNL     1      88.185  90.384 118.897  1.00  0.00    -0.356 OA
HETATM   49  H   UNL     1      88.527  89.515 118.607  1.00  0.00     0.218 HD
ENDBRANCH  43  48
BRANCH  44  50
HETATM   50  O   UNL     1      89.358  92.663 117.971  1.00  0.00    -0.358 OA
HETATM   51  H   UNL     1      89.154  92.582 118.921  1.00  0.00     0.217 HD
ENDBRANCH  44  50
ENDBRANCH  38  40
ENDBRANCH  37  38
ENDBRANCH   6  37
ENDBRANCH   2   4
BRANCH   2  52
HETATM   52  C   UNL     1      81.614  91.736 113.289  1.00  0.00     0.216 C 
BRANCH  52  53
HETATM   53  O   UNL     1      82.057  90.643 112.489  1.00  0.00    -0.315 OA
BRANCH  53  54
HETATM   54  C   UNL     1      82.630  89.655 113.191  1.00  0.00     0.293 C 
HETATM   55  O   UNL     1      82.178  89.115 114.182  1.00  0.00    -0.259 OA
BRANCH  54  56
HETATM   56  C   UNL     1      83.945  89.411 112.574  1.00  0.00     0.045 C 
HETATM   57  C   UNL     1      84.399  90.156 111.469  1.00  0.00     0.057 C 
HETATM   58  C   UNL     1      85.673  89.945 110.974  1.00  0.00     0.102 C 
HETATM   59  C   UNL     1      86.545  89.115 111.658  1.00  0.00     0.133 C 
HETATM   60  C   UNL     1      86.112  88.485 112.827  1.00  0.00     0.116 C 
HETATM   61  C   UNL     1      84.777  88.501 113.211  1.00  0.00     0.058 C 
BRANCH  58  62
HETATM   62  O   UNL     1      86.100  90.632 109.875  1.00  0.00    -0.358 OA
HETATM   63  H   UNL     1      85.652  90.189 109.125  1.00  0.00     0.217 HD
ENDBRANCH  58  62
BRANCH  59  64
HETATM   64  O   UNL     1      87.832  89.045 111.206  1.00  0.00    -0.356 OA
HETATM   65  H   UNL     1      88.110  89.947 110.957  1.00  0.00     0.218 HD
ENDBRANCH  59  64
BRANCH  60  66
HETATM   66  O   UNL     1      87.033  88.052 113.781  1.00  0.00    -0.272 OA
BRANCH  66  67
HETATM   67  C   UNL     1      87.051  86.666 113.683  1.00  0.00     0.298 C 
HETATM   68  O   UNL     1      87.244  86.076 112.632  1.00  0.00    -0.259 OA
BRANCH  67  69
HETATM   69  C   UNL     1      86.780  85.962 114.969  1.00  0.00     0.045 A 
HETATM   70  C   UNL     1      85.924  86.559 115.908  1.00  0.00     0.057 A 
HETATM   71  C   UNL     1      85.619  85.879 117.082  1.00  0.00     0.102 A 
HETATM   72  C   UNL     1      86.191  84.642 117.345  1.00  0.00     0.132 A 
HETATM   73  C   UNL     1      87.065  84.070 116.423  1.00  0.00     0.102 A 
HETATM   74  C   UNL     1      87.352  84.708 115.217  1.00  0.00     0.057 A 
BRANCH  71  75
HETATM   75  O   UNL     1      84.756  86.474 117.949  1.00  0.00    -0.358 OA
HETATM   76  H   UNL     1      85.178  87.273 118.331  1.00  0.00     0.217 HD
ENDBRANCH  71  75
BRANCH  72  77
HETATM   77  O   UNL     1      85.906  83.995 118.514  1.00  0.00    -0.356 OA
HETATM   78  H   UNL     1      85.128  83.435 118.315  1.00  0.00     0.218 HD
ENDBRANCH  72  77
BRANCH  73  79
HETATM   79  O   UNL     1      87.633  82.871 116.755  1.00  0.00    -0.358 OA
HETATM   80  H   UNL     1      88.134  82.986 117.583  1.00  0.00     0.217 HD
ENDBRANCH  73  79
ENDBRANCH  67  69
ENDBRANCH  66  67
ENDBRANCH  60  66
ENDBRANCH  54  56
ENDBRANCH  53  54
ENDBRANCH  52  53
ENDBRANCH   2  52
BRANCH   3  81
HETATM   81  O   UNL     1      80.826  93.612 111.140  1.00  0.00    -0.285 OA
BRANCH  81  82
HETATM   82  C   UNL     1      80.182  94.383 110.223  1.00  0.00     0.295 C 
HETATM   83  O   UNL     1      80.723  95.369 109.741  1.00  0.00    -0.259 OA
BRANCH  82  84
HETATM   84  C   UNL     1      78.867  93.908 109.715  1.00  0.00     0.045 A 
HETATM   85  C   UNL     1      78.753  92.804 108.859  1.00  0.00     0.057 A 
HETATM   86  C   UNL     1      77.504  92.475 108.337  1.00  0.00     0.102 A 
HETATM   87  C   UNL     1      76.381  93.240 108.636  1.00  0.00     0.132 A 
HETATM   88  C   UNL     1      76.492  94.343 109.468  1.00  0.00     0.102 A 
HETATM   89  C   UNL     1      77.729  94.685 110.008  1.00  0.00     0.057 A 
BRANCH  86  90
HETATM   90  O   UNL     1      77.371  91.402 107.500  1.00  0.00    -0.358 OA
HETATM   91  H   UNL     1      78.091  91.526 106.845  1.00  0.00     0.217 HD
ENDBRANCH  86  90
BRANCH  87  92
HETATM   92  O   UNL     1      75.178  92.896 108.079  1.00  0.00    -0.356 OA
HETATM   93  H   UNL     1      74.630  93.705 108.170  1.00  0.00     0.218 HD
ENDBRANCH  87  92
BRANCH  88  94
HETATM   94  O   UNL     1      75.363  95.074 109.712  1.00  0.00    -0.358 OA
HETATM   95  H   UNL     1      74.808  95.048 108.910  1.00  0.00     0.217 HD
ENDBRANCH  88  94
ENDBRANCH  82  84
ENDBRANCH  81  82
ENDBRANCH   3  81
TORSDOF 38
ENDMDL
MODEL 6
REMARK VINA RESULT:   -11.978      2.135      8.877
REMARK INTER + INTRA:         -28.854
REMARK INTER:                 -30.179
REMARK INTRA:                   1.325
REMARK UNBOUND:                 2.031
REMARK WARNING: 32 MAX_TORS EXCEEDED!!!
REMARK  38 active torsions:
REMARK  status: ('A' for Active; 'I' for Inactive)
REMARK    1  A    between atoms: O_2  and  C_27 
REMARK    2  A    between atoms: O_2  and  C_33 
REMARK    3  A    between atoms: O_3  and  C_28 
REMARK    4  A    between atoms: O_3  and  C_34 
REMARK    5  A    between atoms: O_4  and  C_29 
REMARK    6  A    between atoms: O_4  and  C_35 
REMARK    7  A    between atoms: O_5  and  C_31 
REMARK    8  A    between atoms: O_5  and  C_36 
REMARK    9  A    between atoms: O_6  and  C_32 
REMARK   10  A    between atoms: O_6  and  C_39 
REMARK   11  A    between atoms: O_12  and  C_51 
REMARK   12  A    between atoms: O_13  and  C_52 
REMARK   13  A    between atoms: O_14  and  C_53 
REMARK   14  A    between atoms: O_15  and  C_54 
REMARK   15  A    between atoms: O_16  and  C_55 
REMARK   16  A    between atoms: O_17  and  C_56 
REMARK   17  A    between atoms: O_18  and  C_59 
REMARK   18  A    between atoms: O_19  and  C_60 
REMARK   19  A    between atoms: O_20  and  C_61 
REMARK   20  A    between atoms: O_21  and  C_62 
REMARK   21  A    between atoms: O_22  and  C_63 
REMARK   22  A    between atoms: O_23  and  C_64 
REMARK   23  A    between atoms: O_24  and  C_65 
REMARK   24  A    between atoms: O_24  and  C_86 
REMARK   25  A    between atoms: O_25  and  C_66 
REMARK   26  A    between atoms: O_26  and  C_67 
REMARK   27  A    between atoms: C_28  and  C_30 
REMARK   28  A    between atoms: C_29  and  C_31 
REMARK   29  A    between atoms: C_30  and  C_32 
REMARK   30  A    between atoms: C_33  and  C_37 
REMARK   31  A    between atoms: C_34  and  C_38 
REMARK   32  A    between atoms: C_35  and  C_40 
REMARK   33  A    between atoms: C_36  and  C_41 
REMARK   34  A    between atoms: C_39  and  C_42 
REMARK   35  A    between atoms: O_83  and  C_90 
REMARK   36  A    between atoms: O_84  and  C_91 
REMARK   37  A    between atoms: O_85  and  C_92 
REMARK   38  A    between atoms: C_86  and  C_87 
ROOT
HETATM    1  O   UNL     1      80.249  89.689 114.286  1.00  0.00    -0.348 OA
HETATM    2  C   UNL     1      81.102  90.750 114.255  1.00  0.00     0.201 A 
HETATM    3  C   UNL     1      81.578  89.426 114.501  1.00  0.00     0.282 A 
ENDROOT
BRANCH   2   4
HETATM    4  C   UNL     1      81.468  91.010 114.946  1.00  0.00     0.199 A 
HETATM    5  C   UNL     1      81.521  92.585 115.068  1.00  0.00     0.198 A 
HETATM    6  C   UNL     1      80.308  91.780 115.270  1.00  0.00     0.215 A 
BRANCH   4   7
HETATM    7  O   UNL     1      83.006  91.198 114.142  1.00  0.00    -0.306 OA
BRANCH   7   8
HETATM    8  C   UNL     1      84.288  91.520 114.127  1.00  0.00     0.294 C 
HETATM    9  O   UNL     1      84.719  92.487 113.508  1.00  0.00    -0.259 OA
BRANCH   8  10
HETATM   10  C   UNL     1      85.242  90.762 114.917  1.00  0.00     0.045 A 
HETATM   11  C   UNL     1      86.602  91.055 114.760  1.00  0.00     0.057 A 
HETATM   12  C   UNL     1      87.473  90.724 115.789  1.00  0.00     0.102 A 
HETATM   13  C   UNL     1      86.996  90.094 116.936  1.00  0.00     0.132 A 
HETATM   14  C   UNL     1      85.647  89.779 117.062  1.00  0.00     0.102 A 
HETATM   15  C   UNL     1      84.754  90.134 116.066  1.00  0.00     0.057 A 
BRANCH  12  16
HETATM   16  O   UNL     1      88.795  91.072 115.745  1.00  0.00    -0.358 OA
HETATM   17  H   UNL     1      89.159  90.751 114.899  1.00  0.00     0.217 HD
ENDBRANCH  12  16
BRANCH  13  18
HETATM   18  O   UNL     1      87.833  89.842 117.989  1.00  0.00    -0.356 OA
HETATM   19  H   UNL     1      88.347  90.670 118.087  1.00  0.00     0.218 HD
ENDBRANCH  13  18
BRANCH  14  20
HETATM   20  O   UNL     1      85.180  89.192 118.203  1.00  0.00    -0.358 OA
HETATM   21  H   UNL     1      84.281  88.886 117.958  1.00  0.00     0.217 HD
ENDBRANCH  14  20
ENDBRANCH   8  10
ENDBRANCH   7   8
ENDBRANCH   4   7
BRANCH   5  22
HETATM   22  O   UNL     1      82.214  92.975 116.388  1.00  0.00    -0.306 OA
BRANCH  22  23
HETATM   23  C   UNL     1      83.198  93.945 116.447  1.00  0.00     0.294 C 
HETATM   24  O   UNL     1      83.214  95.038 115.895  1.00  0.00    -0.259 OA
BRANCH  23  25
HETATM   25  C   UNL     1      84.354  93.572 117.256  1.00  0.00     0.045 A 
HETATM   26  C   UNL     1      84.146  93.029 118.536  1.00  0.00     0.057 A 
HETATM   27  C   UNL     1      85.247  92.697 119.311  1.00  0.00     0.102 A 
HETATM   28  C   UNL     1      86.528  92.932 118.828  1.00  0.00     0.132 A 
HETATM   29  C   UNL     1      86.714  93.574 117.610  1.00  0.00     0.102 A 
HETATM   30  C   UNL     1      85.630  93.915 116.819  1.00  0.00     0.057 A 
BRANCH  27  31
HETATM   31  O   UNL     1      85.116  92.143 120.552  1.00  0.00    -0.358 OA
HETATM   32  H   UNL     1      85.997  91.851 120.855  1.00  0.00     0.217 HD
ENDBRANCH  27  31
BRANCH  28  33
HETATM   33  O   UNL     1      87.624  92.543 119.546  1.00  0.00    -0.356 OA
HETATM   34  H   UNL     1      87.270  91.893 120.186  1.00  0.00     0.218 HD
ENDBRANCH  28  33
BRANCH  29  35
HETATM   35  O   UNL     1      87.968  93.878 117.174  1.00  0.00    -0.358 OA
HETATM   36  H   UNL     1      88.433  94.215 117.964  1.00  0.00     0.217 HD
ENDBRANCH  29  35
ENDBRANCH  23  25
ENDBRANCH  22  23
ENDBRANCH   5  22
BRANCH   6  37
HETATM   37  O   UNL     1      79.159  92.620 116.095  1.00  0.00    -0.304 OA
BRANCH  37  38
HETATM   38  C   UNL     1      78.316  93.549 115.569  1.00  0.00     0.294 C 
HETATM   39  O   UNL     1      78.303  94.743 115.781  1.00  0.00    -0.259 OA
BRANCH  38  40
HETATM   40  C   UNL     1      77.364  92.840 114.711  1.00  0.00     0.045 A 
HETATM   41  C   UNL     1      76.024  93.224 114.796  1.00  0.00     0.057 A 
HETATM   42  C   UNL     1      75.094  92.607 113.985  1.00  0.00     0.102 A 
HETATM   43  C   UNL     1      75.491  91.630 113.084  1.00  0.00     0.132 A 
HETATM   44  C   UNL     1      76.834  91.271 112.981  1.00  0.00     0.102 A 
HETATM   45  C   UNL     1      77.788  91.870 113.796  1.00  0.00     0.057 A 
BRANCH  42  46
HETATM   46  O   UNL     1      73.793  92.993 114.076  1.00  0.00    -0.358 OA
HETATM   47  H   UNL     1      73.325  92.234 114.475  1.00  0.00     0.217 HD
ENDBRANCH  42  46
BRANCH  43  48
HETATM   48  O   UNL     1      74.549  91.049 112.283  1.00  0.00    -0.356 OA
HETATM   49  H   UNL     1      73.696  91.310 112.686  1.00  0.00     0.218 HD
ENDBRANCH  43  48
BRANCH  44  50
HETATM   50  O   UNL     1      77.168  90.338 112.040  1.00  0.00    -0.358 OA
HETATM   51  H   UNL     1      76.417  89.725 111.940  1.00  0.00     0.217 HD
ENDBRANCH  44  50
ENDBRANCH  38  40
ENDBRANCH  37  38
ENDBRANCH   6  37
ENDBRANCH   2   4
BRANCH   2  52
HETATM   52  C   UNL     1      81.455  91.911 113.127  1.00  0.00     0.216 C 
BRANCH  52  53
HETATM   53  O   UNL     1      80.897  91.442 111.903  1.00  0.00    -0.315 OA
BRANCH  53  54
HETATM   54  C   UNL     1      81.600  91.792 110.817  1.00  0.00     0.293 C 
HETATM   55  O   UNL     1      82.338  91.075 110.170  1.00  0.00    -0.259 OA
BRANCH  54  56
HETATM   56  C   UNL     1      81.366  93.232 110.612  1.00  0.00     0.045 C 
HETATM   57  C   UNL     1      82.372  94.190 110.843  1.00  0.00     0.057 C 
HETATM   58  C   UNL     1      82.130  95.522 110.561  1.00  0.00     0.102 C 
HETATM   59  C   UNL     1      80.961  95.885 109.915  1.00  0.00     0.133 C 
HETATM   60  C   UNL     1      80.032  94.897 109.580  1.00  0.00     0.116 C 
HETATM   61  C   UNL     1      80.149  93.597 110.055  1.00  0.00     0.058 C 
BRANCH  58  62
HETATM   62  O   UNL     1      83.086  96.460 110.826  1.00  0.00    -0.358 OA
HETATM   63  H   UNL     1      82.935  97.155 110.152  1.00  0.00     0.217 HD
ENDBRANCH  58  62
BRANCH  59  64
HETATM   64  O   UNL     1      80.829  97.191 109.539  1.00  0.00    -0.356 OA
HETATM   65  H   UNL     1      79.887  97.347 109.331  1.00  0.00     0.218 HD
ENDBRANCH  59  64
BRANCH  60  66
HETATM   66  O   UNL     1      79.114  95.108 108.552  1.00  0.00    -0.272 OA
BRANCH  66  67
HETATM   67  C   UNL     1      77.866  94.843 109.102  1.00  0.00     0.298 C 
HETATM   68  O   UNL     1      77.382  95.509 110.004  1.00  0.00    -0.259 OA
BRANCH  67  69
HETATM   69  C   UNL     1      77.184  93.653 108.519  1.00  0.00     0.045 A 
HETATM   70  C   UNL     1      76.699  92.653 109.378  1.00  0.00     0.057 A 
HETATM   71  C   UNL     1      76.008  91.571 108.843  1.00  0.00     0.102 A 
HETATM   72  C   UNL     1      75.838  91.456 107.471  1.00  0.00     0.132 A 
HETATM   73  C   UNL     1      76.351  92.435 106.622  1.00  0.00     0.102 A 
HETATM   74  C   UNL     1      77.006  93.554 107.133  1.00  0.00     0.057 A 
BRANCH  71  75
HETATM   75  O   UNL     1      75.522  90.643 109.711  1.00  0.00    -0.358 OA
HETATM   76  H   UNL     1      74.545  90.719 109.756  1.00  0.00     0.217 HD
ENDBRANCH  71  75
BRANCH  72  77
HETATM   77  O   UNL     1      75.182  90.375 106.954  1.00  0.00    -0.356 OA
HETATM   78  H   UNL     1      74.552  90.099 107.652  1.00  0.00     0.218 HD
ENDBRANCH  72  77
BRANCH  73  79
HETATM   79  O   UNL     1      76.192  92.247 105.277  1.00  0.00    -0.358 OA
HETATM   80  H   UNL     1      76.123  93.121 104.849  1.00  0.00     0.217 HD
ENDBRANCH  73  79
ENDBRANCH  67  69
ENDBRANCH  66  67
ENDBRANCH  60  66
ENDBRANCH  54  56
ENDBRANCH  53  54
ENDBRANCH  52  53
ENDBRANCH   2  52
BRANCH   3  81
HETATM   81  O   UNL     1      82.534  89.160 113.294  1.00  0.00    -0.285 OA
BRANCH  81  82
HETATM   82  C   UNL     1      83.313  88.046 113.249  1.00  0.00     0.295 C 
HETATM   83  O   UNL     1      82.990  87.029 113.847  1.00  0.00    -0.259 OA
BRANCH  82  84
HETATM   84  C   UNL     1      84.488  88.054 112.336  1.00  0.00     0.045 A 
HETATM   85  C   UNL     1      84.867  89.197 111.620  1.00  0.00     0.057 A 
HETATM   86  C   UNL     1      85.913  89.110 110.703  1.00  0.00     0.102 A 
HETATM   87  C   UNL     1      86.564  87.901 110.477  1.00  0.00     0.132 A 
HETATM   88  C   UNL     1      86.180  86.763 111.171  1.00  0.00     0.102 A 
HETATM   89  C   UNL     1      85.144  86.830 112.097  1.00  0.00     0.057 A 
BRANCH  86  90
HETATM   90  O   UNL     1      86.298  90.213 109.994  1.00  0.00    -0.358 OA
HETATM   91  H   UNL     1      87.271  90.112 109.914  1.00  0.00     0.217 HD
ENDBRANCH  86  90
BRANCH  87  92
HETATM   92  O   UNL     1      87.568  87.854 109.547  1.00  0.00    -0.356 OA
HETATM   93  H   UNL     1      87.709  86.896 109.391  1.00  0.00     0.218 HD
ENDBRANCH  87  92
BRANCH  88  94
HETATM   94  O   UNL     1      86.838  85.596 110.894  1.00  0.00    -0.358 OA
HETATM   95  H   UNL     1      87.560  85.496 111.543  1.00  0.00     0.217 HD
ENDBRANCH  88  94
ENDBRANCH  82  84
ENDBRANCH  81  82
ENDBRANCH   3  81
TORSDOF 38
ENDMDL
MODEL 7
REMARK VINA RESULT:   -11.965      1.976     10.206
REMARK INTER + INTRA:         -28.819
REMARK INTER:                 -30.228
REMARK INTRA:                   1.409
REMARK UNBOUND:                 2.031
REMARK WARNING: 32 MAX_TORS EXCEEDED!!!
REMARK  38 active torsions:
REMARK  status: ('A' for Active; 'I' for Inactive)
REMARK    1  A    between atoms: O_2  and  C_27 
REMARK    2  A    between atoms: O_2  and  C_33 
REMARK    3  A    between atoms: O_3  and  C_28 
REMARK    4  A    between atoms: O_3  and  C_34 
REMARK    5  A    between atoms: O_4  and  C_29 
REMARK    6  A    between atoms: O_4  and  C_35 
REMARK    7  A    between atoms: O_5  and  C_31 
REMARK    8  A    between atoms: O_5  and  C_36 
REMARK    9  A    between atoms: O_6  and  C_32 
REMARK   10  A    between atoms: O_6  and  C_39 
REMARK   11  A    between atoms: O_12  and  C_51 
REMARK   12  A    between atoms: O_13  and  C_52 
REMARK   13  A    between atoms: O_14  and  C_53 
REMARK   14  A    between atoms: O_15  and  C_54 
REMARK   15  A    between atoms: O_16  and  C_55 
REMARK   16  A    between atoms: O_17  and  C_56 
REMARK   17  A    between atoms: O_18  and  C_59 
REMARK   18  A    between atoms: O_19  and  C_60 
REMARK   19  A    between atoms: O_20  and  C_61 
REMARK   20  A    between atoms: O_21  and  C_62 
REMARK   21  A    between atoms: O_22  and  C_63 
REMARK   22  A    between atoms: O_23  and  C_64 
REMARK   23  A    between atoms: O_24  and  C_65 
REMARK   24  A    between atoms: O_24  and  C_86 
REMARK   25  A    between atoms: O_25  and  C_66 
REMARK   26  A    between atoms: O_26  and  C_67 
REMARK   27  A    between atoms: C_28  and  C_30 
REMARK   28  A    between atoms: C_29  and  C_31 
REMARK   29  A    between atoms: C_30  and  C_32 
REMARK   30  A    between atoms: C_33  and  C_37 
REMARK   31  A    between atoms: C_34  and  C_38 
REMARK   32  A    between atoms: C_35  and  C_40 
REMARK   33  A    between atoms: C_36  and  C_41 
REMARK   34  A    between atoms: C_39  and  C_42 
REMARK   35  A    between atoms: O_83  and  C_90 
REMARK   36  A    between atoms: O_84  and  C_91 
REMARK   37  A    between atoms: O_85  and  C_92 
REMARK   38  A    between atoms: C_86  and  C_87 
ROOT
HETATM    1  O   UNL     1      82.029  93.564 115.513  1.00  0.00    -0.348 OA
HETATM    2  C   UNL     1      82.873  92.778 114.790  1.00  0.00     0.201 A 
HETATM    3  C   UNL     1      81.688  92.242 115.381  1.00  0.00     0.282 A 
ENDROOT
BRANCH   2   4
HETATM    4  C   UNL     1      83.322  92.197 115.163  1.00  0.00     0.199 A 
HETATM    5  C   UNL     1      84.873  92.336 114.890  1.00  0.00     0.198 A 
HETATM    6  C   UNL     1      84.110  93.209 115.793  1.00  0.00     0.215 A 
BRANCH   4   7
HETATM    7  O   UNL     1      83.340  91.197 113.732  1.00  0.00    -0.306 OA
BRANCH   7   8
HETATM    8  C   UNL     1      83.293  90.025 113.122  1.00  0.00     0.294 C 
HETATM    9  O   UNL     1      82.464  89.166 113.405  1.00  0.00    -0.259 OA
BRANCH   8  10
HETATM   10  C   UNL     1      84.198  89.734 112.025  1.00  0.00     0.045 A 
HETATM   11  C   UNL     1      85.002  90.774 111.544  1.00  0.00     0.057 A 
HETATM   12  C   UNL     1      86.169  90.449 110.866  1.00  0.00     0.102 A 
HETATM   13  C   UNL     1      86.508  89.115 110.655  1.00  0.00     0.132 A 
HETATM   14  C   UNL     1      85.681  88.093 111.109  1.00  0.00     0.102 A 
HETATM   15  C   UNL     1      84.533  88.392 111.821  1.00  0.00     0.057 A 
BRANCH  12  16
HETATM   16  O   UNL     1      87.051  91.412 110.460  1.00  0.00    -0.358 OA
HETATM   17  H   UNL     1      86.847  92.228 110.953  1.00  0.00     0.217 HD
ENDBRANCH  12  16
BRANCH  13  18
HETATM   18  O   UNL     1      87.698  88.786 110.064  1.00  0.00    -0.356 OA
HETATM   19  H   UNL     1      87.504  88.822 109.104  1.00  0.00     0.218 HD
ENDBRANCH  13  18
BRANCH  14  20
HETATM   20  O   UNL     1      86.036  86.787 110.928  1.00  0.00    -0.358 OA
HETATM   21  H   UNL     1      86.691  86.820 110.199  1.00  0.00     0.217 HD
ENDBRANCH  14  20
ENDBRANCH   8  10
ENDBRANCH   7   8
ENDBRANCH   4   7
BRANCH   5  22
HETATM   22  O   UNL     1      85.628  91.214 115.629  1.00  0.00    -0.306 OA
BRANCH  22  23
HETATM   23  C   UNL     1      86.440  90.311 114.969  1.00  0.00     0.294 C 
HETATM   24  O   UNL     1      87.346  90.548 114.179  1.00  0.00    -0.259 OA
BRANCH  23  25
HETATM   25  C   UNL     1      86.133  88.913 115.255  1.00  0.00     0.045 A 
HETATM   26  C   UNL     1      85.513  88.585 116.473  1.00  0.00     0.057 A 
HETATM   27  C   UNL     1      85.243  87.254 116.751  1.00  0.00     0.102 A 
HETATM   28  C   UNL     1      85.615  86.270 115.844  1.00  0.00     0.132 A 
HETATM   29  C   UNL     1      86.329  86.601 114.699  1.00  0.00     0.102 A 
HETATM   30  C   UNL     1      86.609  87.922 114.401  1.00  0.00     0.057 A 
BRANCH  27  31
HETATM   31  O   UNL     1      84.620  86.869 117.904  1.00  0.00    -0.358 OA
HETATM   32  H   UNL     1      85.205  87.078 118.657  1.00  0.00     0.217 HD
ENDBRANCH  27  31
BRANCH  28  33
HETATM   33  O   UNL     1      85.290  84.960 116.067  1.00  0.00    -0.356 OA
HETATM   34  H   UNL     1      84.431  85.005 116.536  1.00  0.00     0.218 HD
ENDBRANCH  28  33
BRANCH  29  35
HETATM   35  O   UNL     1      86.763  85.628 113.851  1.00  0.00    -0.358 OA
HETATM   36  H   UNL     1      85.954  85.295 113.416  1.00  0.00     0.217 HD
ENDBRANCH  29  35
ENDBRANCH  23  25
ENDBRANCH  22  23
ENDBRANCH   5  22
BRANCH   6  37
HETATM   37  O   UNL     1      85.100  94.009 116.835  1.00  0.00    -0.304 OA
BRANCH  37  38
HETATM   38  C   UNL     1      84.911  94.141 118.176  1.00  0.00     0.294 C 
HETATM   39  O   UNL     1      85.273  95.053 118.890  1.00  0.00    -0.259 OA
BRANCH  38  40
HETATM   40  C   UNL     1      84.215  92.939 118.640  1.00  0.00     0.045 A 
HETATM   41  C   UNL     1      84.997  91.811 118.893  1.00  0.00     0.057 A 
HETATM   42  C   UNL     1      84.391  90.663 119.361  1.00  0.00     0.102 A 
HETATM   43  C   UNL     1      83.025  90.640 119.594  1.00  0.00     0.132 A 
HETATM   44  C   UNL     1      82.252  91.778 119.369  1.00  0.00     0.102 A 
HETATM   45  C   UNL     1      82.838  92.942 118.885  1.00  0.00     0.057 A 
BRANCH  42  46
HETATM   46  O   UNL     1      85.165  89.572 119.608  1.00  0.00    -0.358 OA
HETATM   47  H   UNL     1      85.622  89.382 118.765  1.00  0.00     0.217 HD
ENDBRANCH  42  46
BRANCH  43  48
HETATM   48  O   UNL     1      82.456  89.493 120.074  1.00  0.00    -0.356 OA
HETATM   49  H   UNL     1      82.812  88.788 119.496  1.00  0.00     0.218 HD
ENDBRANCH  43  48
BRANCH  44  50
HETATM   50  O   UNL     1      80.919  91.705 119.664  1.00  0.00    -0.358 OA
HETATM   51  H   UNL     1      80.730  90.810 119.999  1.00  0.00     0.217 HD
ENDBRANCH  44  50
ENDBRANCH  38  40
ENDBRANCH  37  38
ENDBRANCH   6  37
ENDBRANCH   2   4
BRANCH   2  52
HETATM   52  C   UNL     1      83.463  92.840 113.244  1.00  0.00     0.216 C 
BRANCH  52  53
HETATM   53  O   UNL     1      83.041  94.096 112.720  1.00  0.00    -0.315 OA
BRANCH  53  54
HETATM   54  C   UNL     1      83.270  94.241 111.407  1.00  0.00     0.293 C 
HETATM   55  O   UNL     1      84.330  94.080 110.835  1.00  0.00    -0.259 OA
BRANCH  54  56
HETATM   56  C   UNL     1      82.007  94.709 110.810  1.00  0.00     0.045 C 
HETATM   57  C   UNL     1      81.827  96.045 110.402  1.00  0.00     0.057 C 
HETATM   58  C   UNL     1      80.653  96.420 109.774  1.00  0.00     0.102 C 
HETATM   59  C   UNL     1      79.729  95.454 109.416  1.00  0.00     0.133 C 
HETATM   60  C   UNL     1      79.990  94.115 109.718  1.00  0.00     0.116 C 
HETATM   61  C   UNL     1      81.044  93.747 110.545  1.00  0.00     0.058 C 
BRANCH  58  62
HETATM   62  O   UNL     1      80.456  97.723 109.418  1.00  0.00    -0.358 OA
HETATM   63  H   UNL     1      80.539  97.721 108.442  1.00  0.00     0.217 HD
ENDBRANCH  58  62
BRANCH  59  64
HETATM   64  O   UNL     1      78.651  95.856 108.680  1.00  0.00    -0.356 OA
HETATM   65  H   UNL     1      78.100  96.429 109.248  1.00  0.00     0.218 HD
ENDBRANCH  59  64
BRANCH  60  66
HETATM   66  O   UNL     1      79.375  93.094 108.995  1.00  0.00    -0.272 OA
BRANCH  66  67
HETATM   67  C   UNL     1      78.741  92.294 109.938  1.00  0.00     0.298 C 
HETATM   68  O   UNL     1      79.327  91.444 110.590  1.00  0.00    -0.259 OA
BRANCH  67  69
HETATM   69  C   UNL     1      77.277  92.541 110.060  1.00  0.00     0.045 A 
HETATM   70  C   UNL     1      76.830  93.731 110.656  1.00  0.00     0.057 A 
HETATM   71  C   UNL     1      75.466  93.995 110.717  1.00  0.00     0.102 A 
HETATM   72  C   UNL     1      74.551  93.070 110.235  1.00  0.00     0.132 A 
HETATM   73  C   UNL     1      75.000  91.875 109.674  1.00  0.00     0.102 A 
HETATM   74  C   UNL     1      76.363  91.606 109.557  1.00  0.00     0.057 A 
BRANCH  71  75
HETATM   75  O   UNL     1      75.077  95.175 111.268  1.00  0.00    -0.358 OA
HETATM   76  H   UNL     1      75.849  95.778 111.325  1.00  0.00     0.217 HD
ENDBRANCH  71  75
BRANCH  72  77
HETATM   77  O   UNL     1      73.213  93.325 110.324  1.00  0.00    -0.356 OA
HETATM   78  H   UNL     1      72.774  92.538 109.941  1.00  0.00     0.218 HD
ENDBRANCH  72  77
BRANCH  73  79
HETATM   79  O   UNL     1      74.052  90.982 109.255  1.00  0.00    -0.358 OA
HETATM   80  H   UNL     1      73.895  90.340 109.973  1.00  0.00     0.217 HD
ENDBRANCH  73  79
ENDBRANCH  67  69
ENDBRANCH  66  67
ENDBRANCH  60  66
ENDBRANCH  54  56
ENDBRANCH  53  54
ENDBRANCH  52  53
ENDBRANCH   2  52
BRANCH   3  81
HETATM   81  O   UNL     1      80.860  91.761 114.147  1.00  0.00    -0.285 OA
BRANCH  81  82
HETATM   82  C   UNL     1      79.728  91.023 114.306  1.00  0.00     0.295 C 
HETATM   83  O   UNL     1      79.785  89.861 114.685  1.00  0.00    -0.259 OA
BRANCH  82  84
HETATM   84  C   UNL     1      78.419  91.713 114.151  1.00  0.00     0.045 A 
HETATM   85  C   UNL     1      78.188  92.997 114.663  1.00  0.00     0.057 A 
HETATM   86  C   UNL     1      76.909  93.544 114.575  1.00  0.00     0.102 A 
HETATM   87  C   UNL     1      75.863  92.824 114.008  1.00  0.00     0.132 A 
HETATM   88  C   UNL     1      76.083  91.546 113.516  1.00  0.00     0.102 A 
HETATM   89  C   UNL     1      77.354  90.984 113.586  1.00  0.00     0.057 A 
BRANCH  86  90
HETATM   90  O   UNL     1      76.663  94.795 115.068  1.00  0.00    -0.358 OA
HETATM   91  H   UNL     1      75.685  94.828 115.144  1.00  0.00     0.217 HD
ENDBRANCH  86  90
BRANCH  87  92
HETATM   92  O   UNL     1      74.616  93.389 113.966  1.00  0.00    -0.356 OA
HETATM   93  H   UNL     1      74.233  93.195 114.848  1.00  0.00     0.218 HD
ENDBRANCH  87  92
BRANCH  88  94
HETATM   94  O   UNL     1      75.015  90.873 112.990  1.00  0.00    -0.358 OA
HETATM   95  H   UNL     1      75.204  89.918 113.046  1.00  0.00     0.217 HD
ENDBRANCH  88  94
ENDBRANCH  82  84
ENDBRANCH  81  82
ENDBRANCH   3  81
TORSDOF 38
ENDMDL
MODEL 8
REMARK VINA RESULT:   -11.925      1.789     11.320
REMARK INTER + INTRA:         -28.716
REMARK INTER:                 -31.244
REMARK INTRA:                   2.529
REMARK UNBOUND:                 2.031
REMARK WARNING: 32 MAX_TORS EXCEEDED!!!
REMARK  38 active torsions:
REMARK  status: ('A' for Active; 'I' for Inactive)
REMARK    1  A    between atoms: O_2  and  C_27 
REMARK    2  A    between atoms: O_2  and  C_33 
REMARK    3  A    between atoms: O_3  and  C_28 
REMARK    4  A    between atoms: O_3  and  C_34 
REMARK    5  A    between atoms: O_4  and  C_29 
REMARK    6  A    between atoms: O_4  and  C_35 
REMARK    7  A    between atoms: O_5  and  C_31 
REMARK    8  A    between atoms: O_5  and  C_36 
REMARK    9  A    between atoms: O_6  and  C_32 
REMARK   10  A    between atoms: O_6  and  C_39 
REMARK   11  A    between atoms: O_12  and  C_51 
REMARK   12  A    between atoms: O_13  and  C_52 
REMARK   13  A    between atoms: O_14  and  C_53 
REMARK   14  A    between atoms: O_15  and  C_54 
REMARK   15  A    between atoms: O_16  and  C_55 
REMARK   16  A    between atoms: O_17  and  C_56 
REMARK   17  A    between atoms: O_18  and  C_59 
REMARK   18  A    between atoms: O_19  and  C_60 
REMARK   19  A    between atoms: O_20  and  C_61 
REMARK   20  A    between atoms: O_21  and  C_62 
REMARK   21  A    between atoms: O_22  and  C_63 
REMARK   22  A    between atoms: O_23  and  C_64 
REMARK   23  A    between atoms: O_24  and  C_65 
REMARK   24  A    between atoms: O_24  and  C_86 
REMARK   25  A    between atoms: O_25  and  C_66 
REMARK   26  A    between atoms: O_26  and  C_67 
REMARK   27  A    between atoms: C_28  and  C_30 
REMARK   28  A    between atoms: C_29  and  C_31 
REMARK   29  A    between atoms: C_30  and  C_32 
REMARK   30  A    between atoms: C_33  and  C_37 
REMARK   31  A    between atoms: C_34  and  C_38 
REMARK   32  A    between atoms: C_35  and  C_40 
REMARK   33  A    between atoms: C_36  and  C_41 
REMARK   34  A    between atoms: C_39  and  C_42 
REMARK   35  A    between atoms: O_83  and  C_90 
REMARK   36  A    between atoms: O_84  and  C_91 
REMARK   37  A    between atoms: O_85  and  C_92 
REMARK   38  A    between atoms: C_86  and  C_87 
ROOT
HETATM    1  O   UNL     1      83.207  90.728 110.966  1.00  0.00    -0.348 OA
HETATM    2  C   UNL     1      83.363  90.998 112.291  1.00  0.00     0.201 A 
HETATM    3  C   UNL     1      83.494  92.026 111.307  1.00  0.00     0.282 A 
ENDROOT
BRANCH   2   4
HETATM    4  C   UNL     1      84.105  91.192 112.593  1.00  0.00     0.199 A 
HETATM    5  C   UNL     1      84.570  90.238 113.764  1.00  0.00     0.198 A 
HETATM    6  C   UNL     1      84.553  89.858 112.345  1.00  0.00     0.215 A 
BRANCH   4   7
HETATM    7  O   UNL     1      83.409  92.142 113.882  1.00  0.00    -0.306 OA
BRANCH   7   8
HETATM    8  C   UNL     1      83.409  93.176 114.705  1.00  0.00     0.294 C 
HETATM    9  O   UNL     1      82.482  93.978 114.757  1.00  0.00    -0.259 OA
BRANCH   8  10
HETATM   10  C   UNL     1      84.500  93.365 115.644  1.00  0.00     0.045 A 
HETATM   11  C   UNL     1      84.444  92.675 116.861  1.00  0.00     0.057 A 
HETATM   12  C   UNL     1      85.628  92.448 117.549  1.00  0.00     0.102 A 
HETATM   13  C   UNL     1      86.835  92.922 117.039  1.00  0.00     0.132 A 
HETATM   14  C   UNL     1      86.870  93.635 115.846  1.00  0.00     0.102 A 
HETATM   15  C   UNL     1      85.707  93.840 115.125  1.00  0.00     0.057 A 
BRANCH  12  16
HETATM   16  O   UNL     1      85.659  91.695 118.689  1.00  0.00    -0.358 OA
HETATM   17  H   UNL     1      85.268  92.227 119.407  1.00  0.00     0.217 HD
ENDBRANCH  12  16
BRANCH  13  18
HETATM   18  O   UNL     1      88.015  92.628 117.667  1.00  0.00    -0.356 OA
HETATM   19  H   UNL     1      88.300  93.483 118.050  1.00  0.00     0.218 HD
ENDBRANCH  13  18
BRANCH  14  20
HETATM   20  O   UNL     1      88.060  94.067 115.336  1.00  0.00    -0.358 OA
HETATM   21  H   UNL     1      88.378  93.307 114.805  1.00  0.00     0.217 HD
ENDBRANCH  14  20
ENDBRANCH   8  10
ENDBRANCH   7   8
ENDBRANCH   4   7
BRANCH   5  22
HETATM   22  O   UNL     1      85.964  90.671 114.257  1.00  0.00    -0.306 OA
BRANCH  22  23
HETATM   23  C   UNL     1      86.948  89.757 114.584  1.00  0.00     0.294 C 
HETATM   24  O   UNL     1      88.116  89.741 114.215  1.00  0.00    -0.259 OA
BRANCH  23  25
HETATM   25  C   UNL     1      86.495  88.679 115.458  1.00  0.00     0.045 A 
HETATM   26  C   UNL     1      87.023  87.389 115.281  1.00  0.00     0.057 A 
HETATM   27  C   UNL     1      86.574  86.362 116.098  1.00  0.00     0.102 A 
HETATM   28  C   UNL     1      85.595  86.616 117.050  1.00  0.00     0.132 A 
HETATM   29  C   UNL     1      85.003  87.869 117.134  1.00  0.00     0.102 A 
HETATM   30  C   UNL     1      85.434  88.909 116.329  1.00  0.00     0.057 A 
BRANCH  27  31
HETATM   31  O   UNL     1      87.063  85.091 115.997  1.00  0.00    -0.358 OA
HETATM   32  H   UNL     1      87.799  85.093 115.355  1.00  0.00     0.217 HD
ENDBRANCH  27  31
BRANCH  28  33
HETATM   33  O   UNL     1      85.194  85.634 117.914  1.00  0.00    -0.356 OA
HETATM   34  H   UNL     1      85.167  84.827 117.360  1.00  0.00     0.218 HD
ENDBRANCH  28  33
BRANCH  29  35
HETATM   35  O   UNL     1      83.986  88.095 118.012  1.00  0.00    -0.358 OA
HETATM   36  H   UNL     1      84.036  87.356 118.649  1.00  0.00     0.217 HD
ENDBRANCH  29  35
ENDBRANCH  23  25
ENDBRANCH  22  23
ENDBRANCH   5  22
BRANCH   6  37
HETATM   37  O   UNL     1      85.505  88.547 112.061  1.00  0.00    -0.304 OA
BRANCH  37  38
HETATM   38  C   UNL     1      85.950  88.129 110.845  1.00  0.00     0.294 C 
HETATM   39  O   UNL     1      85.495  88.404 109.754  1.00  0.00    -0.259 OA
BRANCH  38  40
HETATM   40  C   UNL     1      87.079  87.226 111.078  1.00  0.00     0.045 A 
HETATM   41  C   UNL     1      86.904  86.226 112.038  1.00  0.00     0.057 A 
HETATM   42  C   UNL     1      87.927  85.331 112.271  1.00  0.00     0.102 A 
HETATM   43  C   UNL     1      89.107  85.414 111.548  1.00  0.00     0.132 A 
HETATM   44  C   UNL     1      89.266  86.395 110.569  1.00  0.00     0.102 A 
HETATM   45  C   UNL     1      88.253  87.316 110.324  1.00  0.00     0.057 A 
BRANCH  42  46
HETATM   46  O   UNL     1      87.742  84.360 113.206  1.00  0.00    -0.358 OA
HETATM   47  H   UNL     1      86.862  83.982 113.016  1.00  0.00     0.217 HD
ENDBRANCH  42  46
BRANCH  43  48
HETATM   48  O   UNL     1      90.097  84.503 111.791  1.00  0.00    -0.356 OA
HETATM   49  H   UNL     1      90.173  84.486 112.766  1.00  0.00     0.218 HD
ENDBRANCH  43  48
BRANCH  44  50
HETATM   50  O   UNL     1      90.433  86.393 109.857  1.00  0.00    -0.358 OA
HETATM   51  H   UNL     1      90.684  87.319 109.683  1.00  0.00     0.217 HD
ENDBRANCH  44  50
ENDBRANCH  38  40
ENDBRANCH  37  38
ENDBRANCH   6  37
ENDBRANCH   2   4
BRANCH   2  52
HETATM   52  C   UNL     1      82.404  90.799 113.627  1.00  0.00     0.216 C 
BRANCH  52  53
HETATM   53  O   UNL     1      81.115  90.450 113.128  1.00  0.00    -0.315 OA
BRANCH  53  54
HETATM   54  C   UNL     1      80.289  89.953 114.060  1.00  0.00     0.293 C 
HETATM   55  O   UNL     1      80.386  88.874 114.611  1.00  0.00    -0.259 OA
BRANCH  54  56
HETATM   56  C   UNL     1      79.202  90.933 114.223  1.00  0.00     0.045 C 
HETATM   57  C   UNL     1      78.976  91.599 115.443  1.00  0.00     0.057 C 
HETATM   58  C   UNL     1      77.994  92.569 115.525  1.00  0.00     0.102 C 
HETATM   59  C   UNL     1      77.344  92.986 114.376  1.00  0.00     0.133 C 
HETATM   60  C   UNL     1      77.678  92.399 113.153  1.00  0.00     0.116 C 
HETATM   61  C   UNL     1      78.488  91.273 113.083  1.00  0.00     0.058 C 
BRANCH  58  62
HETATM   62  O   UNL     1      77.741  93.185 116.717  1.00  0.00    -0.358 OA
HETATM   63  H   UNL     1      77.603  92.445 117.345  1.00  0.00     0.217 HD
ENDBRANCH  58  62
BRANCH  59  64
HETATM   64  O   UNL     1      76.481  94.038 114.487  1.00  0.00    -0.356 OA
HETATM   65  H   UNL     1      77.013  94.856 114.540  1.00  0.00     0.218 HD
ENDBRANCH  59  64
BRANCH  60  66
HETATM   66  O   UNL     1      77.434  93.071 111.956  1.00  0.00    -0.272 OA
BRANCH  66  67
HETATM   67  C   UNL     1      76.415  92.365 111.329  1.00  0.00     0.298 C 
HETATM   68  O   UNL     1      76.623  91.473 110.521  1.00  0.00    -0.259 OA
BRANCH  67  69
HETATM   69  C   UNL     1      75.044  92.813 111.704  1.00  0.00     0.045 A 
HETATM   70  C   UNL     1      74.756  94.187 111.729  1.00  0.00     0.057 A 
HETATM   71  C   UNL     1      73.463  94.609 112.018  1.00  0.00     0.102 A 
HETATM   72  C   UNL     1      72.476  93.684 112.324  1.00  0.00     0.132 A 
HETATM   73  C   UNL     1      72.776  92.323 112.329  1.00  0.00     0.102 A 
HETATM   74  C   UNL     1      74.052  91.869 111.997  1.00  0.00     0.057 A 
BRANCH  71  75
HETATM   75  O   UNL     1      73.217  95.947 111.995  1.00  0.00    -0.358 OA
HETATM   76  H   UNL     1      72.512  96.137 111.340  1.00  0.00     0.217 HD
ENDBRANCH  71  75
BRANCH  72  77
HETATM   77  O   UNL     1      71.215  94.110 112.633  1.00  0.00    -0.356 OA
HETATM   78  H   UNL     1      71.226  95.077 112.479  1.00  0.00     0.218 HD
ENDBRANCH  72  77
BRANCH  73  79
HETATM   79  O   UNL     1      71.774  91.459 112.681  1.00  0.00    -0.358 OA
HETATM   80  H   UNL     1      70.930  91.814 112.345  1.00  0.00     0.217 HD
ENDBRANCH  73  79
ENDBRANCH  67  69
ENDBRANCH  66  67
ENDBRANCH  60  66
ENDBRANCH  54  56
ENDBRANCH  53  54
ENDBRANCH  52  53
ENDBRANCH   2  52
BRANCH   3  81
HETATM   81  O   UNL     1      82.343  93.018 111.670  1.00  0.00    -0.285 OA
BRANCH  81  82
HETATM   82  C   UNL     1      82.156  94.163 110.961  1.00  0.00     0.295 C 
HETATM   83  O   UNL     1      83.046  94.997 110.867  1.00  0.00    -0.259 OA
BRANCH  82  84
HETATM   84  C   UNL     1      80.894  94.302 110.183  1.00  0.00     0.045 A 
HETATM   85  C   UNL     1      80.217  93.193 109.659  1.00  0.00     0.057 A 
HETATM   86  C   UNL     1      79.099  93.398 108.853  1.00  0.00     0.102 A 
HETATM   87  C   UNL     1      78.667  94.684 108.547  1.00  0.00     0.132 A 
HETATM   88  C   UNL     1      79.345  95.785 109.049  1.00  0.00     0.102 A 
HETATM   89  C   UNL     1      80.459  95.603 109.863  1.00  0.00     0.057 A 
BRANCH  86  90
HETATM   90  O   UNL     1      78.424  92.330 108.332  1.00  0.00    -0.358 OA
HETATM   91  H   UNL     1      78.184  91.797 109.121  1.00  0.00     0.217 HD
ENDBRANCH  86  90
BRANCH  87  92
HETATM   92  O   UNL     1      77.580  94.840 107.728  1.00  0.00    -0.356 OA
HETATM   93  H   UNL     1      77.541  95.806 107.559  1.00  0.00     0.218 HD
ENDBRANCH  87  92
BRANCH  88  94
HETATM   94  O   UNL     1      78.892  97.027 108.699  1.00  0.00    -0.358 OA
HETATM   95  H   UNL     1      77.996  97.136 109.069  1.00  0.00     0.217 HD
ENDBRANCH  88  94
ENDBRANCH  82  84
ENDBRANCH  81  82
ENDBRANCH   3  81
TORSDOF 38
ENDMDL
MODEL 9
REMARK VINA RESULT:   -11.919      1.548      6.074
REMARK INTER + INTRA:         -28.700
REMARK INTER:                 -29.930
REMARK INTRA:                   1.230
REMARK UNBOUND:                 2.031
REMARK WARNING: 32 MAX_TORS EXCEEDED!!!
REMARK  38 active torsions:
REMARK  status: ('A' for Active; 'I' for Inactive)
REMARK    1  A    between atoms: O_2  and  C_27 
REMARK    2  A    between atoms: O_2  and  C_33 
REMARK    3  A    between atoms: O_3  and  C_28 
REMARK    4  A    between atoms: O_3  and  C_34 
REMARK    5  A    between atoms: O_4  and  C_29 
REMARK    6  A    between atoms: O_4  and  C_35 
REMARK    7  A    between atoms: O_5  and  C_31 
REMARK    8  A    between atoms: O_5  and  C_36 
REMARK    9  A    between atoms: O_6  and  C_32 
REMARK   10  A    between atoms: O_6  and  C_39 
REMARK   11  A    between atoms: O_12  and  C_51 
REMARK   12  A    between atoms: O_13  and  C_52 
REMARK   13  A    between atoms: O_14  and  C_53 
REMARK   14  A    between atoms: O_15  and  C_54 
REMARK   15  A    between atoms: O_16  and  C_55 
REMARK   16  A    between atoms: O_17  and  C_56 
REMARK   17  A    between atoms: O_18  and  C_59 
REMARK   18  A    between atoms: O_19  and  C_60 
REMARK   19  A    between atoms: O_20  and  C_61 
REMARK   20  A    between atoms: O_21  and  C_62 
REMARK   21  A    between atoms: O_22  and  C_63 
REMARK   22  A    between atoms: O_23  and  C_64 
REMARK   23  A    between atoms: O_24  and  C_65 
REMARK   24  A    between atoms: O_24  and  C_86 
REMARK   25  A    between atoms: O_25  and  C_66 
REMARK   26  A    between atoms: O_26  and  C_67 
REMARK   27  A    between atoms: C_28  and  C_30 
REMARK   28  A    between atoms: C_29  and  C_31 
REMARK   29  A    between atoms: C_30  and  C_32 
REMARK   30  A    between atoms: C_33  and  C_37 
REMARK   31  A    between atoms: C_34  and  C_38 
REMARK   32  A    between atoms: C_35  and  C_40 
REMARK   33  A    between atoms: C_36  and  C_41 
REMARK   34  A    between atoms: C_39  and  C_42 
REMARK   35  A    between atoms: O_83  and  C_90 
REMARK   36  A    between atoms: O_84  and  C_91 
REMARK   37  A    between atoms: O_85  and  C_92 
REMARK   38  A    between atoms: C_86  and  C_87 
ROOT
HETATM    1  O   UNL     1      81.719  90.585 111.831  1.00  0.00    -0.348 OA
HETATM    2  C   UNL     1      81.229  90.837 113.075  1.00  0.00     0.201 A 
HETATM    3  C   UNL     1      81.602  89.515 112.681  1.00  0.00     0.282 A 
ENDROOT
BRANCH   2   4
HETATM    4  C   UNL     1      80.484  90.561 113.293  1.00  0.00     0.199 A 
HETATM    5  C   UNL     1      79.547  91.693 113.876  1.00  0.00     0.198 A 
HETATM    6  C   UNL     1      79.875  91.542 112.451  1.00  0.00     0.215 A 
BRANCH   4   7
HETATM    7  O   UNL     1      80.971  90.356 114.957  1.00  0.00    -0.306 OA
BRANCH   7   8
HETATM    8  C   UNL     1      80.910  89.745 116.128  1.00  0.00     0.294 C 
HETATM    9  O   UNL     1      80.167  88.791 116.337  1.00  0.00    -0.259 OA
BRANCH   8  10
HETATM   10  C   UNL     1      81.789  90.147 117.211  1.00  0.00     0.045 A 
HETATM   11  C   UNL     1      82.855  89.301 117.540  1.00  0.00     0.057 A 
HETATM   12  C   UNL     1      83.951  89.841 118.198  1.00  0.00     0.102 A 
HETATM   13  C   UNL     1      83.966  91.191 118.540  1.00  0.00     0.132 A 
HETATM   14  C   UNL     1      82.885  92.012 118.237  1.00  0.00     0.102 A 
HETATM   15  C   UNL     1      81.799  91.504 117.546  1.00  0.00     0.057 A 
BRANCH  12  16
HETATM   16  O   UNL     1      85.067  89.096 118.459  1.00  0.00    -0.358 OA
HETATM   17  H   UNL     1      84.919  88.623 119.299  1.00  0.00     0.217 HD
ENDBRANCH  12  16
BRANCH  13  18
HETATM   18  O   UNL     1      85.077  91.749 119.112  1.00  0.00    -0.356 OA
HETATM   19  H   UNL     1      84.720  92.296 119.842  1.00  0.00     0.218 HD
ENDBRANCH  13  18
BRANCH  14  20
HETATM   20  O   UNL     1      82.921  93.342 118.544  1.00  0.00    -0.358 OA
HETATM   21  H   UNL     1      82.199  93.451 119.199  1.00  0.00     0.217 HD
ENDBRANCH  14  20
ENDBRANCH   8  10
ENDBRANCH   7   8
ENDBRANCH   4   7
BRANCH   5  22
HETATM   22  O   UNL     1      78.179  91.087 114.248  1.00  0.00    -0.306 OA
BRANCH  22  23
HETATM   23  C   UNL     1      77.194  91.821 114.882  1.00  0.00     0.294 C 
HETATM   24  O   UNL     1      77.173  92.209 116.044  1.00  0.00    -0.259 OA
BRANCH  23  25
HETATM   25  C   UNL     1      76.043  92.130 114.039  1.00  0.00     0.045 A 
HETATM   26  C   UNL     1      75.728  91.271 112.972  1.00  0.00     0.057 A 
HETATM   27  C   UNL     1      74.648  91.578 112.159  1.00  0.00     0.102 A 
HETATM   28  C   UNL     1      73.918  92.737 112.391  1.00  0.00     0.132 A 
HETATM   29  C   UNL     1      74.313  93.633 113.377  1.00  0.00     0.102 A 
HETATM   30  C   UNL     1      75.387  93.346 114.200  1.00  0.00     0.057 A 
BRANCH  27  31
HETATM   31  O   UNL     1      74.272  90.774 111.122  1.00  0.00    -0.358 OA
HETATM   32  H   UNL     1      74.780  89.942 111.175  1.00  0.00     0.217 HD
ENDBRANCH  27  31
BRANCH  28  33
HETATM   33  O   UNL     1      72.805  93.018 111.647  1.00  0.00    -0.356 OA
HETATM   34  H   UNL     1      72.961  92.551 110.801  1.00  0.00     0.218 HD
ENDBRANCH  28  33
BRANCH  29  35
HETATM   35  O   UNL     1      73.645  94.807 113.550  1.00  0.00    -0.358 OA
HETATM   36  H   UNL     1      73.046  94.870 112.781  1.00  0.00     0.217 HD
ENDBRANCH  29  35
ENDBRANCH  23  25
ENDBRANCH  22  23
ENDBRANCH   5  22
BRANCH   6  37
HETATM   37  O   UNL     1      78.804  92.349 111.498  1.00  0.00    -0.304 OA
BRANCH  37  38
HETATM   38  C   UNL     1      78.919  92.548 110.157  1.00  0.00     0.294 C 
HETATM   39  O   UNL     1      78.619  91.783 109.265  1.00  0.00    -0.259 OA
BRANCH  38  40
HETATM   40  C   UNL     1      79.530  93.865 109.961  1.00  0.00     0.045 A 
HETATM   41  C   UNL     1      80.888  93.986 110.261  1.00  0.00     0.057 A 
HETATM   42  C   UNL     1      81.515  95.199 110.064  1.00  0.00     0.102 A 
HETATM   43  C   UNL     1      80.807  96.277 109.555  1.00  0.00     0.132 A 
HETATM   44  C   UNL     1      79.459  96.143 109.228  1.00  0.00     0.102 A 
HETATM   45  C   UNL     1      78.801  94.935 109.430  1.00  0.00     0.057 A 
BRANCH  42  46
HETATM   46  O   UNL     1      82.840  95.302 110.357  1.00  0.00    -0.358 OA
HETATM   47  H   UNL     1      83.150  94.384 110.478  1.00  0.00     0.217 HD
ENDBRANCH  42  46
BRANCH  43  48
HETATM   48  O   UNL     1      81.461  97.461 109.355  1.00  0.00    -0.356 OA
HETATM   49  H   UNL     1      81.411  97.913 110.222  1.00  0.00     0.218 HD
ENDBRANCH  43  48
BRANCH  44  50
HETATM   50  O   UNL     1      78.830  97.229 108.685  1.00  0.00    -0.358 OA
HETATM   51  H   UNL     1      79.204  98.032 109.091  1.00  0.00     0.217 HD
ENDBRANCH  44  50
ENDBRANCH  38  40
ENDBRANCH  37  38
ENDBRANCH   6  37
ENDBRANCH   2   4
BRANCH   2  52
HETATM   52  C   UNL     1      81.685  91.843 114.310  1.00  0.00     0.216 C 
BRANCH  52  53
HETATM   53  O   UNL     1      83.024  92.229 114.018  1.00  0.00    -0.315 OA
BRANCH  53  54
HETATM   54  C   UNL     1      83.500  93.190 114.824  1.00  0.00     0.293 C 
HETATM   55  O   UNL     1      82.948  94.235 115.107  1.00  0.00    -0.259 OA
BRANCH  54  56
HETATM   56  C   UNL     1      84.850  92.766 115.231  1.00  0.00     0.045 C 
HETATM   57  C   UNL     1      85.714  93.617 115.947  1.00  0.00     0.057 C 
HETATM   58  C   UNL     1      86.942  93.147 116.376  1.00  0.00     0.102 C 
HETATM   59  C   UNL     1      87.251  91.806 116.233  1.00  0.00     0.133 C 
HETATM   60  C   UNL     1      86.322  90.953 115.632  1.00  0.00     0.116 C 
HETATM   61  C   UNL     1      85.190  91.442 114.993  1.00  0.00     0.058 C 
BRANCH  58  62
HETATM   62  O   UNL     1      87.800  93.983 117.031  1.00  0.00    -0.358 OA
HETATM   63  H   UNL     1      87.223  94.502 117.628  1.00  0.00     0.217 HD
ENDBRANCH  58  62
BRANCH  59  64
HETATM   64  O   UNL     1      88.416  91.365 116.792  1.00  0.00    -0.356 OA
HETATM   65  H   UNL     1      89.156  91.748 116.280  1.00  0.00     0.218 HD
ENDBRANCH  59  64
BRANCH  60  66
HETATM   66  O   UNL     1      86.356  89.581 115.883  1.00  0.00    -0.272 OA
BRANCH  66  67
HETATM   67  C   UNL     1      87.187  89.041 114.909  1.00  0.00     0.298 C 
HETATM   68  O   UNL     1      87.761  89.722 114.073  1.00  0.00    -0.259 OA
BRANCH  67  69
HETATM   69  C   UNL     1      87.290  87.555 114.952  1.00  0.00     0.045 A 
HETATM   70  C   UNL     1      86.356  86.826 115.706  1.00  0.00     0.057 A 
HETATM   71  C   UNL     1      86.410  85.437 115.701  1.00  0.00     0.102 A 
HETATM   72  C   UNL     1      87.405  84.776 114.993  1.00  0.00     0.132 A 
HETATM   73  C   UNL     1      88.348  85.507 114.273  1.00  0.00     0.102 A 
HETATM   74  C   UNL     1      88.289  86.899 114.223  1.00  0.00     0.057 A 
BRANCH  71  75
HETATM   75  O   UNL     1      85.466  84.767 116.414  1.00  0.00    -0.358 OA
HETATM   76  H   UNL     1      84.907  84.242 115.802  1.00  0.00     0.217 HD
ENDBRANCH  71  75
BRANCH  72  77
HETATM   77  O   UNL     1      87.466  83.412 115.017  1.00  0.00    -0.356 OA
HETATM   78  H   UNL     1      88.323  83.186 114.601  1.00  0.00     0.218 HD
ENDBRANCH  72  77
BRANCH  73  79
HETATM   79  O   UNL     1      89.331  84.805 113.631  1.00  0.00    -0.358 OA
HETATM   80  H   UNL     1      89.463  85.196 112.748  1.00  0.00     0.217 HD
ENDBRANCH  73  79
ENDBRANCH  67  69
ENDBRANCH  66  67
ENDBRANCH  60  66
ENDBRANCH  54  56
ENDBRANCH  53  54
ENDBRANCH  52  53
ENDBRANCH   2  52
BRANCH   3  81
HETATM   81  O   UNL     1      82.763  89.163 113.667  1.00  0.00    -0.285 OA
BRANCH  81  82
HETATM   82  C   UNL     1      83.515  88.043 113.492  1.00  0.00     0.295 C 
HETATM   83  O   UNL     1      83.245  87.007 114.082  1.00  0.00    -0.259 OA
BRANCH  82  84
HETATM   84  C   UNL     1      84.580  88.075 112.453  1.00  0.00     0.045 A 
HETATM   85  C   UNL     1      84.904  89.245 111.754  1.00  0.00     0.057 A 
HETATM   86  C   UNL     1      85.838  89.184 110.722  1.00  0.00     0.102 A 
HETATM   87  C   UNL     1      86.431  87.977 110.367  1.00  0.00     0.132 A 
HETATM   88  C   UNL     1      86.100  86.813 111.044  1.00  0.00     0.102 A 
HETATM   89  C   UNL     1      85.175  86.853 112.084  1.00  0.00     0.057 A 
BRANCH  86  90
HETATM   90  O   UNL     1      86.168  90.314 110.027  1.00  0.00    -0.358 OA
HETATM   91  H   UNL     1      85.783  90.163 109.137  1.00  0.00     0.217 HD
ENDBRANCH  86  90
BRANCH  87  92
HETATM   92  O   UNL     1      87.323  87.957 109.328  1.00  0.00    -0.356 OA
HETATM   93  H   UNL     1      87.854  87.146 109.480  1.00  0.00     0.218 HD
ENDBRANCH  87  92
BRANCH  88  94
HETATM   94  O   UNL     1      86.694  85.649 110.640  1.00  0.00    -0.358 OA
HETATM   95  H   UNL     1      87.570  85.870 110.273  1.00  0.00     0.217 HD
ENDBRANCH  88  94
ENDBRANCH  82  84
ENDBRANCH  81  82
ENDBRANCH   3  81
TORSDOF 38
ENDMDL
MODEL 10
REMARK VINA RESULT:   -11.875      2.563      8.573
REMARK INTER + INTRA:         -28.589
REMARK INTER:                 -30.144
REMARK INTRA:                   1.555
REMARK UNBOUND:                 2.031
REMARK WARNING: 32 MAX_TORS EXCEEDED!!!
REMARK  38 active torsions:
REMARK  status: ('A' for Active; 'I' for Inactive)
REMARK    1  A    between atoms: O_2  and  C_27 
REMARK    2  A    between atoms: O_2  and  C_33 
REMARK    3  A    between atoms: O_3  and  C_28 
REMARK    4  A    between atoms: O_3  and  C_34 
REMARK    5  A    between atoms: O_4  and  C_29 
REMARK    6  A    between atoms: O_4  and  C_35 
REMARK    7  A    between atoms: O_5  and  C_31 
REMARK    8  A    between atoms: O_5  and  C_36 
REMARK    9  A    between atoms: O_6  and  C_32 
REMARK   10  A    between atoms: O_6  and  C_39 
REMARK   11  A    between atoms: O_12  and  C_51 
REMARK   12  A    between atoms: O_13  and  C_52 
REMARK   13  A    between atoms: O_14  and  C_53 
REMARK   14  A    between atoms: O_15  and  C_54 
REMARK   15  A    between atoms: O_16  and  C_55 
REMARK   16  A    between atoms: O_17  and  C_56 
REMARK   17  A    between atoms: O_18  and  C_59 
REMARK   18  A    between atoms: O_19  and  C_60 
REMARK   19  A    between atoms: O_20  and  C_61 
REMARK   20  A    between atoms: O_21  and  C_62 
REMARK   21  A    between atoms: O_22  and  C_63 
REMARK   22  A    between atoms: O_23  and  C_64 
REMARK   23  A    between atoms: O_24  and  C_65 
REMARK   24  A    between atoms: O_24  and  C_86 
REMARK   25  A    between atoms: O_25  and  C_66 
REMARK   26  A    between atoms: O_26  and  C_67 
REMARK   27  A    between atoms: C_28  and  C_30 
REMARK   28  A    between atoms: C_29  and  C_31 
REMARK   29  A    between atoms: C_30  and  C_32 
REMARK   30  A    between atoms: C_33  and  C_37 
REMARK   31  A    between atoms: C_34  and  C_38 
REMARK   32  A    between atoms: C_35  and  C_40 
REMARK   33  A    between atoms: C_36  and  C_41 
REMARK   34  A    between atoms: C_39  and  C_42 
REMARK   35  A    between atoms: O_83  and  C_90 
REMARK   36  A    between atoms: O_84  and  C_91 
REMARK   37  A    between atoms: O_85  and  C_92 
REMARK   38  A    between atoms: C_86  and  C_87 
ROOT
HETATM    1  O   UNL     1      80.370  89.950 112.840  1.00  0.00    -0.348 OA
HETATM    2  C   UNL     1      80.489  91.132 113.505  1.00  0.00     0.201 A 
HETATM    3  C   UNL     1      80.916  89.904 114.098  1.00  0.00     0.282 A 
ENDROOT
BRANCH   2   4
HETATM    4  C   UNL     1      80.020  91.287 114.165  1.00  0.00     0.199 A 
HETATM    5  C   UNL     1      79.230  92.652 114.060  1.00  0.00     0.198 A 
HETATM    6  C   UNL     1      78.877  91.433 113.319  1.00  0.00     0.215 A 
BRANCH   4   7
HETATM    7  O   UNL     1      81.263  92.269 114.900  1.00  0.00    -0.306 OA
BRANCH   7   8
HETATM    8  C   UNL     1      81.866  92.802 115.949  1.00  0.00     0.294 C 
HETATM    9  O   UNL     1      81.803  93.999 116.208  1.00  0.00    -0.259 OA
BRANCH   8  10
HETATM   10  C   UNL     1      82.583  91.958 116.888  1.00  0.00     0.045 A 
HETATM   11  C   UNL     1      81.862  90.963 117.559  1.00  0.00     0.057 A 
HETATM   12  C   UNL     1      82.555  89.874 118.069  1.00  0.00     0.102 A 
HETATM   13  C   UNL     1      83.939  89.797 117.930  1.00  0.00     0.132 A 
HETATM   14  C   UNL     1      84.645  90.810 117.291  1.00  0.00     0.102 A 
HETATM   15  C   UNL     1      83.971  91.886 116.741  1.00  0.00     0.057 A 
BRANCH  12  16
HETATM   16  O   UNL     1      81.903  88.818 118.644  1.00  0.00    -0.358 OA
HETATM   17  H   UNL     1      81.706  89.060 119.568  1.00  0.00     0.217 HD
ENDBRANCH  12  16
BRANCH  13  18
HETATM   18  O   UNL     1      84.618  88.686 118.354  1.00  0.00    -0.356 OA
HETATM   19  H   UNL     1      85.425  89.048 118.775  1.00  0.00     0.218 HD
ENDBRANCH  13  18
BRANCH  14  20
HETATM   20  O   UNL     1      85.997  90.712 117.129  1.00  0.00    -0.358 OA
HETATM   21  H   UNL     1      86.318  90.420 118.008  1.00  0.00     0.217 HD
ENDBRANCH  14  20
ENDBRANCH   8  10
ENDBRANCH   7   8
ENDBRANCH   4   7
BRANCH   5  22
HETATM   22  O   UNL     1      78.380  92.853 115.330  1.00  0.00    -0.306 OA
BRANCH  22  23
HETATM   23  C   UNL     1      77.888  94.090 115.701  1.00  0.00     0.294 C 
HETATM   24  O   UNL     1      77.129  94.819 115.074  1.00  0.00    -0.259 OA
BRANCH  23  25
HETATM   25  C   UNL     1      78.376  94.563 116.993  1.00  0.00     0.045 A 
HETATM   26  C   UNL     1      78.849  93.628 117.929  1.00  0.00     0.057 A 
HETATM   27  C   UNL     1      79.291  94.078 119.164  1.00  0.00     0.102 A 
HETATM   28  C   UNL     1      79.230  95.432 119.466  1.00  0.00     0.132 A 
HETATM   29  C   UNL     1      78.654  96.328 118.575  1.00  0.00     0.102 A 
HETATM   30  C   UNL     1      78.207  95.901 117.337  1.00  0.00     0.057 A 
BRANCH  27  31
HETATM   31  O   UNL     1      79.786  93.226 120.109  1.00  0.00    -0.358 OA
HETATM   32  H   UNL     1      79.169  93.210 120.865  1.00  0.00     0.217 HD
ENDBRANCH  27  31
BRANCH  28  33
HETATM   33  O   UNL     1      79.730  95.903 120.649  1.00  0.00    -0.356 OA
HETATM   34  H   UNL     1      79.465  96.846 120.660  1.00  0.00     0.218 HD
ENDBRANCH  28  33
BRANCH  29  35
HETATM   35  O   UNL     1      78.521  97.642 118.906  1.00  0.00    -0.358 OA
HETATM   36  H   UNL     1      78.166  98.069 118.102  1.00  0.00     0.217 HD
ENDBRANCH  29  35
ENDBRANCH  23  25
ENDBRANCH  22  23
ENDBRANCH   5  22
BRANCH   6  37
HETATM   37  O   UNL     1      77.330  91.491 112.764  1.00  0.00    -0.304 OA
BRANCH  37  38
HETATM   38  C   UNL     1      76.210  91.606 113.528  1.00  0.00     0.294 C 
HETATM   39  O   UNL     1      75.979  91.070 114.592  1.00  0.00    -0.259 OA
BRANCH  38  40
HETATM   40  C   UNL     1      75.277  92.476 112.808  1.00  0.00     0.045 A 
HETATM   41  C   UNL     1      73.918  92.174 112.914  1.00  0.00     0.057 A 
HETATM   42  C   UNL     1      72.997  92.982 112.279  1.00  0.00     0.102 A 
HETATM   43  C   UNL     1      73.419  94.091 111.562  1.00  0.00     0.132 A 
HETATM   44  C   UNL     1      74.774  94.407 111.484  1.00  0.00     0.102 A 
HETATM   45  C   UNL     1      75.722  93.600 112.105  1.00  0.00     0.057 A 
BRANCH  42  46
HETATM   46  O   UNL     1      71.676  92.678 112.393  1.00  0.00    -0.358 OA
HETATM   47  H   UNL     1      71.580  92.270 113.276  1.00  0.00     0.217 HD
ENDBRANCH  42  46
BRANCH  43  48
HETATM   48  O   UNL     1      72.482  94.882 110.958  1.00  0.00    -0.356 OA
HETATM   49  H   UNL     1      72.260  95.553 111.635  1.00  0.00     0.218 HD
ENDBRANCH  43  48
BRANCH  44  50
HETATM   50  O   UNL     1      75.121  95.540 110.803  1.00  0.00    -0.358 OA
HETATM   51  H   UNL     1      75.143  96.281 111.436  1.00  0.00     0.217 HD
ENDBRANCH  44  50
ENDBRANCH  38  40
ENDBRANCH  37  38
ENDBRANCH   6  37
ENDBRANCH   2   4
BRANCH   2  52
HETATM   52  C   UNL     1      81.237  92.571 113.170  1.00  0.00     0.216 C 
BRANCH  52  53
HETATM   53  O   UNL     1      81.954  92.360 111.957  1.00  0.00    -0.315 OA
BRANCH  53  54
HETATM   54  C   UNL     1      81.176  92.327 110.865  1.00  0.00     0.293 C 
HETATM   55  O   UNL     1      80.941  91.356 110.173  1.00  0.00    -0.259 OA
BRANCH  54  56
HETATM   56  C   UNL     1      80.733  93.711 110.625  1.00  0.00     0.045 C 
HETATM   57  C   UNL     1      81.640  94.739 110.305  1.00  0.00     0.057 C 
HETATM   58  C   UNL     1      81.168  96.005 110.010  1.00  0.00     0.102 C 
HETATM   59  C   UNL     1      79.806  96.217 109.882  1.00  0.00     0.133 C 
HETATM   60  C   UNL     1      78.929  95.148 110.079  1.00  0.00     0.116 C 
HETATM   61  C   UNL     1      79.364  93.934 110.597  1.00  0.00     0.058 C 
BRANCH  58  62
HETATM   62  O   UNL     1      82.047  97.015 109.744  1.00  0.00    -0.358 OA
HETATM   63  H   UNL     1      81.611  97.815 110.106  1.00  0.00     0.217 HD
ENDBRANCH  58  62
BRANCH  59  64
HETATM   64  O   UNL     1      79.397  97.449 109.458  1.00  0.00    -0.356 OA
HETATM   65  H   UNL     1      80.177  97.913 109.095  1.00  0.00     0.218 HD
ENDBRANCH  59  64
BRANCH  60  66
HETATM   66  O   UNL     1      77.652  95.168 109.518  1.00  0.00    -0.272 OA
BRANCH  66  67
HETATM   67  C   UNL     1      77.809  94.723 108.211  1.00  0.00     0.298 C 
HETATM   68  O   UNL     1      78.535  95.280 107.401  1.00  0.00    -0.259 OA
BRANCH  67  69
HETATM   69  C   UNL     1      76.988  93.526 107.873  1.00  0.00     0.045 A 
HETATM   70  C   UNL     1      76.586  93.326 106.543  1.00  0.00     0.057 A 
HETATM   71  C   UNL     1      75.872  92.179 106.211  1.00  0.00     0.102 A 
HETATM   72  C   UNL     1      75.521  91.263 107.192  1.00  0.00     0.132 A 
HETATM   73  C   UNL     1      75.895  91.484 108.516  1.00  0.00     0.102 A 
HETATM   74  C   UNL     1      76.651  92.601 108.869  1.00  0.00     0.057 A 
BRANCH  71  75
HETATM   75  O   UNL     1      75.534  92.004 104.905  1.00  0.00    -0.358 OA
HETATM   76  H   UNL     1      76.220  91.462 104.461  1.00  0.00     0.217 HD
ENDBRANCH  71  75
BRANCH  72  77
HETATM   77  O   UNL     1      74.796  90.154 106.860  1.00  0.00    -0.356 OA
HETATM   78  H   UNL     1      73.858  90.423 106.950  1.00  0.00     0.218 HD
ENDBRANCH  72  77
BRANCH  73  79
HETATM   79  O   UNL     1      75.483  90.570 109.447  1.00  0.00    -0.358 OA
HETATM   80  H   UNL     1      74.544  90.366 109.283  1.00  0.00     0.217 HD
ENDBRANCH  73  79
ENDBRANCH  67  69
ENDBRANCH  66  67
ENDBRANCH  60  66
ENDBRANCH  54  56
ENDBRANCH  53  54
ENDBRANCH  52  53
ENDBRANCH   2  52
BRANCH   3  81
HETATM   81  O   UNL     1      82.451  90.120 114.298  1.00  0.00    -0.285 OA
BRANCH  81  82
HETATM   82  C   UNL     1      83.355  89.246 113.780  1.00  0.00     0.295 C 
HETATM   83  O   UNL     1      83.284  88.049 114.025  1.00  0.00    -0.259 OA
BRANCH  82  84
HETATM   84  C   UNL     1      84.338  89.765 112.791  1.00  0.00     0.045 A 
HETATM   85  C   UNL     1      84.704  89.036 111.652  1.00  0.00     0.057 A 
HETATM   86  C   UNL     1      85.706  89.533 110.820  1.00  0.00     0.102 A 
HETATM   87  C   UNL     1      86.357  90.725 111.121  1.00  0.00     0.132 A 
HETATM   88  C   UNL     1      86.010  91.440 112.257  1.00  0.00     0.102 A 
HETATM   89  C   UNL     1      85.006  90.967 113.097  1.00  0.00     0.057 A 
BRANCH  86  90
HETATM   90  O   UNL     1      86.079  88.837 109.704  1.00  0.00    -0.358 OA
HETATM   91  H   UNL     1      87.032  89.049 109.604  1.00  0.00     0.217 HD
ENDBRANCH  86  90
BRANCH  87  92
HETATM   92  O   UNL     1      87.355  91.162 110.292  1.00  0.00    -0.356 OA
HETATM   93  H   UNL     1      87.474  90.431 109.649  1.00  0.00     0.218 HD
ENDBRANCH  87  92
BRANCH  88  94
HETATM   94  O   UNL     1      86.697  92.594 112.519  1.00  0.00    -0.358 OA
HETATM   95  H   UNL     1      87.645  92.419 112.373  1.00  0.00     0.217 HD
ENDBRANCH  88  94
ENDBRANCH  82  84
ENDBRANCH  81  82
ENDBRANCH   3  81
TORSDOF 38
ENDMDL
