MODEL 1
REMARK VINA RESULT:      -5.3      0.000      0.000
REMARK  4 active torsions:
REMARK  status: ('A' for Active; 'I' for Inactive)
REMARK    1  A    between atoms: O_1  and  C_10 
REMARK    2  A    between atoms: O_1  and  C_11 
REMARK    3  A    between atoms: N_3  and  C_7 
REMARK    4  A    between atoms: C_4  and  C_10 
ROOT
HETATM    1  O   UNK     0     180.692 187.395 162.677  0.00  0.00    -0.318 OA
ENDROOT
BRANCH   1   2
HETATM    2  C   UNK     0     179.534 187.345 163.404  0.00  0.00     0.293 C 
HETATM    3  O   UNK     0     179.147 188.251 164.153  0.00  0.00    -0.259 OA
BRANCH   2   4
HETATM    4  C   UNK     0     178.821 186.096 163.187  0.00  0.00     0.039 A 
HETATM    5  C   UNK     0     177.791 185.722 164.051  0.00  0.00     0.020 A 
HETATM    6  C   UNK     0     177.108 184.523 163.843  0.00  0.00     0.030 A 
HETATM    7  C   UNK     0     177.454 183.699 162.772  0.00  0.00     0.025 A 
HETATM    8  C   UNK     0     178.483 184.074 161.909  0.00  0.00     0.030 A 
HETATM    9  C   UNK     0     179.167 185.272 162.116  0.00  0.00     0.020 A 
BRANCH   7  10
HETATM   10  N   UNK     0     176.763 182.489 162.562  0.00  0.00    -0.399 N 
HETATM   11  H   UNK     0     176.340 182.005 163.343  0.00  0.00     0.156 HD
HETATM   12  H   UNK     0     176.691 182.101 161.630  0.00  0.00     0.156 HD
ENDBRANCH   7  10
ENDBRANCH   2   4
ENDBRANCH   1   2
BRANCH   1  13
HETATM   13  C   UNK     0     181.920 187.369 163.414  0.00  0.00     0.174 C 
HETATM   14  C   UNK     0     182.725 186.161 162.987  0.00  0.00     0.034 C 
ENDBRANCH   1  13
TORSDOF 4
ENDMDL
MODEL 2
REMARK VINA RESULT:      -5.0      1.319      2.589
REMARK  4 active torsions:
REMARK  status: ('A' for Active; 'I' for Inactive)
REMARK    1  A    between atoms: O_1  and  C_10 
REMARK    2  A    between atoms: O_1  and  C_11 
REMARK    3  A    between atoms: N_3  and  C_7 
REMARK    4  A    between atoms: C_4  and  C_10 
ROOT
HETATM    1  O   UNK     0     179.101 188.284 164.380  0.00  0.00    -0.318 OA
ENDROOT
BRANCH   1   2
HETATM    2  C   UNK     0     179.816 187.408 163.608  0.00  0.00     0.293 C 
HETATM    3  O   UNK     0     180.963 187.624 163.198  0.00  0.00    -0.259 OA
BRANCH   2   4
HETATM    4  C   UNK     0     179.058 186.198 163.333  0.00  0.00     0.039 A 
HETATM    5  C   UNK     0     179.385 185.405 162.233  0.00  0.00     0.020 A 
HETATM    6  C   UNK     0     178.657 184.245 161.968  0.00  0.00     0.030 A 
HETATM    7  C   UNK     0     177.603 183.876 162.804  0.00  0.00     0.025 A 
HETATM    8  C   UNK     0     177.276 184.669 163.903  0.00  0.00     0.030 A 
HETATM    9  C   UNK     0     178.003 185.830 164.168  0.00  0.00     0.020 A 
BRANCH   7  10
HETATM   10  N   UNK     0     176.868 182.704 162.536  0.00  0.00    -0.399 N 
HETATM   11  H   UNK     0     175.877 182.760 162.341  0.00  0.00     0.156 HD
HETATM   12  H   UNK     0     177.331 181.804 162.540  0.00  0.00     0.156 HD
ENDBRANCH   7  10
ENDBRANCH   2   4
ENDBRANCH   1   2
BRANCH   1  13
HETATM   13  C   UNK     0     179.764 188.824 165.528  0.00  0.00     0.174 C 
HETATM   14  C   UNK     0     178.917 188.564 166.754  0.00  0.00     0.034 C 
ENDBRANCH   1  13
TORSDOF 4
ENDMDL
MODEL 3
REMARK VINA RESULT:      -5.0     18.514     19.884
REMARK  4 active torsions:
REMARK  status: ('A' for Active; 'I' for Inactive)
REMARK    1  A    between atoms: O_1  and  C_10 
REMARK    2  A    between atoms: O_1  and  C_11 
REMARK    3  A    between atoms: N_3  and  C_7 
REMARK    4  A    between atoms: C_4  and  C_10 
ROOT
HETATM    1  O   UNK     0     180.641 167.858 162.956  0.00  0.00    -0.318 OA
ENDROOT
BRANCH   1   2
HETATM    2  C   UNK     0     180.849 166.759 162.166  0.00  0.00     0.293 C 
HETATM    3  O   UNK     0     179.956 166.189 161.526  0.00  0.00    -0.259 OA
BRANCH   2   4
HETATM    4  C   UNK     0     182.244 166.350 162.177  0.00  0.00     0.039 A 
HETATM    5  C   UNK     0     182.901 166.081 160.976  0.00  0.00     0.020 A 
HETATM    6  C   UNK     0     184.239 165.687 160.986  0.00  0.00     0.030 A 
HETATM    7  C   UNK     0     184.921 165.563 162.197  0.00  0.00     0.025 A 
HETATM    8  C   UNK     0     184.264 165.832 163.397  0.00  0.00     0.030 A 
HETATM    9  C   UNK     0     182.925 166.225 163.388  0.00  0.00     0.020 A 
BRANCH   7  10
HETATM   10  N   UNK     0     186.273 165.165 162.207  0.00  0.00    -0.399 N 
HETATM   11  H   UNK     0     186.549 164.296 161.769  0.00  0.00     0.156 HD
HETATM   12  H   UNK     0     186.969 165.747 162.654  0.00  0.00     0.156 HD
ENDBRANCH   7  10
ENDBRANCH   2   4
ENDBRANCH   1   2
BRANCH   1  13
HETATM   13  C   UNK     0     179.361 167.968 163.588  0.00  0.00     0.174 C 
HETATM   14  C   UNK     0     179.274 169.302 164.296  0.00  0.00     0.034 C 
ENDBRANCH   1  13
TORSDOF 4
ENDMDL
MODEL 4
REMARK VINA RESULT:      -4.8      3.273      4.204
REMARK  4 active torsions:
REMARK  status: ('A' for Active; 'I' for Inactive)
REMARK    1  A    between atoms: O_1  and  C_10 
REMARK    2  A    between atoms: O_1  and  C_11 
REMARK    3  A    between atoms: N_3  and  C_7 
REMARK    4  A    between atoms: C_4  and  C_10 
ROOT
HETATM    1  O   UNK     0     182.616 183.191 162.446  0.00  0.00    -0.318 OA
ENDROOT
BRANCH   1   2
HETATM    2  C   UNK     0     181.612 183.438 163.343  0.00  0.00     0.293 C 
HETATM    3  O   UNK     0     181.341 182.699 164.298  0.00  0.00    -0.259 OA
BRANCH   2   4
HETATM    4  C   UNK     0     180.908 184.671 163.030  0.00  0.00     0.039 A 
HETATM    5  C   UNK     0     179.599 184.623 162.548  0.00  0.00     0.020 A 
HETATM    6  C   UNK     0     178.924 185.807 162.248  0.00  0.00     0.030 A 
HETATM    7  C   UNK     0     179.556 187.037 162.429  0.00  0.00     0.025 A 
HETATM    8  C   UNK     0     180.864 187.084 162.910  0.00  0.00     0.030 A 
HETATM    9  C   UNK     0     181.540 185.901 163.210  0.00  0.00     0.020 A 
BRANCH   7  10
HETATM   10  N   UNK     0     178.873 188.232 162.125  0.00  0.00    -0.399 N 
HETATM   11  H   UNK     0     178.615 188.439 161.169  0.00  0.00     0.156 HD
HETATM   12  H   UNK     0     178.642 188.885 162.863  0.00  0.00     0.156 HD
ENDBRANCH   7  10
ENDBRANCH   2   4
ENDBRANCH   1   2
BRANCH   1  13
HETATM   13  C   UNK     0     183.880 182.789 162.985  0.00  0.00     0.174 C 
HETATM   14  C   UNK     0     184.987 183.387 162.144  0.00  0.00     0.034 C 
ENDBRANCH   1  13
TORSDOF 4
ENDMDL
MODEL 5
REMARK VINA RESULT:      -4.7     15.509     16.614
REMARK  4 active torsions:
REMARK  status: ('A' for Active; 'I' for Inactive)
REMARK    1  A    between atoms: O_1  and  C_10 
REMARK    2  A    between atoms: O_1  and  C_11 
REMARK    3  A    between atoms: N_3  and  C_7 
REMARK    4  A    between atoms: C_4  and  C_10 
ROOT
HETATM    1  O   UNK     0     189.706 174.234 159.478  0.00  0.00    -0.318 OA
ENDROOT
BRANCH   1   2
HETATM    2  C   UNK     0     188.694 174.280 158.558  0.00  0.00     0.293 C 
HETATM    3  O   UNK     0     188.211 175.330 158.113  0.00  0.00    -0.259 OA
BRANCH   2   4
HETATM    4  C   UNK     0     188.259 172.947 158.174  0.00  0.00     0.039 A 
HETATM    5  C   UNK     0     188.974 171.829 158.607  0.00  0.00     0.020 A 
HETATM    6  C   UNK     0     188.557 170.550 158.237  0.00  0.00     0.030 A 
HETATM    7  C   UNK     0     187.426 170.388 157.437  0.00  0.00     0.025 A 
HETATM    8  C   UNK     0     186.712 171.505 157.005  0.00  0.00     0.030 A 
HETATM    9  C   UNK     0     187.129 172.785 157.373  0.00  0.00     0.020 A 
BRANCH   7  10
HETATM   10  N   UNK     0     187.005 169.095 157.064  0.00  0.00    -0.399 N 
HETATM   11  H   UNK     0     187.437 168.282 157.482  0.00  0.00     0.156 HD
HETATM   12  H   UNK     0     186.272 168.980 156.376  0.00  0.00     0.156 HD
ENDBRANCH   7  10
ENDBRANCH   2   4
ENDBRANCH   1   2
BRANCH   1  13
HETATM   13  C   UNK     0     189.680 175.218 160.518  0.00  0.00     0.174 C 
HETATM   14  C   UNK     0     188.581 174.870 161.499  0.00  0.00     0.034 C 
ENDBRANCH   1  13
TORSDOF 4
ENDMDL
MODEL 6
REMARK VINA RESULT:      -4.7      2.112      3.319
REMARK  4 active torsions:
REMARK  status: ('A' for Active; 'I' for Inactive)
REMARK    1  A    between atoms: O_1  and  C_10 
REMARK    2  A    between atoms: O_1  and  C_11 
REMARK    3  A    between atoms: N_3  and  C_7 
REMARK    4  A    between atoms: C_4  and  C_10 
ROOT
HETATM    1  O   UNK     0     178.679 187.038 166.620  0.00  0.00    -0.318 OA
ENDROOT
BRANCH   1   2
HETATM    2  C   UNK     0     178.916 187.507 165.357  0.00  0.00     0.293 C 
HETATM    3  O   UNK     0     179.270 188.665 165.103  0.00  0.00    -0.259 OA
BRANCH   2   4
HETATM    4  C   UNK     0     178.698 186.475 164.355  0.00  0.00     0.039 A 
HETATM    5  C   UNK     0     177.704 185.516 164.547  0.00  0.00     0.020 A 
HETATM    6  C   UNK     0     177.495 184.525 163.587  0.00  0.00     0.030 A 
HETATM    7  C   UNK     0     178.280 184.495 162.434  0.00  0.00     0.025 A 
HETATM    8  C   UNK     0     179.274 185.454 162.242  0.00  0.00     0.030 A 
HETATM    9  C   UNK     0     179.484 186.444 163.203  0.00  0.00     0.020 A 
BRANCH   7  10
HETATM   10  N   UNK     0     178.069 183.494 161.464  0.00  0.00    -0.399 N 
HETATM   11  H   UNK     0     178.789 182.807 161.280  0.00  0.00     0.156 HD
HETATM   12  H   UNK     0     177.199 183.464 160.949  0.00  0.00     0.156 HD
ENDBRANCH   7  10
ENDBRANCH   2   4
ENDBRANCH   1   2
BRANCH   1  13
HETATM   13  C   UNK     0     177.898 187.872 167.483  0.00  0.00     0.174 C 
HETATM   14  C   UNK     0     176.534 187.245 167.671  0.00  0.00     0.034 C 
ENDBRANCH   1  13
TORSDOF 4
ENDMDL
MODEL 7
REMARK VINA RESULT:      -4.7     16.661     18.480
REMARK  4 active torsions:
REMARK  status: ('A' for Active; 'I' for Inactive)
REMARK    1  A    between atoms: O_1  and  C_10 
REMARK    2  A    between atoms: O_1  and  C_11 
REMARK    3  A    between atoms: N_3  and  C_7 
REMARK    4  A    between atoms: C_4  and  C_10 
ROOT
HETATM    1  O   UNK     0     172.910 171.517 158.365  0.00  0.00    -0.318 OA
ENDROOT
BRANCH   1   2
HETATM    2  C   UNK     0     173.879 170.555 158.287  0.00  0.00     0.293 C 
HETATM    3  O   UNK     0     175.093 170.787 158.359  0.00  0.00    -0.259 OA
BRANCH   2   4
HETATM    4  C   UNK     0     173.305 169.231 158.107  0.00  0.00     0.039 A 
HETATM    5  C   UNK     0     173.775 168.399 157.091  0.00  0.00     0.020 A 
HETATM    6  C   UNK     0     173.222 167.129 156.919  0.00  0.00     0.030 A 
HETATM    7  C   UNK     0     172.201 166.692 157.762  0.00  0.00     0.025 A 
HETATM    8  C   UNK     0     171.731 167.524 158.777  0.00  0.00     0.030 A 
HETATM    9  C   UNK     0     172.282 168.794 158.950  0.00  0.00     0.020 A 
BRANCH   7  10
HETATM   10  N   UNK     0     171.643 165.409 157.587  0.00  0.00    -0.399 N 
HETATM   11  H   UNK     0     171.580 164.773 158.371  0.00  0.00     0.156 HD
HETATM   12  H   UNK     0     171.307 165.123 156.677  0.00  0.00     0.156 HD
ENDBRANCH   7  10
ENDBRANCH   2   4
ENDBRANCH   1   2
BRANCH   1  13
HETATM   13  C   UNK     0     172.434 172.058 157.127  0.00  0.00     0.174 C 
HETATM   14  C   UNK     0     173.252 173.281 156.777  0.00  0.00     0.034 C 
ENDBRANCH   1  13
TORSDOF 4
ENDMDL
MODEL 8
REMARK VINA RESULT:      -4.6      3.339      4.463
REMARK  4 active torsions:
REMARK  status: ('A' for Active; 'I' for Inactive)
REMARK    1  A    between atoms: O_1  and  C_10 
REMARK    2  A    between atoms: O_1  and  C_11 
REMARK    3  A    between atoms: N_3  and  C_7 
REMARK    4  A    between atoms: C_4  and  C_10 
ROOT
HETATM    1  O   UNK     0     181.803 183.248 164.576  0.00  0.00    -0.318 OA
ENDROOT
BRANCH   1   2
HETATM    2  C   UNK     0     181.756 183.521 163.235  0.00  0.00     0.293 C 
HETATM    3  O   UNK     0     182.291 182.819 162.367  0.00  0.00    -0.259 OA
BRANCH   2   4
HETATM    4  C   UNK     0     181.003 184.734 162.963  0.00  0.00     0.039 A 
HETATM    5  C   UNK     0     179.700 184.651 162.471  0.00  0.00     0.020 A 
HETATM    6  C   UNK     0     178.978 185.815 162.208  0.00  0.00     0.030 A 
HETATM    7  C   UNK     0     179.558 187.063 162.439  0.00  0.00     0.025 A 
HETATM    8  C   UNK     0     180.860 187.146 162.930  0.00  0.00     0.030 A 
HETATM    9  C   UNK     0     181.583 185.982 163.192  0.00  0.00     0.020 A 
BRANCH   7  10
HETATM   10  N   UNK     0     178.828 188.239 162.173  0.00  0.00    -0.399 N 
HETATM   11  H   UNK     0     178.311 188.331 161.308  0.00  0.00     0.156 HD
HETATM   12  H   UNK     0     178.821 188.994 162.847  0.00  0.00     0.156 HD
ENDBRANCH   7  10
ENDBRANCH   2   4
ENDBRANCH   1   2
BRANCH   1  13
HETATM   13  C   UNK     0     180.820 182.340 165.086  0.00  0.00     0.174 C 
HETATM   14  C   UNK     0     179.917 183.081 166.048  0.00  0.00     0.034 C 
ENDBRANCH   1  13
TORSDOF 4
ENDMDL
MODEL 9
REMARK VINA RESULT:      -4.6     14.013     15.146
REMARK  4 active torsions:
REMARK  status: ('A' for Active; 'I' for Inactive)
REMARK    1  A    between atoms: O_1  and  C_10 
REMARK    2  A    between atoms: O_1  and  C_11 
REMARK    3  A    between atoms: N_3  and  C_7 
REMARK    4  A    between atoms: C_4  and  C_10 
ROOT
HETATM    1  O   UNK     0     189.275 176.262 162.529  0.00  0.00    -0.318 OA
ENDROOT
BRANCH   1   2
HETATM    2  C   UNK     0     189.349 174.898 162.437  0.00  0.00     0.293 C 
HETATM    3  O   UNK     0     189.700 174.159 163.365  0.00  0.00    -0.259 OA
BRANCH   2   4
HETATM    4  C   UNK     0     188.964 174.431 161.114  0.00  0.00     0.039 A 
HETATM    5  C   UNK     0     189.036 173.073 160.807  0.00  0.00     0.020 A 
HETATM    6  C   UNK     0     188.668 172.625 159.537  0.00  0.00     0.030 A 
HETATM    7  C   UNK     0     188.228 173.535 158.576  0.00  0.00     0.025 A 
HETATM    8  C   UNK     0     188.156 174.893 158.885  0.00  0.00     0.030 A 
HETATM    9  C   UNK     0     188.525 175.342 160.153  0.00  0.00     0.020 A 
BRANCH   7  10
HETATM   10  N   UNK     0     187.856 173.082 157.294  0.00  0.00    -0.399 N 
HETATM   11  H   UNK     0     187.309 172.238 157.195  0.00  0.00     0.156 HD
HETATM   12  H   UNK     0     188.139 173.601 156.473  0.00  0.00     0.156 HD
ENDBRANCH   7  10
ENDBRANCH   2   4
ENDBRANCH   1   2
BRANCH   1  13
HETATM   13  C   UNK     0     190.510 176.966 162.707  0.00  0.00     0.174 C 
HETATM   14  C   UNK     0     190.435 178.284 161.967  0.00  0.00     0.034 C 
ENDBRANCH   1  13
TORSDOF 4
ENDMDL
MODEL 10
REMARK VINA RESULT:      -4.6     21.149     22.295
REMARK  4 active torsions:
REMARK  status: ('A' for Active; 'I' for Inactive)
REMARK    1  A    between atoms: O_1  and  C_10 
REMARK    2  A    between atoms: O_1  and  C_11 
REMARK    3  A    between atoms: N_3  and  C_7 
REMARK    4  A    between atoms: C_4  and  C_10 
ROOT
HETATM    1  O   UNK     0     176.320 168.724 176.141  0.00  0.00    -0.318 OA
ENDROOT
BRANCH   1   2
HETATM    2  C   UNK     0     176.334 169.954 176.741  0.00  0.00     0.293 C 
HETATM    3  O   UNK     0     175.835 170.972 176.244  0.00  0.00    -0.259 OA
BRANCH   2   4
HETATM    4  C   UNK     0     177.007 169.912 178.029  0.00  0.00     0.039 A 
HETATM    5  C   UNK     0     176.686 170.847 179.014  0.00  0.00     0.020 A 
HETATM    6  C   UNK     0     177.333 170.807 180.249  0.00  0.00     0.030 A 
HETATM    7  C   UNK     0     178.299 169.833 180.501  0.00  0.00     0.025 A 
HETATM    8  C   UNK     0     178.619 168.898 179.516  0.00  0.00     0.030 A 
HETATM    9  C   UNK     0     177.973 168.938 178.280  0.00  0.00     0.020 A 
BRANCH   7  10
HETATM   10  N   UNK     0     178.952 169.793 181.750  0.00  0.00    -0.399 N 
HETATM   11  H   UNK     0     179.404 168.943 182.058  0.00  0.00     0.156 HD
HETATM   12  H   UNK     0     178.967 170.615 182.340  0.00  0.00     0.156 HD
ENDBRANCH   7  10
ENDBRANCH   2   4
ENDBRANCH   1   2
BRANCH   1  13
HETATM   13  C   UNK     0     176.629 168.683 174.743  0.00  0.00     0.174 C 
HETATM   14  C   UNK     0     178.130 168.608 174.572  0.00  0.00     0.034 C 
ENDBRANCH   1  13
TORSDOF 4
ENDMDL
