REMARK VINA RESULT:      -4.6     14.013     15.146
REMARK  4 active torsions:
REMARK  status: ('A' for Active; 'I' for Inactive)
REMARK    1  A    between atoms: O_1  and  C_10 
REMARK    2  A    between atoms: O_1  and  C_11 
REMARK    3  A    between atoms: N_3  and  C_7 
REMARK    4  A    between atoms: C_4  and  C_10 
ROOT
HETATM    1  O   UNK     0     189.275 176.262 162.529  0.00  0.00    -0.318 OA
ENDROOT
BRANCH   1   2
HETATM    2  C   UNK     0     189.349 174.898 162.437  0.00  0.00     0.293 C 
HETATM    3  O   UNK     0     189.700 174.159 163.365  0.00  0.00    -0.259 OA
BRANCH   2   4
HETATM    4  C   UNK     0     188.964 174.431 161.114  0.00  0.00     0.039 A 
HETATM    5  C   UNK     0     189.036 173.073 160.807  0.00  0.00     0.020 A 
HETATM    6  C   UNK     0     188.668 172.625 159.537  0.00  0.00     0.030 A 
HETATM    7  C   UNK     0     188.228 173.535 158.576  0.00  0.00     0.025 A 
HETATM    8  C   UNK     0     188.156 174.893 158.885  0.00  0.00     0.030 A 
HETATM    9  C   UNK     0     188.525 175.342 160.153  0.00  0.00     0.020 A 
BRANCH   7  10
HETATM   10  N   UNK     0     187.856 173.082 157.294  0.00  0.00    -0.399 N 
HETATM   11  H   UNK     0     187.309 172.238 157.195  0.00  0.00     0.156 HD
HETATM   12  H   UNK     0     188.139 173.601 156.473  0.00  0.00     0.156 HD
ENDBRANCH   7  10
ENDBRANCH   2   4
ENDBRANCH   1   2
BRANCH   1  13
HETATM   13  C   UNK     0     190.510 176.966 162.707  0.00  0.00     0.174 C 
HETATM   14  C   UNK     0     190.435 178.284 161.967  0.00  0.00     0.034 C 
ENDBRANCH   1  13
TORSDOF 4
