REMARK VINA RESULT:      -4.7     16.661     18.480
REMARK  4 active torsions:
REMARK  status: ('A' for Active; 'I' for Inactive)
REMARK    1  A    between atoms: O_1  and  C_10 
REMARK    2  A    between atoms: O_1  and  C_11 
REMARK    3  A    between atoms: N_3  and  C_7 
REMARK    4  A    between atoms: C_4  and  C_10 
ROOT
HETATM    1  O   UNK     0     172.910 171.517 158.365  0.00  0.00    -0.318 OA
ENDROOT
BRANCH   1   2
HETATM    2  C   UNK     0     173.879 170.555 158.287  0.00  0.00     0.293 C 
HETATM    3  O   UNK     0     175.093 170.787 158.359  0.00  0.00    -0.259 OA
BRANCH   2   4
HETATM    4  C   UNK     0     173.305 169.231 158.107  0.00  0.00     0.039 A 
HETATM    5  C   UNK     0     173.775 168.399 157.091  0.00  0.00     0.020 A 
HETATM    6  C   UNK     0     173.222 167.129 156.919  0.00  0.00     0.030 A 
HETATM    7  C   UNK     0     172.201 166.692 157.762  0.00  0.00     0.025 A 
HETATM    8  C   UNK     0     171.731 167.524 158.777  0.00  0.00     0.030 A 
HETATM    9  C   UNK     0     172.282 168.794 158.950  0.00  0.00     0.020 A 
BRANCH   7  10
HETATM   10  N   UNK     0     171.643 165.409 157.587  0.00  0.00    -0.399 N 
HETATM   11  H   UNK     0     171.580 164.773 158.371  0.00  0.00     0.156 HD
HETATM   12  H   UNK     0     171.307 165.123 156.677  0.00  0.00     0.156 HD
ENDBRANCH   7  10
ENDBRANCH   2   4
ENDBRANCH   1   2
BRANCH   1  13
HETATM   13  C   UNK     0     172.434 172.058 157.127  0.00  0.00     0.174 C 
HETATM   14  C   UNK     0     173.252 173.281 156.777  0.00  0.00     0.034 C 
ENDBRANCH   1  13
TORSDOF 4
