MODEL 1
REMARK VINA RESULT:      -6.2      0.000      0.000
REMARK  5 active torsions:
REMARK  status: ('A' for Active; 'I' for Inactive)
REMARK    1  A    between atoms: C_3  and  O_1 
REMARK    2  A    between atoms: C_4  and  O_14 
REMARK    3  A    between atoms: C_7  and  C_8 
REMARK    4  A    between atoms: C_9  and  C_10 
REMARK    5  A    between atoms: C_10  and  O_12 
ROOT
ATOM      1  C   LIG     1       6.862  45.691  19.048  0.00  0.00     0.162 A 
ATOM      2  C   LIG     1       6.532  46.969  19.500  0.00  0.00     0.158 A 
ATOM      3  C   LIG     1       5.450  47.146  20.361  0.00  0.00     0.050 A 
ATOM      4  C   LIG     1       4.697  46.046  20.771  0.00  0.00     0.012 A 
ATOM      5  C   LIG     1       5.026  44.769  20.319  0.00  0.00    -0.021 A 
ATOM      6  C   LIG     1       6.109  44.590  19.458  0.00  0.00     0.057 A 
ENDROOT
BRANCH   5   7
ATOM      7  C   LIG     1       4.242  43.621  20.747  0.00  0.00     0.015 C 
ATOM      8  C   LIG     1       3.121  43.677  21.501  0.00  0.00     0.092 C 
BRANCH   8   9
ATOM      9  C   LIG     1       2.408  42.436  21.862  0.00  0.00     0.330 C 
ATOM     10  O   LIG     1       2.917  41.372  22.173  0.00  0.00    -0.246 OA
BRANCH   9  11
ATOM     11  O   LIG     1       1.076  42.665  21.793  0.00  0.00    -0.478 OA
ATOM     12  H   LIG     1       0.768  42.765  20.867  0.00  0.00     0.295 HD
ENDBRANCH   9  11
ENDBRANCH   8   9
ENDBRANCH   5   7
BRANCH   1  13
ATOM     13  O   LIG     1       7.916  45.505  18.205  0.00  0.00    -0.491 OA
ATOM     14  C   LIG     1       9.128  45.019  18.781  0.00  0.00     0.277 C 
ENDBRANCH   1  13
BRANCH   2  15
ATOM     15  O   LIG     1       7.259  48.051  19.105  0.00  0.00    -0.503 OA
ATOM     16  H   LIG     1       7.502  48.573  19.890  0.00  0.00     0.292 HD
ENDBRANCH   2  15
TORSDOF 5
ENDMDL
MODEL 2
REMARK VINA RESULT:      -6.0      1.222      2.406
REMARK  5 active torsions:
REMARK  status: ('A' for Active; 'I' for Inactive)
REMARK    1  A    between atoms: C_3  and  O_1 
REMARK    2  A    between atoms: C_4  and  O_14 
REMARK    3  A    between atoms: C_7  and  C_8 
REMARK    4  A    between atoms: C_9  and  C_10 
REMARK    5  A    between atoms: C_10  and  O_12 
ROOT
ATOM      1  C   LIG     1       6.104  45.763  19.550  0.00  0.00     0.162 A 
ATOM      2  C   LIG     1       6.603  45.135  18.408  0.00  0.00     0.158 A 
ATOM      3  C   LIG     1       6.160  43.858  18.066  0.00  0.00     0.050 A 
ATOM      4  C   LIG     1       5.219  43.208  18.864  0.00  0.00     0.012 A 
ATOM      5  C   LIG     1       4.721  43.836  20.005  0.00  0.00    -0.021 A 
ATOM      6  C   LIG     1       5.163  45.113  20.348  0.00  0.00     0.057 A 
ENDROOT
BRANCH   5   7
ATOM      7  C   LIG     1       3.739  43.159  20.837  0.00  0.00     0.015 C 
ATOM      8  C   LIG     1       2.781  42.318  20.389  0.00  0.00     0.092 C 
BRANCH   8   9
ATOM      9  C   LIG     1       1.847  41.684  21.341  0.00  0.00     0.330 C 
ATOM     10  O   LIG     1       1.819  40.505  21.653  0.00  0.00    -0.246 OA
BRANCH   9  11
ATOM     11  O   LIG     1       1.011  42.632  21.825  0.00  0.00    -0.478 OA
ATOM     12  H   LIG     1       0.567  42.343  22.651  0.00  0.00     0.295 HD
ENDBRANCH   9  11
ENDBRANCH   8   9
ENDBRANCH   5   7
BRANCH   1  13
ATOM     13  O   LIG     1       6.530  47.011  19.895  0.00  0.00    -0.491 OA
ATOM     14  C   LIG     1       5.626  48.090  19.666  0.00  0.00     0.277 C 
ENDBRANCH   1  13
BRANCH   2  15
ATOM     15  O   LIG     1       7.523  45.759  17.621  0.00  0.00    -0.503 OA
ATOM     16  H   LIG     1       7.068  46.168  16.865  0.00  0.00     0.292 HD
ENDBRANCH   2  15
TORSDOF 5
ENDMDL
MODEL 3
REMARK VINA RESULT:      -5.9      1.703      6.136
REMARK  5 active torsions:
REMARK  status: ('A' for Active; 'I' for Inactive)
REMARK    1  A    between atoms: C_3  and  O_1 
REMARK    2  A    between atoms: C_4  and  O_14 
REMARK    3  A    between atoms: C_7  and  C_8 
REMARK    4  A    between atoms: C_9  and  C_10 
REMARK    5  A    between atoms: C_10  and  O_12 
ROOT
ATOM      1  C   LIG     1       2.953  42.980  22.355  0.00  0.00     0.162 A 
ATOM      2  C   LIG     1       3.420  42.812  23.659  0.00  0.00     0.158 A 
ATOM      3  C   LIG     1       4.317  43.731  24.202  0.00  0.00     0.050 A 
ATOM      4  C   LIG     1       4.748  44.818  23.441  0.00  0.00     0.012 A 
ATOM      5  C   LIG     1       4.282  44.985  22.138  0.00  0.00    -0.021 A 
ATOM      6  C   LIG     1       3.384  44.067  21.594  0.00  0.00     0.057 A 
ENDROOT
BRANCH   5   7
ATOM      7  C   LIG     1       4.730  46.119  21.345  0.00  0.00     0.015 C 
ATOM      8  C   LIG     1       5.692  46.078  20.395  0.00  0.00     0.092 C 
BRANCH   8   9
ATOM      9  C   LIG     1       6.050  47.301  19.651  0.00  0.00     0.330 C 
ATOM     10  O   LIG     1       5.448  48.362  19.666  0.00  0.00    -0.246 OA
BRANCH   9  11
ATOM     11  O   LIG     1       7.174  47.060  18.935  0.00  0.00    -0.478 OA
ATOM     12  H   LIG     1       7.792  46.465  19.411  0.00  0.00     0.295 HD
ENDBRANCH   9  11
ENDBRANCH   8   9
ENDBRANCH   5   7
BRANCH   1  13
ATOM     13  O   LIG     1       2.077  42.087  21.814  0.00  0.00    -0.491 OA
ATOM     14  C   LIG     1       1.861  42.165  20.406  0.00  0.00     0.277 C 
ENDBRANCH   1  13
BRANCH   2  15
ATOM     15  O   LIG     1       3.007  41.754  24.412  0.00  0.00    -0.503 OA
ATOM     16  H   LIG     1       3.265  41.904  25.338  0.00  0.00     0.292 HD
ENDBRANCH   2  15
TORSDOF 5
ENDMDL
MODEL 4
REMARK VINA RESULT:      -5.8      1.928      6.425
REMARK  5 active torsions:
REMARK  status: ('A' for Active; 'I' for Inactive)
REMARK    1  A    between atoms: C_3  and  O_1 
REMARK    2  A    between atoms: C_4  and  O_14 
REMARK    3  A    between atoms: C_7  and  C_8 
REMARK    4  A    between atoms: C_9  and  C_10 
REMARK    5  A    between atoms: C_10  and  O_12 
ROOT
ATOM      1  C   LIG     1       3.030  42.460  23.705  0.00  0.00     0.162 A 
ATOM      2  C   LIG     1       2.233  41.824  22.752  0.00  0.00     0.158 A 
ATOM      3  C   LIG     1       2.207  42.295  21.440  0.00  0.00     0.050 A 
ATOM      4  C   LIG     1       2.978  43.400  21.079  0.00  0.00     0.012 A 
ATOM      5  C   LIG     1       3.774  44.035  22.032  0.00  0.00    -0.021 A 
ATOM      6  C   LIG     1       3.801  43.565  23.345  0.00  0.00     0.057 A 
ENDROOT
BRANCH   5   7
ATOM      7  C   LIG     1       4.579  45.187  21.656  0.00  0.00     0.015 C 
ATOM      8  C   LIG     1       4.845  45.575  20.389  0.00  0.00     0.092 C 
BRANCH   8   9
ATOM      9  C   LIG     1       5.670  46.773  20.139  0.00  0.00     0.330 C 
ATOM     10  O   LIG     1       6.736  46.809  19.546  0.00  0.00    -0.246 OA
BRANCH   9  11
ATOM     11  O   LIG     1       5.050  47.848  20.679  0.00  0.00    -0.478 OA
ATOM     12  H   LIG     1       4.535  48.349  20.011  0.00  0.00     0.295 HD
ENDBRANCH   9  11
ENDBRANCH   8   9
ENDBRANCH   5   7
BRANCH   1  13
ATOM     13  O   LIG     1       3.062  42.010  24.991  0.00  0.00    -0.491 OA
ATOM     14  C   LIG     1       4.155  42.441  25.800  0.00  0.00     0.277 C 
ENDBRANCH   1  13
BRANCH   2  15
ATOM     15  O   LIG     1       1.475  40.745  23.092  0.00  0.00    -0.503 OA
ATOM     16  H   LIG     1       2.022  39.942  23.032  0.00  0.00     0.292 HD
ENDBRANCH   2  15
TORSDOF 5
ENDMDL
MODEL 5
REMARK VINA RESULT:      -5.2     17.396     18.299
REMARK  5 active torsions:
REMARK  status: ('A' for Active; 'I' for Inactive)
REMARK    1  A    between atoms: C_3  and  O_1 
REMARK    2  A    between atoms: C_4  and  O_14 
REMARK    3  A    between atoms: C_7  and  C_8 
REMARK    4  A    between atoms: C_9  and  C_10 
REMARK    5  A    between atoms: C_10  and  O_12 
ROOT
ATOM      1  C   LIG     1      12.666  54.177  35.246  0.00  0.00     0.162 A 
ATOM      2  C   LIG     1      11.917  54.722  34.202  0.00  0.00     0.158 A 
ATOM      3  C   LIG     1      11.049  53.911  33.470  0.00  0.00     0.050 A 
ATOM      4  C   LIG     1      10.929  52.557  33.782  0.00  0.00     0.012 A 
ATOM      5  C   LIG     1      11.677  52.013  34.825  0.00  0.00    -0.021 A 
ATOM      6  C   LIG     1      12.546  52.823  35.558  0.00  0.00     0.057 A 
ENDROOT
BRANCH   5   7
ATOM      7  C   LIG     1      11.552  50.602  35.151  0.00  0.00     0.015 C 
ATOM      8  C   LIG     1      12.581  49.762  35.402  0.00  0.00     0.092 C 
BRANCH   8   9
ATOM      9  C   LIG     1      12.319  48.347  35.732  0.00  0.00     0.330 C 
ATOM     10  O   LIG     1      11.636  47.567  35.090  0.00  0.00    -0.246 OA
BRANCH   9  11
ATOM     11  O   LIG     1      12.969  48.042  36.880  0.00  0.00    -0.478 OA
ATOM     12  H   LIG     1      13.903  48.339  36.863  0.00  0.00     0.295 HD
ENDBRANCH   9  11
ENDBRANCH   8   9
ENDBRANCH   5   7
BRANCH   1  13
ATOM     13  O   LIG     1      13.518  54.959  35.967  0.00  0.00    -0.491 OA
ATOM     14  C   LIG     1      13.206  55.155  37.345  0.00  0.00     0.277 C 
ENDBRANCH   1  13
BRANCH   2  15
ATOM     15  O   LIG     1      12.026  56.042  33.887  0.00  0.00    -0.503 OA
ATOM     16  H   LIG     1      11.247  56.310  33.369  0.00  0.00     0.292 HD
ENDBRANCH   2  15
TORSDOF 5
ENDMDL
MODEL 6
REMARK VINA RESULT:      -5.2      1.879      2.448
REMARK  5 active torsions:
REMARK  status: ('A' for Active; 'I' for Inactive)
REMARK    1  A    between atoms: C_3  and  O_1 
REMARK    2  A    between atoms: C_4  and  O_14 
REMARK    3  A    between atoms: C_7  and  C_8 
REMARK    4  A    between atoms: C_9  and  C_10 
REMARK    5  A    between atoms: C_10  and  O_12 
ROOT
ATOM      1  C   LIG     1       5.505  44.558  20.199  0.00  0.00     0.162 A 
ATOM      2  C   LIG     1       5.030  45.714  20.821  0.00  0.00     0.158 A 
ATOM      3  C   LIG     1       3.944  45.640  21.693  0.00  0.00     0.050 A 
ATOM      4  C   LIG     1       3.333  44.411  21.944  0.00  0.00     0.012 A 
ATOM      5  C   LIG     1       3.807  43.257  21.323  0.00  0.00    -0.021 A 
ATOM      6  C   LIG     1       4.894  43.329  20.450  0.00  0.00     0.057 A 
ENDROOT
BRANCH   5   7
ATOM      7  C   LIG     1       3.171  41.976  21.585  0.00  0.00     0.015 C 
ATOM      8  C   LIG     1       2.557  41.629  22.738  0.00  0.00     0.092 C 
BRANCH   8   9
ATOM      9  C   LIG     1       1.938  40.296  22.876  0.00  0.00     0.330 C 
ATOM     10  O   LIG     1       1.780  39.475  21.988  0.00  0.00    -0.246 OA
BRANCH   9  11
ATOM     11  O   LIG     1       1.567  40.121  24.166  0.00  0.00    -0.478 OA
ATOM     12  H   LIG     1       0.881  39.426  24.260  0.00  0.00     0.295 HD
ENDBRANCH   9  11
ENDBRANCH   8   9
ENDBRANCH   5   7
BRANCH   1  13
ATOM     13  O   LIG     1       6.564  44.618  19.345  0.00  0.00    -0.491 OA
ATOM     14  C   LIG     1       6.285  44.460  17.955  0.00  0.00     0.277 C 
ENDBRANCH   1  13
BRANCH   2  15
ATOM     15  O   LIG     1       5.617  46.919  20.583  0.00  0.00    -0.503 OA
ATOM     16  H   LIG     1       6.274  46.817  19.872  0.00  0.00     0.292 HD
ENDBRANCH   2  15
TORSDOF 5
ENDMDL
MODEL 7
REMARK VINA RESULT:      -5.2      1.540      6.077
REMARK  5 active torsions:
REMARK  status: ('A' for Active; 'I' for Inactive)
REMARK    1  A    between atoms: C_3  and  O_1 
REMARK    2  A    between atoms: C_4  and  O_14 
REMARK    3  A    between atoms: C_7  and  C_8 
REMARK    4  A    between atoms: C_9  and  C_10 
REMARK    5  A    between atoms: C_10  and  O_12 
ROOT
ATOM      1  C   LIG     1       3.509  42.928  22.590  0.00  0.00     0.162 A 
ATOM      2  C   LIG     1       2.475  42.451  21.784  0.00  0.00     0.158 A 
ATOM      3  C   LIG     1       2.605  42.476  20.396  0.00  0.00     0.050 A 
ATOM      4  C   LIG     1       3.769  42.979  19.813  0.00  0.00     0.012 A 
ATOM      5  C   LIG     1       4.802  43.456  20.619  0.00  0.00    -0.021 A 
ATOM      6  C   LIG     1       4.673  43.430  22.008  0.00  0.00     0.057 A 
ENDROOT
BRANCH   5   7
ATOM      7  C   LIG     1       6.016  43.978  20.012  0.00  0.00     0.015 C 
ATOM      8  C   LIG     1       6.061  44.878  19.004  0.00  0.00     0.092 C 
BRANCH   8   9
ATOM      9  C   LIG     1       7.363  45.338  18.481  0.00  0.00     0.330 C 
ATOM     10  O   LIG     1       8.268  44.633  18.067  0.00  0.00    -0.246 OA
BRANCH   9  11
ATOM     11  O   LIG     1       7.396  46.691  18.530  0.00  0.00    -0.478 OA
ATOM     12  H   LIG     1       8.313  47.033  18.586  0.00  0.00     0.295 HD
ENDBRANCH   9  11
ENDBRANCH   8   9
ENDBRANCH   5   7
BRANCH   1  13
ATOM     13  O   LIG     1       3.392  42.909  23.948  0.00  0.00    -0.491 OA
ATOM     14  C   LIG     1       4.242  43.788  24.682  0.00  0.00     0.277 C 
ENDBRANCH   1  13
BRANCH   2  15
ATOM     15  O   LIG     1       1.333  41.959  22.341  0.00  0.00    -0.503 OA
ATOM     16  H   LIG     1       1.365  40.986  22.320  0.00  0.00     0.292 HD
ENDBRANCH   2  15
TORSDOF 5
ENDMDL
MODEL 8
REMARK VINA RESULT:      -5.0     11.552     15.640
REMARK  5 active torsions:
REMARK  status: ('A' for Active; 'I' for Inactive)
REMARK    1  A    between atoms: C_3  and  O_1 
REMARK    2  A    between atoms: C_4  and  O_14 
REMARK    3  A    between atoms: C_7  and  C_8 
REMARK    4  A    between atoms: C_9  and  C_10 
REMARK    5  A    between atoms: C_10  and  O_12 
ROOT
ATOM      1  C   LIG     1      -8.111  37.499  26.432  0.00  0.00     0.162 A 
ATOM      2  C   LIG     1      -9.007  37.896  25.439  0.00  0.00     0.158 A 
ATOM      3  C   LIG     1      -8.566  38.051  24.125  0.00  0.00     0.050 A 
ATOM      4  C   LIG     1      -7.230  37.809  23.803  0.00  0.00     0.012 A 
ATOM      5  C   LIG     1      -6.335  37.413  24.796  0.00  0.00    -0.021 A 
ATOM      6  C   LIG     1      -6.774  37.258  26.111  0.00  0.00     0.057 A 
ENDROOT
BRANCH   5   7
ATOM      7  C   LIG     1      -4.943  37.161  24.461  0.00  0.00     0.015 C 
ATOM      8  C   LIG     1      -3.906  37.975  24.760  0.00  0.00     0.092 C 
BRANCH   8   9
ATOM      9  C   LIG     1      -2.533  37.598  24.372  0.00  0.00     0.330 C 
ATOM     10  O   LIG     1      -1.738  36.961  25.043  0.00  0.00    -0.246 OA
BRANCH   9  11
ATOM     11  O   LIG     1      -2.286  38.078  23.130  0.00  0.00    -0.478 OA
ATOM     12  H   LIG     1      -1.661  37.508  22.634  0.00  0.00     0.295 HD
ENDBRANCH   9  11
ENDBRANCH   8   9
ENDBRANCH   5   7
BRANCH   1  13
ATOM     13  O   LIG     1      -8.529  37.346  27.720  0.00  0.00    -0.491 OA
ATOM     14  C   LIG     1      -8.833  36.019  28.148  0.00  0.00     0.277 C 
ENDBRANCH   1  13
BRANCH   2  15
ATOM     15  O   LIG     1     -10.313  38.135  25.741  0.00  0.00    -0.503 OA
ATOM     16  H   LIG     1     -10.418  38.143  26.708  0.00  0.00     0.292 HD
ENDBRANCH   2  15
TORSDOF 5
ENDMDL
MODEL 9
REMARK VINA RESULT:      -5.0      1.897      2.976
REMARK  5 active torsions:
REMARK  status: ('A' for Active; 'I' for Inactive)
REMARK    1  A    between atoms: C_3  and  O_1 
REMARK    2  A    between atoms: C_4  and  O_14 
REMARK    3  A    between atoms: C_7  and  C_8 
REMARK    4  A    between atoms: C_9  and  C_10 
REMARK    5  A    between atoms: C_10  and  O_12 
ROOT
ATOM      1  C   LIG     1       5.614  45.285  19.758  0.00  0.00     0.162 A 
ATOM      2  C   LIG     1       5.416  44.421  18.680  0.00  0.00     0.158 A 
ATOM      3  C   LIG     1       4.827  43.174  18.885  0.00  0.00     0.050 A 
ATOM      4  C   LIG     1       4.435  42.790  20.168  0.00  0.00     0.012 A 
ATOM      5  C   LIG     1       4.632  43.653  21.244  0.00  0.00    -0.021 A 
ATOM      6  C   LIG     1       5.222  44.901  21.040  0.00  0.00     0.057 A 
ENDROOT
BRANCH   5   7
ATOM      7  C   LIG     1       4.222  43.254  22.581  0.00  0.00     0.015 C 
ATOM      8  C   LIG     1       3.299  42.308  22.867  0.00  0.00     0.092 C 
BRANCH   8   9
ATOM      9  C   LIG     1       2.978  41.986  24.271  0.00  0.00     0.330 C 
ATOM     10  O   LIG     1       3.439  42.528  25.262  0.00  0.00    -0.246 OA
BRANCH   9  11
ATOM     11  O   LIG     1       2.074  40.979  24.290  0.00  0.00    -0.478 OA
ATOM     12  H   LIG     1       1.223  41.242  23.879  0.00  0.00     0.295 HD
ENDBRANCH   9  11
ENDBRANCH   8   9
ENDBRANCH   5   7
BRANCH   1  13
ATOM     13  O   LIG     1       6.190  46.506  19.570  0.00  0.00    -0.491 OA
ATOM     14  C   LIG     1       5.398  47.650  19.883  0.00  0.00     0.277 C 
ENDBRANCH   1  13
BRANCH   2  15
ATOM     15  O   LIG     1       5.796  44.785  17.423  0.00  0.00    -0.503 OA
ATOM     16  H   LIG     1       5.293  44.260  16.776  0.00  0.00     0.292 HD
ENDBRANCH   2  15
TORSDOF 5
ENDMDL
