MODEL 1
REMARK VINA RESULT:    -6.115      0.000      0.000
REMARK INTER + INTRA:          -7.750
REMARK INTER:                  -7.565
REMARK INTRA:                  -0.185
REMARK UNBOUND:                -0.205
REMARK  5 active torsions:
REMARK  status: ('A' for Active; 'I' for Inactive)
REMARK    1  A    between atoms: C_3  and  O_1 
REMARK    2  A    between atoms: C_4  and  O_14 
REMARK    3  A    between atoms: C_7  and  C_8 
REMARK    4  A    between atoms: C_9  and  C_10 
REMARK    5  A    between atoms: C_10  and  O_12 
ROOT
ATOM      1  C   LIG     1       6.505  45.583  19.186  0.00  0.00     0.162 A 
ATOM      2  C   LIG     1       6.341  46.911  19.581  0.00  0.00     0.158 A 
ATOM      3  C   LIG     1       5.383  47.240  20.539  0.00  0.00     0.050 A 
ATOM      4  C   LIG     1       4.589  46.241  21.103  0.00  0.00     0.012 A 
ATOM      5  C   LIG     1       4.753  44.914  20.709  0.00  0.00    -0.021 A 
ATOM      6  C   LIG     1       5.711  44.584  19.750  0.00  0.00     0.057 A 
ENDROOT
BRANCH   5   7
ATOM      7  C   LIG     1       3.927  43.873  21.297  0.00  0.00     0.015 C 
ATOM      8  C   LIG     1       3.098  43.052  20.614  0.00  0.00     0.092 C 
BRANCH   8   9
ATOM      9  C   LIG     1       2.317  42.024  21.330  0.00  0.00     0.330 C 
ATOM     10  O   LIG     1       2.686  40.895  21.607  0.00  0.00    -0.246 OA
BRANCH   9  11
ATOM     11  O   LIG     1       1.103  42.539  21.639  0.00  0.00    -0.478 OA
ATOM     12  H   LIG     1       0.478  41.847  21.942  0.00  0.00     0.295 HD
ENDBRANCH   9  11
ENDBRANCH   8   9
ENDBRANCH   5   7
BRANCH   1  13
ATOM     13  O   LIG     1       7.437  45.250  18.249  0.00  0.00    -0.491 OA
ATOM     14  C   LIG     1       8.707  44.810  18.727  0.00  0.00     0.277 C 
ENDBRANCH   1  13
BRANCH   2  15
ATOM     15  O   LIG     1       7.110  47.895  19.036  0.00  0.00    -0.503 OA
ATOM     16  H   LIG     1       7.610  47.528  18.286  0.00  0.00     0.292 HD
ENDBRANCH   2  15
TORSDOF 5
ENDMDL
MODEL 2
REMARK VINA RESULT:    -5.939      2.038      6.370
REMARK INTER + INTRA:          -7.534
REMARK INTER:                  -7.334
REMARK INTRA:                  -0.199
REMARK UNBOUND:                -0.205
REMARK  5 active torsions:
REMARK  status: ('A' for Active; 'I' for Inactive)
REMARK    1  A    between atoms: C_3  and  O_1 
REMARK    2  A    between atoms: C_4  and  O_14 
REMARK    3  A    between atoms: C_7  and  C_8 
REMARK    4  A    between atoms: C_9  and  C_10 
REMARK    5  A    between atoms: C_10  and  O_12 
ROOT
ATOM      1  C   LIG     1       3.040  42.390  23.526  0.00  0.00     0.162 A 
ATOM      2  C   LIG     1       2.211  41.815  22.562  0.00  0.00     0.158 A 
ATOM      3  C   LIG     1       2.089  42.407  21.305  0.00  0.00     0.050 A 
ATOM      4  C   LIG     1       2.795  43.574  21.012  0.00  0.00     0.012 A 
ATOM      5  C   LIG     1       3.623  44.148  21.976  0.00  0.00    -0.021 A 
ATOM      6  C   LIG     1       3.746  43.557  23.233  0.00  0.00     0.057 A 
ENDROOT
BRANCH   5   7
ATOM      7  C   LIG     1       4.360  45.364  21.670  0.00  0.00     0.015 C 
ATOM      8  C   LIG     1       4.913  45.664  20.474  0.00  0.00     0.092 C 
BRANCH   8   9
ATOM      9  C   LIG     1       5.630  46.941  20.288  0.00  0.00     0.330 C 
ATOM     10  O   LIG     1       5.138  48.006  19.955  0.00  0.00    -0.246 OA
BRANCH   9  11
ATOM     11  O   LIG     1       6.943  46.743  20.550  0.00  0.00    -0.478 OA
ATOM     12  H   LIG     1       7.138  46.796  21.510  0.00  0.00     0.295 HD
ENDBRANCH   9  11
ENDBRANCH   8   9
ENDBRANCH   5   7
BRANCH   1  13
ATOM     13  O   LIG     1       3.167  41.821  24.758  0.00  0.00    -0.491 OA
ATOM     14  C   LIG     1       3.848  42.580  25.755  0.00  0.00     0.277 C 
ENDBRANCH   1  13
BRANCH   2  15
ATOM     15  O   LIG     1       1.516  40.676  22.837  0.00  0.00    -0.503 OA
ATOM     16  H   LIG     1       1.593  40.480  23.786  0.00  0.00     0.292 HD
ENDBRANCH   2  15
TORSDOF 5
ENDMDL
MODEL 3
REMARK VINA RESULT:    -5.886      2.229      6.341
REMARK INTER + INTRA:          -7.468
REMARK INTER:                  -7.250
REMARK INTRA:                  -0.217
REMARK UNBOUND:                -0.205
REMARK  5 active torsions:
REMARK  status: ('A' for Active; 'I' for Inactive)
REMARK    1  A    between atoms: C_3  and  O_1 
REMARK    2  A    between atoms: C_4  and  O_14 
REMARK    3  A    between atoms: C_7  and  C_8 
REMARK    4  A    between atoms: C_9  and  C_10 
REMARK    5  A    between atoms: C_10  and  O_12 
ROOT
ATOM      1  C   LIG     1       2.514  41.907  23.105  0.00  0.00     0.162 A 
ATOM      2  C   LIG     1       3.023  42.088  24.391  0.00  0.00     0.158 A 
ATOM      3  C   LIG     1       3.872  43.161  24.661  0.00  0.00     0.050 A 
ATOM      4  C   LIG     1       4.213  44.054  23.644  0.00  0.00     0.012 A 
ATOM      5  C   LIG     1       3.705  43.873  22.359  0.00  0.00    -0.021 A 
ATOM      6  C   LIG     1       2.855  42.800  22.088  0.00  0.00     0.057 A 
ENDROOT
BRANCH   5   7
ATOM      7  C   LIG     1       4.059  44.804  21.299  0.00  0.00     0.015 C 
ATOM      8  C   LIG     1       4.880  45.869  21.436  0.00  0.00     0.092 C 
BRANCH   8   9
ATOM      9  C   LIG     1       5.169  46.735  20.277  0.00  0.00     0.330 C 
ATOM     10  O   LIG     1       5.418  46.367  19.140  0.00  0.00    -0.246 OA
BRANCH   9  11
ATOM     11  O   LIG     1       5.114  48.028  20.675  0.00  0.00    -0.478 OA
ATOM     12  H   LIG     1       5.576  48.625  20.050  0.00  0.00     0.295 HD
ENDBRANCH   9  11
ENDBRANCH   8   9
ENDBRANCH   5   7
BRANCH   1  13
ATOM     13  O   LIG     1       1.685  40.862  22.829  0.00  0.00    -0.491 OA
ATOM     14  C   LIG     1       2.263  39.729  22.184  0.00  0.00     0.277 C 
ENDBRANCH   1  13
BRANCH   2  15
ATOM     15  O   LIG     1       2.698  41.223  25.392  0.00  0.00    -0.503 OA
ATOM     16  H   LIG     1       2.369  40.395  25.000  0.00  0.00     0.292 HD
ENDBRANCH   2  15
TORSDOF 5
ENDMDL
MODEL 4
REMARK VINA RESULT:    -5.558      2.085      2.201
REMARK INTER + INTRA:          -7.063
REMARK INTER:                  -6.867
REMARK INTRA:                  -0.196
REMARK UNBOUND:                -0.205
REMARK  5 active torsions:
REMARK  status: ('A' for Active; 'I' for Inactive)
REMARK    1  A    between atoms: C_3  and  O_1 
REMARK    2  A    between atoms: C_4  and  O_14 
REMARK    3  A    between atoms: C_7  and  C_8 
REMARK    4  A    between atoms: C_9  and  C_10 
REMARK    5  A    between atoms: C_10  and  O_12 
ROOT
ATOM      1  C   LIG     1       7.236  45.398  21.548  0.00  0.00     0.162 A 
ATOM      2  C   LIG     1       7.237  46.268  20.457  0.00  0.00     0.158 A 
ATOM      3  C   LIG     1       6.054  46.515  19.762  0.00  0.00     0.050 A 
ATOM      4  C   LIG     1       4.870  45.892  20.156  0.00  0.00     0.012 A 
ATOM      5  C   LIG     1       4.869  45.023  21.245  0.00  0.00    -0.021 A 
ATOM      6  C   LIG     1       6.052  44.775  21.942  0.00  0.00     0.057 A 
ENDROOT
BRANCH   5   7
ATOM      7  C   LIG     1       3.634  44.374  21.657  0.00  0.00     0.015 C 
ATOM      8  C   LIG     1       3.398  43.044  21.617  0.00  0.00     0.092 C 
BRANCH   8   9
ATOM      9  C   LIG     1       2.101  42.507  22.075  0.00  0.00     0.330 C 
ATOM     10  O   LIG     1       1.888  41.922  23.124  0.00  0.00    -0.246 OA
BRANCH   9  11
ATOM     11  O   LIG     1       1.166  42.772  21.133  0.00  0.00    -0.478 OA
ATOM     12  H   LIG     1       1.064  43.734  20.976  0.00  0.00     0.295 HD
ENDBRANCH   9  11
ENDBRANCH   8   9
ENDBRANCH   5   7
BRANCH   1  13
ATOM     13  O   LIG     1       8.386  45.149  22.235  0.00  0.00    -0.491 OA
ATOM     14  C   LIG     1       8.391  45.467  23.626  0.00  0.00     0.277 C 
ENDBRANCH   1  13
BRANCH   2  15
ATOM     15  O   LIG     1       8.388  46.882  20.062  0.00  0.00    -0.503 OA
ATOM     16  H   LIG     1       8.855  47.215  20.848  0.00  0.00     0.292 HD
ENDBRANCH   2  15
TORSDOF 5
ENDMDL
MODEL 5
REMARK VINA RESULT:    -5.465     26.706     27.757
REMARK INTER + INTRA:          -6.948
REMARK INTER:                  -6.736
REMARK INTRA:                  -0.212
REMARK UNBOUND:                -0.205
REMARK  5 active torsions:
REMARK  status: ('A' for Active; 'I' for Inactive)
REMARK    1  A    between atoms: C_3  and  O_1 
REMARK    2  A    between atoms: C_4  and  O_14 
REMARK    3  A    between atoms: C_7  and  C_8 
REMARK    4  A    between atoms: C_9  and  C_10 
REMARK    5  A    between atoms: C_10  and  O_12 
ROOT
ATOM      1  C   LIG     1      14.052  68.029   8.062  0.00  0.00     0.162 A 
ATOM      2  C   LIG     1      13.573  68.776   9.138  0.00  0.00     0.158 A 
ATOM      3  C   LIG     1      14.310  68.847  10.320  0.00  0.00     0.050 A 
ATOM      4  C   LIG     1      15.525  68.170  10.427  0.00  0.00     0.012 A 
ATOM      5  C   LIG     1      16.003  67.423   9.352  0.00  0.00    -0.021 A 
ATOM      6  C   LIG     1      15.268  67.352   8.169  0.00  0.00     0.057 A 
ENDROOT
BRANCH   5   7
ATOM      7  C   LIG     1      17.271  66.719   9.462  0.00  0.00     0.015 C 
ATOM      8  C   LIG     1      17.627  65.904  10.481  0.00  0.00     0.092 C 
BRANCH   8   9
ATOM      9  C   LIG     1      18.944  65.237  10.471  0.00  0.00     0.330 C 
ATOM     10  O   LIG     1      19.844  65.399  11.278  0.00  0.00    -0.246 OA
BRANCH   9  11
ATOM     11  O   LIG     1      18.999  64.402   9.407  0.00  0.00    -0.478 OA
ATOM     12  H   LIG     1      18.822  63.471   9.661  0.00  0.00     0.295 HD
ENDBRANCH   9  11
ENDBRANCH   8   9
ENDBRANCH   5   7
BRANCH   1  13
ATOM     13  O   LIG     1      13.341  67.951   6.902  0.00  0.00    -0.491 OA
ATOM     14  C   LIG     1      13.895  68.601   5.759  0.00  0.00     0.277 C 
ENDBRANCH   1  13
BRANCH   2  15
ATOM     15  O   LIG     1      12.387  69.440   9.047  0.00  0.00    -0.503 OA
ATOM     16  H   LIG     1      12.263  69.978   9.848  0.00  0.00     0.292 HD
ENDBRANCH   2  15
TORSDOF 5
ENDMDL
MODEL 6
REMARK VINA RESULT:    -5.271      1.921      2.161
REMARK INTER + INTRA:          -6.709
REMARK INTER:                  -6.507
REMARK INTRA:                  -0.202
REMARK UNBOUND:                -0.205
REMARK  5 active torsions:
REMARK  status: ('A' for Active; 'I' for Inactive)
REMARK    1  A    between atoms: C_3  and  O_1 
REMARK    2  A    between atoms: C_4  and  O_14 
REMARK    3  A    between atoms: C_7  and  C_8 
REMARK    4  A    between atoms: C_9  and  C_10 
REMARK    5  A    between atoms: C_10  and  O_12 
ROOT
ATOM      1  C   LIG     1       7.404  44.461  19.657  0.00  0.00     0.162 A 
ATOM      2  C   LIG     1       7.033  44.865  18.374  0.00  0.00     0.158 A 
ATOM      3  C   LIG     1       5.751  44.589  17.900  0.00  0.00     0.050 A 
ATOM      4  C   LIG     1       4.839  43.909  18.708  0.00  0.00     0.012 A 
ATOM      5  C   LIG     1       5.210  43.505  19.989  0.00  0.00    -0.021 A 
ATOM      6  C   LIG     1       6.492  43.781  20.465  0.00  0.00     0.057 A 
ENDROOT
BRANCH   5   7
ATOM      7  C   LIG     1       4.260  42.798  20.832  0.00  0.00     0.015 C 
ATOM      8  C   LIG     1       3.149  43.337  21.382  0.00  0.00     0.092 C 
BRANCH   8   9
ATOM      9  C   LIG     1       2.256  42.507  22.214  0.00  0.00     0.330 C 
ATOM     10  O   LIG     1       2.554  41.933  23.248  0.00  0.00    -0.246 OA
BRANCH   9  11
ATOM     11  O   LIG     1       1.029  42.480  21.641  0.00  0.00    -0.478 OA
ATOM     12  H   LIG     1       1.050  42.803  20.715  0.00  0.00     0.295 HD
ENDBRANCH   9  11
ENDBRANCH   8   9
ENDBRANCH   5   7
BRANCH   1  13
ATOM     13  O   LIG     1       8.654  44.723  20.131  0.00  0.00    -0.491 OA
ATOM     14  C   LIG     1       8.781  45.794  21.065  0.00  0.00     0.277 C 
ENDBRANCH   1  13
BRANCH   2  15
ATOM     15  O   LIG     1       7.915  45.528  17.575  0.00  0.00    -0.503 OA
ATOM     16  H   LIG     1       8.503  44.881  17.147  0.00  0.00     0.292 HD
ENDBRANCH   2  15
TORSDOF 5
ENDMDL
MODEL 7
REMARK VINA RESULT:    -5.187      2.366      3.205
REMARK INTER + INTRA:          -6.605
REMARK INTER:                  -6.406
REMARK INTRA:                  -0.199
REMARK UNBOUND:                -0.205
REMARK  5 active torsions:
REMARK  status: ('A' for Active; 'I' for Inactive)
REMARK    1  A    between atoms: C_3  and  O_1 
REMARK    2  A    between atoms: C_4  and  O_14 
REMARK    3  A    between atoms: C_7  and  C_8 
REMARK    4  A    between atoms: C_9  and  C_10 
REMARK    5  A    between atoms: C_10  and  O_12 
ROOT
ATOM      1  C   LIG     1       4.568  44.429  20.617  0.00  0.00     0.162 A 
ATOM      2  C   LIG     1       5.023  45.055  21.778  0.00  0.00     0.158 A 
ATOM      3  C   LIG     1       4.665  44.551  23.028  0.00  0.00     0.050 A 
ATOM      4  C   LIG     1       3.851  43.421  23.118  0.00  0.00     0.012 A 
ATOM      5  C   LIG     1       3.396  42.796  21.958  0.00  0.00    -0.021 A 
ATOM      6  C   LIG     1       3.754  43.299  20.707  0.00  0.00     0.057 A 
ENDROOT
BRANCH   5   7
ATOM      7  C   LIG     1       2.548  41.619  22.052  0.00  0.00     0.015 C 
ATOM      8  C   LIG     1       2.972  40.371  22.356  0.00  0.00     0.092 C 
BRANCH   8   9
ATOM      9  C   LIG     1       2.007  39.258  22.430  0.00  0.00     0.330 C 
ATOM     10  O   LIG     1       0.984  39.228  23.094  0.00  0.00    -0.246 OA
BRANCH   9  11
ATOM     11  O   LIG     1       2.438  38.255  21.630  0.00  0.00    -0.478 OA
ATOM     12  H   LIG     1       1.783  37.528  21.565  0.00  0.00     0.295 HD
ENDBRANCH   9  11
ENDBRANCH   8   9
ENDBRANCH   5   7
BRANCH   1  13
ATOM     13  O   LIG     1       4.910  44.913  19.390  0.00  0.00    -0.491 OA
ATOM     14  C   LIG     1       5.427  43.976  18.447  0.00  0.00     0.277 C 
ENDBRANCH   1  13
BRANCH   2  15
ATOM     15  O   LIG     1       5.818  46.159  21.703  0.00  0.00    -0.503 OA
ATOM     16  H   LIG     1       5.696  46.578  20.833  0.00  0.00     0.292 HD
ENDBRANCH   2  15
TORSDOF 5
ENDMDL
MODEL 8
REMARK VINA RESULT:    -5.182     22.026     24.929
REMARK INTER + INTRA:          -6.599
REMARK INTER:                  -6.396
REMARK INTRA:                  -0.203
REMARK UNBOUND:                -0.205
REMARK  5 active torsions:
REMARK  status: ('A' for Active; 'I' for Inactive)
REMARK    1  A    between atoms: C_3  and  O_1 
REMARK    2  A    between atoms: C_4  and  O_14 
REMARK    3  A    between atoms: C_7  and  C_8 
REMARK    4  A    between atoms: C_9  and  C_10 
REMARK    5  A    between atoms: C_10  and  O_12 
ROOT
ATOM      1  C   LIG     1      25.591  50.817  13.555  0.00  0.00     0.162 A 
ATOM      2  C   LIG     1      24.813  50.563  12.425  0.00  0.00     0.158 A 
ATOM      3  C   LIG     1      24.927  51.382  11.302  0.00  0.00     0.050 A 
ATOM      4  C   LIG     1      25.819  52.455  11.308  0.00  0.00     0.012 A 
ATOM      5  C   LIG     1      26.596  52.708  12.437  0.00  0.00    -0.021 A 
ATOM      6  C   LIG     1      26.483  51.890  13.561  0.00  0.00     0.057 A 
ENDROOT
BRANCH   5   7
ATOM      7  C   LIG     1      27.527  53.826  12.443  0.00  0.00     0.015 C 
ATOM      8  C   LIG     1      28.672  53.886  13.158  0.00  0.00     0.092 C 
BRANCH   8   9
ATOM      9  C   LIG     1      29.539  55.078  13.069  0.00  0.00     0.330 C 
ATOM     10  O   LIG     1      30.410  55.281  12.239  0.00  0.00    -0.246 OA
BRANCH   9  11
ATOM     11  O   LIG     1      29.212  55.929  14.070  0.00  0.00    -0.478 OA
ATOM     12  H   LIG     1      28.563  55.533  14.690  0.00  0.00     0.295 HD
ENDBRANCH   9  11
ENDBRANCH   8   9
ENDBRANCH   5   7
BRANCH   1  13
ATOM     13  O   LIG     1      25.488  50.025  14.659  0.00  0.00    -0.491 OA
ATOM     14  C   LIG     1      26.497  49.034  14.841  0.00  0.00     0.277 C 
ENDBRANCH   1  13
BRANCH   2  15
ATOM     15  O   LIG     1      23.938  49.519  12.407  0.00  0.00    -0.503 OA
ATOM     16  H   LIG     1      24.226  48.876  11.737  0.00  0.00     0.292 HD
ENDBRANCH   2  15
TORSDOF 5
ENDMDL
MODEL 9
REMARK VINA RESULT:    -5.140     17.155     18.585
REMARK INTER + INTRA:          -6.547
REMARK INTER:                  -6.342
REMARK INTRA:                  -0.205
REMARK UNBOUND:                -0.205
REMARK  5 active torsions:
REMARK  status: ('A' for Active; 'I' for Inactive)
REMARK    1  A    between atoms: C_3  and  O_1 
REMARK    2  A    between atoms: C_4  and  O_14 
REMARK    3  A    between atoms: C_7  and  C_8 
REMARK    4  A    between atoms: C_9  and  C_10 
REMARK    5  A    between atoms: C_10  and  O_12 
ROOT
ATOM      1  C   LIG     1      12.680  48.967  35.772  0.00  0.00     0.162 A 
ATOM      2  C   LIG     1      13.040  48.967  37.120  0.00  0.00     0.158 A 
ATOM      3  C   LIG     1      13.075  50.166  37.831  0.00  0.00     0.050 A 
ATOM      4  C   LIG     1      12.750  51.365  37.195  0.00  0.00     0.012 A 
ATOM      5  C   LIG     1      12.390  51.364  35.849  0.00  0.00    -0.021 A 
ATOM      6  C   LIG     1      12.354  50.165  35.136  0.00  0.00     0.057 A 
ENDROOT
BRANCH   5   7
ATOM      7  C   LIG     1      12.050  52.613  35.186  0.00  0.00     0.015 C 
ATOM      8  C   LIG     1      11.447  52.720  33.981  0.00  0.00     0.092 C 
BRANCH   8   9
ATOM      9  C   LIG     1      11.146  54.052  33.419  0.00  0.00     0.330 C 
ATOM     10  O   LIG     1      10.291  54.828  33.814  0.00  0.00    -0.246 OA
BRANCH   9  11
ATOM     11  O   LIG     1      11.981  54.285  32.380  0.00  0.00    -0.478 OA
ATOM     12  H   LIG     1      11.901  55.202  32.043  0.00  0.00     0.295 HD
ENDBRANCH   9  11
ENDBRANCH   8   9
ENDBRANCH   5   7
BRANCH   1  13
ATOM     13  O   LIG     1      12.643  47.802  35.066  0.00  0.00    -0.491 OA
ATOM     14  C   LIG     1      11.355  47.270  34.761  0.00  0.00     0.277 C 
ENDBRANCH   1  13
BRANCH   2  15
ATOM     15  O   LIG     1      13.361  47.804  37.751  0.00  0.00    -0.503 OA
ATOM     16  H   LIG     1      14.098  47.379  37.278  0.00  0.00     0.292 HD
ENDBRANCH   2  15
TORSDOF 5
ENDMDL
