MODEL 1
REMARK VINA RESULT:      -6.2      0.000      0.000
REMARK  5 active torsions:
REMARK  status: ('A' for Active; 'I' for Inactive)
REMARK    1  A    between atoms: C_3  and  O_1 
REMARK    2  A    between atoms: C_4  and  O_14 
REMARK    3  A    between atoms: C_7  and  C_8 
REMARK    4  A    between atoms: C_9  and  C_10 
REMARK    5  A    between atoms: C_10  and  O_12 
ROOT
ATOM      1  C   LIG     1       6.685  45.670  19.159  0.00  0.00     0.162 A 
ATOM      2  C   LIG     1       6.459  47.001  19.511  0.00  0.00     0.158 A 
ATOM      3  C   LIG     1       5.455  47.319  20.425  0.00  0.00     0.050 A 
ATOM      4  C   LIG     1       4.676  46.307  20.987  0.00  0.00     0.012 A 
ATOM      5  C   LIG     1       4.902  44.977  20.634  0.00  0.00    -0.021 A 
ATOM      6  C   LIG     1       5.907  44.658  19.720  0.00  0.00     0.057 A 
ENDROOT
BRANCH   5   7
ATOM      7  C   LIG     1       4.092  43.922  21.221  0.00  0.00     0.015 C 
ATOM      8  C   LIG     1       3.243  43.118  20.542  0.00  0.00     0.092 C 
BRANCH   8   9
ATOM      9  C   LIG     1       2.482  42.073  21.254  0.00  0.00     0.330 C 
ATOM     10  O   LIG     1       2.913  41.001  21.645  0.00  0.00    -0.246 OA
BRANCH   9  11
ATOM     11  O   LIG     1       1.206  42.498  21.412  0.00  0.00    -0.478 OA
ATOM     12  H   LIG     1       1.137  43.475  21.374  0.00  0.00     0.295 HD
ENDBRANCH   9  11
ENDBRANCH   8   9
ENDBRANCH   5   7
BRANCH   1  13
ATOM     13  O   LIG     1       7.662  45.347  18.266  0.00  0.00    -0.491 OA
ATOM     14  C   LIG     1       8.895  44.869  18.801  0.00  0.00     0.277 C 
ENDBRANCH   1  13
BRANCH   2  15
ATOM     15  O   LIG     1       7.212  47.998  18.968  0.00  0.00    -0.503 OA
ATOM     16  H   LIG     1       6.661  48.795  18.875  0.00  0.00     0.292 HD
ENDBRANCH   2  15
TORSDOF 5
ENDMDL
MODEL 2
REMARK VINA RESULT:      -6.1      2.121      6.291
REMARK  5 active torsions:
REMARK  status: ('A' for Active; 'I' for Inactive)
REMARK    1  A    between atoms: C_3  and  O_1 
REMARK    2  A    between atoms: C_4  and  O_14 
REMARK    3  A    between atoms: C_7  and  C_8 
REMARK    4  A    between atoms: C_9  and  C_10 
REMARK    5  A    between atoms: C_10  and  O_12 
ROOT
ATOM      1  C   LIG     1       2.614  42.202  22.932  0.00  0.00     0.162 A 
ATOM      2  C   LIG     1       3.154  42.392  24.205  0.00  0.00     0.158 A 
ATOM      3  C   LIG     1       4.026  43.454  24.440  0.00  0.00     0.050 A 
ATOM      4  C   LIG     1       4.359  44.327  23.404  0.00  0.00     0.012 A 
ATOM      5  C   LIG     1       3.820  44.137  22.133  0.00  0.00    -0.021 A 
ATOM      6  C   LIG     1       2.947  43.076  21.896  0.00  0.00     0.057 A 
ENDROOT
BRANCH   5   7
ATOM      7  C   LIG     1       4.166  45.048  21.053  0.00  0.00     0.015 C 
ATOM      8  C   LIG     1       4.953  46.140  21.173  0.00  0.00     0.092 C 
BRANCH   8   9
ATOM      9  C   LIG     1       5.238  46.981  19.994  0.00  0.00     0.330 C 
ATOM     10  O   LIG     1       5.356  48.196  19.981  0.00  0.00    -0.246 OA
BRANCH   9  11
ATOM     11  O   LIG     1       5.352  46.182  18.908  0.00  0.00    -0.478 OA
ATOM     12  H   LIG     1       5.115  45.252  19.110  0.00  0.00     0.295 HD
ENDBRANCH   9  11
ENDBRANCH   8   9
ENDBRANCH   5   7
BRANCH   1  13
ATOM     13  O   LIG     1       1.761  41.168  22.689  0.00  0.00    -0.491 OA
ATOM     14  C   LIG     1       2.311  40.009  22.066  0.00  0.00     0.277 C 
ENDBRANCH   1  13
BRANCH   2  15
ATOM     15  O   LIG     1       2.837  41.545  25.224  0.00  0.00    -0.503 OA
ATOM     16  H   LIG     1       1.872  41.542  25.344  0.00  0.00     0.292 HD
ENDBRANCH   2  15
TORSDOF 5
ENDMDL
MODEL 3
REMARK VINA RESULT:      -5.9      2.210      6.376
REMARK  5 active torsions:
REMARK  status: ('A' for Active; 'I' for Inactive)
REMARK    1  A    between atoms: C_3  and  O_1 
REMARK    2  A    between atoms: C_4  and  O_14 
REMARK    3  A    between atoms: C_7  and  C_8 
REMARK    4  A    between atoms: C_9  and  C_10 
REMARK    5  A    between atoms: C_10  and  O_12 
ROOT
ATOM      1  C   LIG     1       3.156  42.379  23.682  0.00  0.00     0.162 A 
ATOM      2  C   LIG     1       2.200  41.820  22.833  0.00  0.00     0.158 A 
ATOM      3  C   LIG     1       1.926  42.418  21.604  0.00  0.00     0.050 A 
ATOM      4  C   LIG     1       2.606  43.575  21.223  0.00  0.00     0.012 A 
ATOM      5  C   LIG     1       3.560  44.134  22.071  0.00  0.00    -0.021 A 
ATOM      6  C   LIG     1       3.836  43.537  23.301  0.00  0.00     0.057 A 
ENDROOT
BRANCH   5   7
ATOM      7  C   LIG     1       4.270  45.339  21.674  0.00  0.00     0.015 C 
ATOM      8  C   LIG     1       4.952  45.500  20.518  0.00  0.00     0.092 C 
BRANCH   8   9
ATOM      9  C   LIG     1       5.624  46.782  20.227  0.00  0.00     0.330 C 
ATOM     10  O   LIG     1       6.620  46.938  19.539  0.00  0.00    -0.246 OA
BRANCH   9  11
ATOM     11  O   LIG     1       4.952  47.776  20.852  0.00  0.00    -0.478 OA
ATOM     12  H   LIG     1       4.160  47.443  21.325  0.00  0.00     0.295 HD
ENDBRANCH   9  11
ENDBRANCH   8   9
ENDBRANCH   5   7
BRANCH   1  13
ATOM     13  O   LIG     1       3.432  41.805  24.887  0.00  0.00    -0.491 OA
ATOM     14  C   LIG     1       3.980  42.651  25.896  0.00  0.00     0.277 C 
ENDBRANCH   1  13
BRANCH   2  15
ATOM     15  O   LIG     1       1.529  40.691  23.194  0.00  0.00    -0.503 OA
ATOM     16  H   LIG     1       1.687  40.518  24.139  0.00  0.00     0.292 HD
ENDBRANCH   2  15
TORSDOF 5
ENDMDL
MODEL 4
REMARK VINA RESULT:      -5.8      1.309      2.499
REMARK  5 active torsions:
REMARK  status: ('A' for Active; 'I' for Inactive)
REMARK    1  A    between atoms: C_3  and  O_1 
REMARK    2  A    between atoms: C_4  and  O_14 
REMARK    3  A    between atoms: C_7  and  C_8 
REMARK    4  A    between atoms: C_9  and  C_10 
REMARK    5  A    between atoms: C_10  and  O_12 
ROOT
ATOM      1  C   LIG     1       6.058  45.604  19.614  0.00  0.00     0.162 A 
ATOM      2  C   LIG     1       6.575  45.069  18.434  0.00  0.00     0.158 A 
ATOM      3  C   LIG     1       6.180  43.800  18.013  0.00  0.00     0.050 A 
ATOM      4  C   LIG     1       5.269  43.065  18.771  0.00  0.00     0.012 A 
ATOM      5  C   LIG     1       4.753  43.599  19.951  0.00  0.00    -0.021 A 
ATOM      6  C   LIG     1       5.147  44.869  20.373  0.00  0.00     0.057 A 
ENDROOT
BRANCH   5   7
ATOM      7  C   LIG     1       3.802  42.833  20.741  0.00  0.00     0.015 C 
ATOM      8  C   LIG     1       2.937  43.351  21.641  0.00  0.00     0.092 C 
BRANCH   8   9
ATOM      9  C   LIG     1       2.012  42.464  22.375  0.00  0.00     0.330 C 
ATOM     10  O   LIG     1       2.271  41.814  23.374  0.00  0.00    -0.246 OA
BRANCH   9  11
ATOM     11  O   LIG     1       0.808  42.486  21.757  0.00  0.00    -0.478 OA
ATOM     12  H   LIG     1       0.066  42.479  22.398  0.00  0.00     0.295 HD
ENDBRANCH   9  11
ENDBRANCH   8   9
ENDBRANCH   5   7
BRANCH   1  13
ATOM     13  O   LIG     1       6.437  46.843  20.037  0.00  0.00    -0.491 OA
ATOM     14  C   LIG     1       5.520  47.912  19.811  0.00  0.00     0.277 C 
ENDBRANCH   1  13
BRANCH   2  15
ATOM     15  O   LIG     1       7.466  45.777  17.685  0.00  0.00    -0.503 OA
ATOM     16  H   LIG     1       7.116  46.674  17.540  0.00  0.00     0.292 HD
ENDBRANCH   2  15
TORSDOF 5
ENDMDL
MODEL 5
REMARK VINA RESULT:      -5.4      1.251      1.293
REMARK  5 active torsions:
REMARK  status: ('A' for Active; 'I' for Inactive)
REMARK    1  A    between atoms: C_3  and  O_1 
REMARK    2  A    between atoms: C_4  and  O_14 
REMARK    3  A    between atoms: C_7  and  C_8 
REMARK    4  A    between atoms: C_9  and  C_10 
REMARK    5  A    between atoms: C_10  and  O_12 
ROOT
ATOM      1  C   LIG     1       6.589  45.085  19.692  0.00  0.00     0.162 A 
ATOM      2  C   LIG     1       6.469  46.474  19.625  0.00  0.00     0.158 A 
ATOM      3  C   LIG     1       5.410  47.113  20.266  0.00  0.00     0.050 A 
ATOM      4  C   LIG     1       4.469  46.366  20.976  0.00  0.00     0.012 A 
ATOM      5  C   LIG     1       4.590  44.979  21.043  0.00  0.00    -0.021 A 
ATOM      6  C   LIG     1       5.649  44.337  20.402  0.00  0.00     0.057 A 
ENDROOT
BRANCH   5   7
ATOM      7  C   LIG     1       3.610  44.199  21.784  0.00  0.00     0.015 C 
ATOM      8  C   LIG     1       3.843  43.003  22.370  0.00  0.00     0.092 C 
BRANCH   8   9
ATOM      9  C   LIG     1       2.763  42.315  23.104  0.00  0.00     0.330 C 
ATOM     10  O   LIG     1       2.799  41.943  24.265  0.00  0.00    -0.246 OA
BRANCH   9  11
ATOM     11  O   LIG     1       1.705  42.159  22.274  0.00  0.00    -0.478 OA
ATOM     12  H   LIG     1       0.977  42.781  22.487  0.00  0.00     0.295 HD
ENDBRANCH   9  11
ENDBRANCH   8   9
ENDBRANCH   5   7
BRANCH   1  13
ATOM     13  O   LIG     1       7.620  44.448  19.068  0.00  0.00    -0.491 OA
ATOM     14  C   LIG     1       8.539  43.738  19.897  0.00  0.00     0.277 C 
ENDBRANCH   1  13
BRANCH   2  15
ATOM     15  O   LIG     1       7.380  47.214  18.934  0.00  0.00    -0.503 OA
ATOM     16  H   LIG     1       7.982  46.614  18.460  0.00  0.00     0.292 HD
ENDBRANCH   2  15
TORSDOF 5
ENDMDL
MODEL 6
REMARK VINA RESULT:      -5.2     17.369     18.413
REMARK  5 active torsions:
REMARK  status: ('A' for Active; 'I' for Inactive)
REMARK    1  A    between atoms: C_3  and  O_1 
REMARK    2  A    between atoms: C_4  and  O_14 
REMARK    3  A    between atoms: C_7  and  C_8 
REMARK    4  A    between atoms: C_9  and  C_10 
REMARK    5  A    between atoms: C_10  and  O_12 
ROOT
ATOM      1  C   LIG     1      12.647  54.230  35.275  0.00  0.00     0.162 A 
ATOM      2  C   LIG     1      11.948  54.750  34.185  0.00  0.00     0.158 A 
ATOM      3  C   LIG     1      11.126  53.920  33.424  0.00  0.00     0.050 A 
ATOM      4  C   LIG     1      11.002  52.569  33.752  0.00  0.00     0.012 A 
ATOM      5  C   LIG     1      11.701  52.050  34.841  0.00  0.00    -0.021 A 
ATOM      6  C   LIG     1      12.524  52.880  35.603  0.00  0.00     0.057 A 
ENDROOT
BRANCH   5   7
ATOM      7  C   LIG     1      11.572  50.643  35.184  0.00  0.00     0.015 C 
ATOM      8  C   LIG     1      12.599  49.778  35.339  0.00  0.00     0.092 C 
BRANCH   8   9
ATOM      9  C   LIG     1      12.334  48.371  35.699  0.00  0.00     0.330 C 
ATOM     10  O   LIG     1      11.628  47.586  35.087  0.00  0.00    -0.246 OA
BRANCH   9  11
ATOM     11  O   LIG     1      13.010  48.079  36.834  0.00  0.00    -0.478 OA
ATOM     12  H   LIG     1      13.907  48.475  36.840  0.00  0.00     0.295 HD
ENDBRANCH   9  11
ENDBRANCH   8   9
ENDBRANCH   5   7
BRANCH   1  13
ATOM     13  O   LIG     1      13.455  55.032  36.025  0.00  0.00    -0.491 OA
ATOM     14  C   LIG     1      13.082  55.233  37.387  0.00  0.00     0.277 C 
ENDBRANCH   1  13
BRANCH   2  15
ATOM     15  O   LIG     1      12.061  56.067  33.854  0.00  0.00    -0.503 OA
ATOM     16  H   LIG     1      12.415  56.137  32.950  0.00  0.00     0.292 HD
ENDBRANCH   2  15
TORSDOF 5
ENDMDL
MODEL 7
REMARK VINA RESULT:      -5.2      1.815      2.507
REMARK  5 active torsions:
REMARK  status: ('A' for Active; 'I' for Inactive)
REMARK    1  A    between atoms: C_3  and  O_1 
REMARK    2  A    between atoms: C_4  and  O_14 
REMARK    3  A    between atoms: C_7  and  C_8 
REMARK    4  A    between atoms: C_9  and  C_10 
REMARK    5  A    between atoms: C_10  and  O_12 
ROOT
ATOM      1  C   LIG     1       6.297  45.860  20.875  0.00  0.00     0.162 A 
ATOM      2  C   LIG     1       7.275  45.524  21.812  0.00  0.00     0.158 A 
ATOM      3  C   LIG     1       7.032  44.512  22.740  0.00  0.00     0.050 A 
ATOM      4  C   LIG     1       5.812  43.836  22.732  0.00  0.00     0.012 A 
ATOM      5  C   LIG     1       4.835  44.172  21.796  0.00  0.00    -0.021 A 
ATOM      6  C   LIG     1       5.077  45.184  20.867  0.00  0.00     0.057 A 
ENDROOT
BRANCH   5   7
ATOM      7  C   LIG     1       3.563  43.467  21.787  0.00  0.00     0.015 C 
ATOM      8  C   LIG     1       3.412  42.127  21.685  0.00  0.00     0.092 C 
BRANCH   8   9
ATOM      9  C   LIG     1       2.062  41.531  21.698  0.00  0.00     0.330 C 
ATOM     10  O   LIG     1       1.795  40.340  21.706  0.00  0.00    -0.246 OA
BRANCH   9  11
ATOM     11  O   LIG     1       1.147  42.528  21.700  0.00  0.00    -0.478 OA
ATOM     12  H   LIG     1       0.629  42.553  20.867  0.00  0.00     0.295 HD
ENDBRANCH   9  11
ENDBRANCH   8   9
ENDBRANCH   5   7
BRANCH   1  13
ATOM     13  O   LIG     1       6.523  46.848  19.963  0.00  0.00    -0.491 OA
ATOM     14  C   LIG     1       5.476  47.796  19.764  0.00  0.00     0.277 C 
ENDBRANCH   1  13
BRANCH   2  15
ATOM     15  O   LIG     1       8.470  46.178  21.830  0.00  0.00    -0.503 OA
ATOM     16  H   LIG     1       8.398  46.953  22.414  0.00  0.00     0.292 HD
ENDBRANCH   2  15
TORSDOF 5
ENDMDL
MODEL 8
REMARK VINA RESULT:      -5.1     11.565     15.553
REMARK  5 active torsions:
REMARK  status: ('A' for Active; 'I' for Inactive)
REMARK    1  A    between atoms: C_3  and  O_1 
REMARK    2  A    between atoms: C_4  and  O_14 
REMARK    3  A    between atoms: C_7  and  C_8 
REMARK    4  A    between atoms: C_9  and  C_10 
REMARK    5  A    between atoms: C_10  and  O_12 
ROOT
ATOM      1  C   LIG     1      -8.256  37.728  26.236  0.00  0.00     0.162 A 
ATOM      2  C   LIG     1      -9.091  38.045  25.165  0.00  0.00     0.158 A 
ATOM      3  C   LIG     1      -8.588  38.044  23.864  0.00  0.00     0.050 A 
ATOM      4  C   LIG     1      -7.249  37.725  23.634  0.00  0.00     0.012 A 
ATOM      5  C   LIG     1      -6.415  37.407  24.705  0.00  0.00    -0.021 A 
ATOM      6  C   LIG     1      -6.917  37.409  26.006  0.00  0.00     0.057 A 
ENDROOT
BRANCH   5   7
ATOM      7  C   LIG     1      -5.020  37.074  24.465  0.00  0.00     0.015 C 
ATOM      8  C   LIG     1      -3.981  37.934  24.564  0.00  0.00     0.092 C 
BRANCH   8   9
ATOM      9  C   LIG     1      -2.605  37.467  24.304  0.00  0.00     0.330 C 
ATOM     10  O   LIG     1      -1.925  36.771  25.039  0.00  0.00    -0.246 OA
BRANCH   9  11
ATOM     11  O   LIG     1      -2.208  37.939  23.099  0.00  0.00    -0.478 OA
ATOM     12  H   LIG     1      -1.415  38.512  23.173  0.00  0.00     0.295 HD
ENDBRANCH   9  11
ENDBRANCH   8   9
ENDBRANCH   5   7
BRANCH   1  13
ATOM     13  O   LIG     1      -8.735  37.727  27.512  0.00  0.00    -0.491 OA
ATOM     14  C   LIG     1      -9.200  36.481  28.028  0.00  0.00     0.277 C 
ENDBRANCH   1  13
BRANCH   2  15
ATOM     15  O   LIG     1     -10.399  38.360  25.377  0.00  0.00    -0.503 OA
ATOM     16  H   LIG     1     -10.956  37.625  25.065  0.00  0.00     0.292 HD
ENDBRANCH   2  15
TORSDOF 5
ENDMDL
MODEL 9
REMARK VINA RESULT:      -5.1      1.472      5.942
REMARK  5 active torsions:
REMARK  status: ('A' for Active; 'I' for Inactive)
REMARK    1  A    between atoms: C_3  and  O_1 
REMARK    2  A    between atoms: C_4  and  O_14 
REMARK    3  A    between atoms: C_7  and  C_8 
REMARK    4  A    between atoms: C_9  and  C_10 
REMARK    5  A    between atoms: C_10  and  O_12 
ROOT
ATOM      1  C   LIG     1       3.552  43.175  22.377  0.00  0.00     0.162 A 
ATOM      2  C   LIG     1       2.521  42.489  21.734  0.00  0.00     0.158 A 
ATOM      3  C   LIG     1       2.493  42.419  20.342  0.00  0.00     0.050 A 
ATOM      4  C   LIG     1       3.494  43.035  19.592  0.00  0.00     0.012 A 
ATOM      5  C   LIG     1       4.524  43.721  20.234  0.00  0.00    -0.021 A 
ATOM      6  C   LIG     1       4.554  43.791  21.627  0.00  0.00     0.057 A 
ENDROOT
BRANCH   5   7
ATOM      7  C   LIG     1       5.569  44.362  19.452  0.00  0.00     0.015 C 
ATOM      8  C   LIG     1       6.444  45.281  19.919  0.00  0.00     0.092 C 
BRANCH   8   9
ATOM      9  C   LIG     1       7.468  45.852  19.022  0.00  0.00     0.330 C 
ATOM     10  O   LIG     1       8.034  45.275  18.108  0.00  0.00    -0.246 OA
BRANCH   9  11
ATOM     11  O   LIG     1       7.686  47.140  19.377  0.00  0.00    -0.478 OA
ATOM     12  H   LIG     1       8.641  47.332  19.492  0.00  0.00     0.295 HD
ENDBRANCH   9  11
ENDBRANCH   8   9
ENDBRANCH   5   7
BRANCH   1  13
ATOM     13  O   LIG     1       3.590  43.251  23.737  0.00  0.00    -0.491 OA
ATOM     14  C   LIG     1       4.525  44.165  24.308  0.00  0.00     0.277 C 
ENDBRANCH   1  13
BRANCH   2  15
ATOM     15  O   LIG     1       1.537  41.885  22.456  0.00  0.00    -0.503 OA
ATOM     16  H   LIG     1       0.686  42.310  22.250  0.00  0.00     0.292 HD
ENDBRANCH   2  15
TORSDOF 5
ENDMDL
