MODEL 1
REMARK VINA RESULT:      -8.8      0.000      0.000
REMARK  13 active torsions:
REMARK  status: ('A' for Active; 'I' for Inactive)
REMARK    1  A    between atoms: C_2  and  O_12 
REMARK    2  A    between atoms: C_3  and  O_10 
REMARK    3  A    between atoms: C_4  and  O_8 
REMARK    4  A    between atoms: C_5  and  O_6 
REMARK    5  A    between atoms: C_22  and  C_23 
REMARK    6  A    between atoms: O_12  and  C_13 
REMARK    7  A    between atoms: C_13  and  C_14 
REMARK    8  A    between atoms: C_15  and  C_16 
REMARK    9  A    between atoms: C_23  and  O_24 
REMARK   10  A    between atoms: O_24  and  C_25 
REMARK   11  A    between atoms: C_26  and  O_34 
REMARK   12  A    between atoms: C_27  and  O_32 
REMARK   13  A    between atoms: C_28  and  O_30 
ROOT
ATOM      1  O   LIG     1      33.211   7.225  -6.062  0.00  0.00    -0.341 OA
ATOM      2  C   LIG     1      33.854   7.041  -7.321  0.00  0.00     0.282 C 
ATOM      3  C   LIG     1      33.215   5.881  -8.085  0.00  0.00     0.201 C 
ATOM      4  C   LIG     1      31.704   6.065  -8.214  0.00  0.00     0.179 C 
ATOM      5  C   LIG     1      31.072   6.418  -6.869  0.00  0.00     0.177 C 
ATOM      6  C   LIG     1      31.830   7.566  -6.197  0.00  0.00     0.178 C 
ENDROOT
BRANCH   6   7
ATOM      7  C   LIG     1      31.290   7.859  -4.800  0.00  0.00     0.197 C 
BRANCH   7   8
ATOM      8  O   LIG     1      30.975   9.237  -4.719  0.00  0.00    -0.346 OA
BRANCH   8   9
ATOM      9  C   LIG     1      29.585   9.473  -4.914  0.00  0.00     0.281 C 
ATOM     10  O   LIG     1      29.244  10.853  -4.733  0.00  0.00    -0.346 OA
ATOM     11  C   LIG     1      29.402  11.313  -3.393  0.00  0.00     0.197 C 
ATOM     12  C   LIG     1      28.504  10.526  -2.447  0.00  0.00     0.171 C 
ATOM     13  C   LIG     1      28.811   9.030  -2.530  0.00  0.00     0.178 C 
ATOM     14  C   LIG     1      28.764   8.562  -3.988  0.00  0.00     0.201 C 
BRANCH  12  15
ATOM     15  O   LIG     1      28.673  10.980  -1.111  0.00  0.00    -0.387 OA
ATOM     16  H   LIG     1      29.139  11.833  -1.147  0.00  0.00     0.210 HD
ENDBRANCH  12  15
BRANCH  13  17
ATOM     17  O   LIG     1      30.109   8.785  -1.991  0.00  0.00    -0.386 OA
ATOM     18  H   LIG     1      30.549   9.647  -1.884  0.00  0.00     0.210 HD
ENDBRANCH  13  17
BRANCH  14  19
ATOM     19  O   LIG     1      27.413   8.572  -4.444  0.00  0.00    -0.384 OA
ATOM     20  H   LIG     1      26.828   8.645  -3.672  0.00  0.00     0.210 HD
ENDBRANCH  14  19
ENDBRANCH   8   9
ENDBRANCH   7   8
ENDBRANCH   6   7
BRANCH   5  21
ATOM     21  O   LIG     1      29.715   6.804  -7.071  0.00  0.00    -0.386 OA
ATOM     22  H   LIG     1      29.558   7.623  -6.569  0.00  0.00     0.210 HD
ENDBRANCH   5  21
BRANCH   2  23
ATOM     23  O   LIG     1      35.231   6.730  -7.118  0.00  0.00    -0.345 OA
BRANCH  23  24
ATOM     24  C   LIG     1      35.386   5.558  -6.335  0.00  0.00     0.190 C 
BRANCH  24  25
ATOM     25  C   LIG     1      36.675   5.646  -5.584  0.00  0.00     0.001 C 
ATOM     26  C   LIG     1      37.046   6.728  -4.881  0.00  0.00     0.006 C 
BRANCH  26  27
ATOM     27  C   LIG     1      38.298   6.855  -4.116  0.00  0.00    -0.025 A 
ATOM     28  C   LIG     1      38.798   8.117  -3.836  0.00  0.00     0.008 A 
ATOM     29  C   LIG     1      39.983   8.236  -3.111  0.00  0.00     0.001 A 
ATOM     30  C   LIG     1      40.654   7.093  -2.676  0.00  0.00     0.000 A 
ATOM     31  C   LIG     1      40.140   5.830  -2.965  0.00  0.00     0.001 A 
ATOM     32  C   LIG     1      38.954   5.710  -3.691  0.00  0.00     0.008 A 
ENDBRANCH  26  27
ENDBRANCH  24  25
ENDBRANCH  23  24
ENDBRANCH   2  23
BRANCH   4  33
ATOM     33  O   LIG     1      31.114   4.847  -8.673  0.00  0.00    -0.386 OA
ATOM     34  H   LIG     1      31.682   4.118  -8.372  0.00  0.00     0.210 HD
ENDBRANCH   4  33
BRANCH   3  35
ATOM     35  O   LIG     1      33.800   5.827  -9.386  0.00  0.00    -0.384 OA
ATOM     36  H   LIG     1      33.202   5.324  -9.965  0.00  0.00     0.210 HD
ENDBRANCH   3  35
TORSDOF 13
ENDMDL
MODEL 2
REMARK VINA RESULT:      -8.7     17.663     19.999
REMARK  13 active torsions:
REMARK  status: ('A' for Active; 'I' for Inactive)
REMARK    1  A    between atoms: C_2  and  O_12 
REMARK    2  A    between atoms: C_3  and  O_10 
REMARK    3  A    between atoms: C_4  and  O_8 
REMARK    4  A    between atoms: C_5  and  O_6 
REMARK    5  A    between atoms: C_22  and  C_23 
REMARK    6  A    between atoms: O_12  and  C_13 
REMARK    7  A    between atoms: C_13  and  C_14 
REMARK    8  A    between atoms: C_15  and  C_16 
REMARK    9  A    between atoms: C_23  and  O_24 
REMARK   10  A    between atoms: O_24  and  C_25 
REMARK   11  A    between atoms: C_26  and  O_34 
REMARK   12  A    between atoms: C_27  and  O_32 
REMARK   13  A    between atoms: C_28  and  O_30 
ROOT
ATOM      1  O   LIG     1      37.043  -2.291  12.814  0.00  0.00    -0.341 OA
ATOM      2  C   LIG     1      37.990  -2.475  11.765  0.00  0.00     0.282 C 
ATOM      3  C   LIG     1      37.753  -3.811  11.058  0.00  0.00     0.201 C 
ATOM      4  C   LIG     1      36.307  -3.938  10.580  0.00  0.00     0.179 C 
ATOM      5  C   LIG     1      35.322  -3.577  11.691  0.00  0.00     0.177 C 
ATOM      6  C   LIG     1      35.697  -2.241  12.337  0.00  0.00     0.178 C 
ENDROOT
BRANCH   6   7
ATOM      7  C   LIG     1      34.798  -1.915  13.525  0.00  0.00     0.197 C 
BRANCH   7   8
ATOM      8  O   LIG     1      35.434  -0.925  14.313  0.00  0.00    -0.346 OA
BRANCH   8   9
ATOM      9  C   LIG     1      34.569   0.175  14.578  0.00  0.00     0.281 C 
ATOM     10  O   LIG     1      34.667   1.189  13.572  0.00  0.00    -0.346 OA
ATOM     11  C   LIG     1      35.929   1.851  13.544  0.00  0.00     0.197 C 
ATOM     12  C   LIG     1      36.202   2.544  14.873  0.00  0.00     0.171 C 
ATOM     13  C   LIG     1      36.160   1.537  16.024  0.00  0.00     0.178 C 
ATOM     14  C   LIG     1      34.854   0.738  15.979  0.00  0.00     0.201 C 
BRANCH  12  15
ATOM     15  O   LIG     1      37.467   3.191  14.845  0.00  0.00    -0.387 OA
ATOM     16  H   LIG     1      38.099   2.622  15.315  0.00  0.00     0.210 HD
ENDBRANCH  12  15
BRANCH  13  17
ATOM     17  O   LIG     1      37.269   0.646  15.912  0.00  0.00    -0.386 OA
ATOM     18  H   LIG     1      37.576   0.447  16.813  0.00  0.00     0.210 HD
ENDBRANCH  13  17
BRANCH  14  19
ATOM     19  O   LIG     1      33.768   1.588  16.341  0.00  0.00    -0.384 OA
ATOM     20  H   LIG     1      32.974   1.292  15.865  0.00  0.00     0.210 HD
ENDBRANCH  14  19
ENDBRANCH   8   9
ENDBRANCH   7   8
ENDBRANCH   6   7
BRANCH   5  21
ATOM     21  O   LIG     1      34.008  -3.485  11.146  0.00  0.00    -0.386 OA
ATOM     22  H   LIG     1      33.833  -2.549  10.943  0.00  0.00     0.210 HD
ENDBRANCH   5  21
BRANCH   2  23
ATOM     23  O   LIG     1      39.310  -2.491  12.304  0.00  0.00    -0.345 OA
BRANCH  23  24
ATOM     24  C   LIG     1      39.611  -1.274  12.969  0.00  0.00     0.190 C 
BRANCH  24  25
ATOM     25  C   LIG     1      39.270  -0.134  12.064  0.00  0.00     0.001 C 
ATOM     26  C   LIG     1      40.193   0.592  11.414  0.00  0.00     0.006 C 
BRANCH  26  27
ATOM     27  C   LIG     1      39.904   1.713  10.502  0.00  0.00    -0.025 A 
ATOM     28  C   LIG     1      40.813   2.029   9.505  0.00  0.00     0.008 A 
ATOM     29  C   LIG     1      40.538   3.090   8.643  0.00  0.00     0.001 A 
ATOM     30  C   LIG     1      39.360   3.822   8.789  0.00  0.00     0.000 A 
ATOM     31  C   LIG     1      38.455   3.492   9.797  0.00  0.00     0.001 A 
ATOM     32  C   LIG     1      38.729   2.431  10.660  0.00  0.00     0.008 A 
ENDBRANCH  26  27
ENDBRANCH  24  25
ENDBRANCH  23  24
ENDBRANCH   2  23
BRANCH   4  33
ATOM     33  O   LIG     1      36.054  -5.288  10.187  0.00  0.00    -0.386 OA
ATOM     34  H   LIG     1      35.099  -5.445  10.285  0.00  0.00     0.210 HD
ENDBRANCH   4  33
BRANCH   3  35
ATOM     35  O   LIG     1      38.632  -3.885   9.936  0.00  0.00    -0.384 OA
ATOM     36  H   LIG     1      39.496  -3.530  10.207  0.00  0.00     0.210 HD
ENDBRANCH   3  35
TORSDOF 13
ENDMDL
MODEL 3
REMARK VINA RESULT:      -8.5      3.076      9.120
REMARK  13 active torsions:
REMARK  status: ('A' for Active; 'I' for Inactive)
REMARK    1  A    between atoms: C_2  and  O_12 
REMARK    2  A    between atoms: C_3  and  O_10 
REMARK    3  A    between atoms: C_4  and  O_8 
REMARK    4  A    between atoms: C_5  and  O_6 
REMARK    5  A    between atoms: C_22  and  C_23 
REMARK    6  A    between atoms: O_12  and  C_13 
REMARK    7  A    between atoms: C_13  and  C_14 
REMARK    8  A    between atoms: C_15  and  C_16 
REMARK    9  A    between atoms: C_23  and  O_24 
REMARK   10  A    between atoms: O_24  and  C_25 
REMARK   11  A    between atoms: C_26  and  O_34 
REMARK   12  A    between atoms: C_27  and  O_32 
REMARK   13  A    between atoms: C_28  and  O_30 
ROOT
ATOM      1  O   LIG     1      35.293   7.926  -5.461  0.00  0.00    -0.341 OA
ATOM      2  C   LIG     1      33.966   7.567  -5.837  0.00  0.00     0.282 C 
ATOM      3  C   LIG     1      33.981   6.721  -7.111  0.00  0.00     0.201 C 
ATOM      4  C   LIG     1      34.903   5.511  -6.964  0.00  0.00     0.179 C 
ATOM      5  C   LIG     1      36.266   5.918  -6.407  0.00  0.00     0.177 C 
ATOM      6  C   LIG     1      36.105   6.790  -5.160  0.00  0.00     0.178 C 
ENDROOT
BRANCH   6   7
ATOM      7  C   LIG     1      37.448   7.305  -4.652  0.00  0.00     0.197 C 
BRANCH   7   8
ATOM      8  O   LIG     1      38.175   6.215  -4.116  0.00  0.00    -0.346 OA
BRANCH   8   9
ATOM      9  C   LIG     1      38.452   6.395  -2.731  0.00  0.00     0.281 C 
ATOM     10  O   LIG     1      39.235   7.569  -2.489  0.00  0.00    -0.346 OA
ATOM     11  C   LIG     1      40.559   7.496  -3.013  0.00  0.00     0.197 C 
ATOM     12  C   LIG     1      41.323   6.339  -2.381  0.00  0.00     0.171 C 
ATOM     13  C   LIG     1      40.590   5.017  -2.615  0.00  0.00     0.178 C 
ATOM     14  C   LIG     1      39.130   5.137  -2.166  0.00  0.00     0.201 C 
BRANCH  12  15
ATOM     15  O   LIG     1      42.637   6.263  -2.915  0.00  0.00    -0.387 OA
ATOM     16  H   LIG     1      42.650   5.536  -3.562  0.00  0.00     0.210 HD
ENDBRANCH  12  15
BRANCH  13  17
ATOM     17  O   LIG     1      40.637   4.691  -4.003  0.00  0.00    -0.386 OA
ATOM     18  H   LIG     1      40.125   5.367  -4.480  0.00  0.00     0.210 HD
ENDBRANCH  13  17
BRANCH  14  19
ATOM     19  O   LIG     1      39.078   5.210  -0.743  0.00  0.00    -0.384 OA
ATOM     20  H   LIG     1      39.797   5.789  -0.438  0.00  0.00     0.210 HD
ENDBRANCH  14  19
ENDBRANCH   8   9
ENDBRANCH   7   8
ENDBRANCH   6   7
BRANCH   5  21
ATOM     21  O   LIG     1      37.007   4.747  -6.071  0.00  0.00    -0.386 OA
ATOM     22  H   LIG     1      36.659   4.010  -6.602  0.00  0.00     0.210 HD
ENDBRANCH   5  21
BRANCH   2  23
ATOM     23  O   LIG     1      33.203   8.743  -6.098  0.00  0.00    -0.345 OA
BRANCH  23  24
ATOM     24  C   LIG     1      33.250   9.643  -5.003  0.00  0.00     0.190 C 
BRANCH  24  25
ATOM     25  C   LIG     1      31.965   9.547  -4.245  0.00  0.00     0.001 C 
ATOM     26  C   LIG     1      30.792   9.235  -4.819  0.00  0.00     0.006 C 
BRANCH  26  27
ATOM     27  C   LIG     1      29.506   9.115  -4.112  0.00  0.00    -0.025 A 
ATOM     28  C   LIG     1      28.529   8.272  -4.617  0.00  0.00     0.008 A 
ATOM     29  C   LIG     1      27.312   8.159  -3.947  0.00  0.00     0.001 A 
ATOM     30  C   LIG     1      27.086   8.889  -2.780  0.00  0.00     0.000 A 
ATOM     31  C   LIG     1      28.078   9.734  -2.284  0.00  0.00     0.001 A 
ATOM     32  C   LIG     1      29.296   9.848  -2.954  0.00  0.00     0.008 A 
ENDBRANCH  26  27
ENDBRANCH  24  25
ENDBRANCH  23  24
ENDBRANCH   2  23
BRANCH   4  33
ATOM     33  O   LIG     1      35.110   4.913  -8.246  0.00  0.00    -0.386 OA
ATOM     34  H   LIG     1      36.050   5.021  -8.468  0.00  0.00     0.210 HD
ENDBRANCH   4  33
BRANCH   3  35
ATOM     35  O   LIG     1      32.649   6.274  -7.366  0.00  0.00    -0.384 OA
ATOM     36  H   LIG     1      32.044   6.800  -6.817  0.00  0.00     0.210 HD
ENDBRANCH   3  35
TORSDOF 13
ENDMDL
MODEL 4
REMARK VINA RESULT:      -8.3     17.482     19.720
REMARK  13 active torsions:
REMARK  status: ('A' for Active; 'I' for Inactive)
REMARK    1  A    between atoms: C_2  and  O_12 
REMARK    2  A    between atoms: C_3  and  O_10 
REMARK    3  A    between atoms: C_4  and  O_8 
REMARK    4  A    between atoms: C_5  and  O_6 
REMARK    5  A    between atoms: C_22  and  C_23 
REMARK    6  A    between atoms: O_12  and  C_13 
REMARK    7  A    between atoms: C_13  and  C_14 
REMARK    8  A    between atoms: C_15  and  C_16 
REMARK    9  A    between atoms: C_23  and  O_24 
REMARK   10  A    between atoms: O_24  and  C_25 
REMARK   11  A    between atoms: C_26  and  O_34 
REMARK   12  A    between atoms: C_27  and  O_32 
REMARK   13  A    between atoms: C_28  and  O_30 
ROOT
ATOM      1  O   LIG     1      36.573  -1.360  12.345  0.00  0.00    -0.341 OA
ATOM      2  C   LIG     1      37.857  -1.894  12.029  0.00  0.00     0.282 C 
ATOM      3  C   LIG     1      37.736  -3.353  11.587  0.00  0.00     0.201 C 
ATOM      4  C   LIG     1      36.734  -3.507  10.444  0.00  0.00     0.179 C 
ATOM      5  C   LIG     1      35.424  -2.784  10.754  0.00  0.00     0.177 C 
ATOM      6  C   LIG     1      35.692  -1.351  11.221  0.00  0.00     0.178 C 
ENDROOT
BRANCH   6   7
ATOM      7  C   LIG     1      34.408  -0.646  11.648  0.00  0.00     0.197 C 
BRANCH   7   8
ATOM      8  O   LIG     1      34.735   0.349  12.601  0.00  0.00    -0.346 OA
BRANCH   8   9
ATOM      9  C   LIG     1      33.650   0.613  13.483  0.00  0.00     0.281 C 
ATOM     10  O   LIG     1      33.845   1.822  14.227  0.00  0.00    -0.346 OA
ATOM     11  C   LIG     1      34.926   1.758  15.154  0.00  0.00     0.197 C 
ATOM     12  C   LIG     1      34.686   0.661  16.183  0.00  0.00     0.171 C 
ATOM     13  C   LIG     1      34.502  -0.693  15.495  0.00  0.00     0.178 C 
ATOM     14  C   LIG     1      33.425  -0.591  14.410  0.00  0.00     0.201 C 
BRANCH  12  15
ATOM     15  O   LIG     1      35.772   0.593  17.097  0.00  0.00    -0.387 OA
ATOM     16  H   LIG     1      36.331   1.375  16.947  0.00  0.00     0.210 HD
ENDBRANCH  12  15
BRANCH  13  17
ATOM     17  O   LIG     1      35.738  -1.093  14.904  0.00  0.00    -0.386 OA
ATOM     18  H   LIG     1      36.001  -1.933  15.318  0.00  0.00     0.210 HD
ENDBRANCH  13  17
BRANCH  14  19
ATOM     19  O   LIG     1      32.148  -0.440  15.026  0.00  0.00    -0.384 OA
ATOM     20  H   LIG     1      32.107   0.438  15.438  0.00  0.00     0.210 HD
ENDBRANCH  14  19
ENDBRANCH   8   9
ENDBRANCH   7   8
ENDBRANCH   6   7
BRANCH   5  21
ATOM     21  O   LIG     1      34.611  -2.755   9.584  0.00  0.00    -0.386 OA
ATOM     22  H   LIG     1      33.700  -2.972   9.846  0.00  0.00     0.210 HD
ENDBRANCH   5  21
BRANCH   2  23
ATOM     23  O   LIG     1      38.694  -1.851  13.183  0.00  0.00    -0.345 OA
BRANCH  23  24
ATOM     24  C   LIG     1      39.807  -0.995  12.983  0.00  0.00     0.190 C 
BRANCH  24  25
ATOM     25  C   LIG     1      39.410   0.100  12.046  0.00  0.00     0.001 C 
ATOM     26  C   LIG     1      40.291   0.801  11.316  0.00  0.00     0.006 C 
BRANCH  26  27
ATOM     27  C   LIG     1      39.946   1.877  10.370  0.00  0.00    -0.025 A 
ATOM     28  C   LIG     1      38.735   2.538  10.506  0.00  0.00     0.008 A 
ATOM     29  C   LIG     1      38.409   3.556   9.611  0.00  0.00     0.001 A 
ATOM     30  C   LIG     1      39.296   3.899   8.590  0.00  0.00     0.000 A 
ATOM     31  C   LIG     1      40.510   3.225   8.465  0.00  0.00     0.001 A 
ATOM     32  C   LIG     1      40.837   2.206   9.361  0.00  0.00     0.008 A 
ENDBRANCH  26  27
ENDBRANCH  24  25
ENDBRANCH  23  24
ENDBRANCH   2  23
BRANCH   4  33
ATOM     33  O   LIG     1      36.440  -4.892  10.252  0.00  0.00    -0.386 OA
ATOM     34  H   LIG     1      37.222  -5.397  10.531  0.00  0.00     0.210 HD
ENDBRANCH   4  33
BRANCH   3  35
ATOM     35  O   LIG     1      39.022  -3.796  11.153  0.00  0.00    -0.384 OA
ATOM     36  H   LIG     1      39.610  -3.818  11.927  0.00  0.00     0.210 HD
ENDBRANCH   3  35
TORSDOF 13
ENDMDL
MODEL 5
REMARK VINA RESULT:      -8.1      1.309      2.222
REMARK  13 active torsions:
REMARK  status: ('A' for Active; 'I' for Inactive)
REMARK    1  A    between atoms: C_2  and  O_12 
REMARK    2  A    between atoms: C_3  and  O_10 
REMARK    3  A    between atoms: C_4  and  O_8 
REMARK    4  A    between atoms: C_5  and  O_6 
REMARK    5  A    between atoms: C_22  and  C_23 
REMARK    6  A    between atoms: O_12  and  C_13 
REMARK    7  A    between atoms: C_13  and  C_14 
REMARK    8  A    between atoms: C_15  and  C_16 
REMARK    9  A    between atoms: C_23  and  O_24 
REMARK   10  A    between atoms: O_24  and  C_25 
REMARK   11  A    between atoms: C_26  and  O_34 
REMARK   12  A    between atoms: C_27  and  O_32 
REMARK   13  A    between atoms: C_28  and  O_30 
ROOT
ATOM      1  O   LIG     1      34.062   7.366  -6.121  0.00  0.00    -0.341 OA
ATOM      2  C   LIG     1      34.677   6.637  -7.180  0.00  0.00     0.282 C 
ATOM      3  C   LIG     1      33.927   5.330  -7.438  0.00  0.00     0.201 C 
ATOM      4  C   LIG     1      32.439   5.581  -7.678  0.00  0.00     0.179 C 
ATOM      5  C   LIG     1      31.851   6.498  -6.606  0.00  0.00     0.177 C 
ATOM      6  C   LIG     1      32.719   7.746  -6.424  0.00  0.00     0.178 C 
ENDROOT
BRANCH   6   7
ATOM      7  C   LIG     1      32.217   8.621  -5.279  0.00  0.00     0.197 C 
BRANCH   7   8
ATOM      8  O   LIG     1      31.215   7.910  -4.575  0.00  0.00    -0.346 OA
BRANCH   8   9
ATOM      9  C   LIG     1      31.089   8.365  -3.232  0.00  0.00     0.281 C 
ATOM     10  O   LIG     1      30.130   7.600  -2.493  0.00  0.00    -0.346 OA
ATOM     11  C   LIG     1      28.790   7.763  -2.950  0.00  0.00     0.197 C 
ATOM     12  C   LIG     1      28.355   9.218  -2.830  0.00  0.00     0.171 C 
ATOM     13  C   LIG     1      29.296  10.129  -3.620  0.00  0.00     0.178 C 
ATOM     14  C   LIG     1      30.750   9.863  -3.217  0.00  0.00     0.201 C 
BRANCH  12  15
ATOM     15  O   LIG     1      27.023   9.377  -3.298  0.00  0.00    -0.387 OA
ATOM     16  H   LIG     1      26.957   8.926  -4.157  0.00  0.00     0.210 HD
ENDBRANCH  12  15
BRANCH  13  17
ATOM     17  O   LIG     1      29.134   9.877  -5.015  0.00  0.00    -0.386 OA
ATOM     18  H   LIG     1      29.747  10.463  -5.491  0.00  0.00     0.210 HD
ENDBRANCH  13  17
BRANCH  14  19
ATOM     19  O   LIG     1      30.970  10.352  -1.895  0.00  0.00    -0.384 OA
ATOM     20  H   LIG     1      31.918  10.283  -1.696  0.00  0.00     0.210 HD
ENDBRANCH  14  19
ENDBRANCH   8   9
ENDBRANCH   7   8
ENDBRANCH   6   7
BRANCH   5  21
ATOM     21  O   LIG     1      30.536   6.890  -6.990  0.00  0.00    -0.386 OA
ATOM     22  H   LIG     1      29.903   6.323  -6.515  0.00  0.00     0.210 HD
ENDBRANCH   5  21
BRANCH   2  23
ATOM     23  O   LIG     1      36.020   6.312  -6.825  0.00  0.00    -0.345 OA
BRANCH  23  24
ATOM     24  C   LIG     1      36.092   5.769  -5.517  0.00  0.00     0.190 C 
BRANCH  24  25
ATOM     25  C   LIG     1      37.089   6.551  -4.725  0.00  0.00     0.001 C 
ATOM     26  C   LIG     1      37.391   7.834  -4.980  0.00  0.00     0.006 C 
BRANCH  26  27
ATOM     27  C   LIG     1      38.355   8.647  -4.219  0.00  0.00    -0.025 A 
ATOM     28  C   LIG     1      38.232  10.027  -4.223  0.00  0.00     0.008 A 
ATOM     29  C   LIG     1      39.144  10.797  -3.502  0.00  0.00     0.001 A 
ATOM     30  C   LIG     1      40.169  10.177  -2.787  0.00  0.00     0.000 A 
ATOM     31  C   LIG     1      40.281   8.787  -2.792  0.00  0.00     0.001 A 
ATOM     32  C   LIG     1      39.367   8.017  -3.513  0.00  0.00     0.008 A 
ENDBRANCH  26  27
ENDBRANCH  24  25
ENDBRANCH  23  24
ENDBRANCH   2  23
BRANCH   4  33
ATOM     33  O   LIG     1      31.733   4.339  -7.632  0.00  0.00    -0.386 OA
ATOM     34  H   LIG     1      32.122   3.811  -6.915  0.00  0.00     0.210 HD
ENDBRANCH   4  33
BRANCH   3  35
ATOM     35  O   LIG     1      34.495   4.708  -8.590  0.00  0.00    -0.384 OA
ATOM     36  H   LIG     1      35.092   4.003  -8.288  0.00  0.00     0.210 HD
ENDBRANCH   3  35
TORSDOF 13
ENDMDL
MODEL 6
REMARK VINA RESULT:      -8.1     15.287     18.455
REMARK  13 active torsions:
REMARK  status: ('A' for Active; 'I' for Inactive)
REMARK    1  A    between atoms: C_2  and  O_12 
REMARK    2  A    between atoms: C_3  and  O_10 
REMARK    3  A    between atoms: C_4  and  O_8 
REMARK    4  A    between atoms: C_5  and  O_6 
REMARK    5  A    between atoms: C_22  and  C_23 
REMARK    6  A    between atoms: O_12  and  C_13 
REMARK    7  A    between atoms: C_13  and  C_14 
REMARK    8  A    between atoms: C_15  and  C_16 
REMARK    9  A    between atoms: C_23  and  O_24 
REMARK   10  A    between atoms: O_24  and  C_25 
REMARK   11  A    between atoms: C_26  and  O_34 
REMARK   12  A    between atoms: C_27  and  O_32 
REMARK   13  A    between atoms: C_28  and  O_30 
ROOT
ATOM      1  O   LIG     1      25.702  -7.137  -4.948  0.00  0.00    -0.341 OA
ATOM      2  C   LIG     1      24.861  -6.559  -5.944  0.00  0.00     0.282 C 
ATOM      3  C   LIG     1      25.217  -7.103  -7.328  0.00  0.00     0.201 C 
ATOM      4  C   LIG     1      25.195  -8.631  -7.348  0.00  0.00     0.179 C 
ATOM      5  C   LIG     1      25.977  -9.212  -6.171  0.00  0.00     0.177 C 
ATOM      6  C   LIG     1      25.550  -8.554  -4.856  0.00  0.00     0.178 C 
ENDROOT
BRANCH   6   7
ATOM      7  C   LIG     1      26.397  -9.033  -3.682  0.00  0.00     0.197 C 
BRANCH   7   8
ATOM      8  O   LIG     1      27.733  -9.190  -4.125  0.00  0.00    -0.346 OA
BRANCH   8   9
ATOM      9  C   LIG     1      28.531  -9.874  -3.165  0.00  0.00     0.281 C 
ATOM     10  O   LIG     1      28.645  -9.140  -1.940  0.00  0.00    -0.346 OA
ATOM     11  C   LIG     1      29.374  -7.921  -2.066  0.00  0.00     0.197 C 
ATOM     12  C   LIG     1      30.799  -8.194  -2.530  0.00  0.00     0.171 C 
ATOM     13  C   LIG     1      30.797  -8.947  -3.862  0.00  0.00     0.178 C 
ATOM     14  C   LIG     1      29.910 -10.192  -3.763  0.00  0.00     0.201 C 
BRANCH  12  15
ATOM     15  O   LIG     1      31.518  -6.976  -2.666  0.00  0.00    -0.387 OA
ATOM     16  H   LIG     1      30.897  -6.247  -2.495  0.00  0.00     0.210 HD
ENDBRANCH  12  15
BRANCH  13  17
ATOM     17  O   LIG     1      30.302  -8.088  -4.888  0.00  0.00    -0.386 OA
ATOM     18  H   LIG     1      30.353  -8.576  -5.728  0.00  0.00     0.210 HD
ENDBRANCH  13  17
BRANCH  14  19
ATOM     19  O   LIG     1      30.542 -11.156  -2.924  0.00  0.00    -0.384 OA
ATOM     20  H   LIG     1      29.919 -11.411  -2.223  0.00  0.00     0.210 HD
ENDBRANCH  14  19
ENDBRANCH   8   9
ENDBRANCH   7   8
ENDBRANCH   6   7
BRANCH   5  21
ATOM     21  O   LIG     1      25.742 -10.615  -6.094  0.00  0.00    -0.386 OA
ATOM     22  H   LIG     1      26.286 -10.971  -5.369  0.00  0.00     0.210 HD
ENDBRANCH   5  21
BRANCH   2  23
ATOM     23  O   LIG     1      25.042  -5.144  -5.967  0.00  0.00    -0.345 OA
BRANCH  23  24
ATOM     24  C   LIG     1      24.120  -4.491  -5.109  0.00  0.00     0.190 C 
BRANCH  24  25
ATOM     25  C   LIG     1      23.261  -3.582  -5.928  0.00  0.00     0.001 C 
ATOM     26  C   LIG     1      21.987  -3.858  -6.246  0.00  0.00     0.006 C 
BRANCH  26  27
ATOM     27  C   LIG     1      21.100  -2.987  -7.036  0.00  0.00    -0.025 A 
ATOM     28  C   LIG     1      20.814  -3.322  -8.350  0.00  0.00     0.008 A 
ATOM     29  C   LIG     1      19.974  -2.497  -9.097  0.00  0.00     0.001 A 
ATOM     30  C   LIG     1      19.433  -1.347  -8.523  0.00  0.00     0.000 A 
ATOM     31  C   LIG     1      19.730  -1.022  -7.200  0.00  0.00     0.001 A 
ATOM     32  C   LIG     1      20.570  -1.848  -6.451  0.00  0.00     0.008 A 
ENDBRANCH  26  27
ENDBRANCH  24  25
ENDBRANCH  23  24
ENDBRANCH   2  23
BRANCH   4  33
ATOM     33  O   LIG     1      25.800  -9.100  -8.554  0.00  0.00    -0.386 OA
ATOM     34  H   LIG     1      26.396  -8.401  -8.872  0.00  0.00     0.210 HD
ENDBRANCH   4  33
BRANCH   3  35
ATOM     35  O   LIG     1      24.264  -6.602  -8.264  0.00  0.00    -0.384 OA
ATOM     36  H   LIG     1      24.197  -5.641  -8.142  0.00  0.00     0.210 HD
ENDBRANCH   3  35
TORSDOF 13
ENDMDL
MODEL 7
REMARK VINA RESULT:      -8.0      4.008      8.407
REMARK  13 active torsions:
REMARK  status: ('A' for Active; 'I' for Inactive)
REMARK    1  A    between atoms: C_2  and  O_12 
REMARK    2  A    between atoms: C_3  and  O_10 
REMARK    3  A    between atoms: C_4  and  O_8 
REMARK    4  A    between atoms: C_5  and  O_6 
REMARK    5  A    between atoms: C_22  and  C_23 
REMARK    6  A    between atoms: O_12  and  C_13 
REMARK    7  A    between atoms: C_13  and  C_14 
REMARK    8  A    between atoms: C_15  and  C_16 
REMARK    9  A    between atoms: C_23  and  O_24 
REMARK   10  A    between atoms: O_24  and  C_25 
REMARK   11  A    between atoms: C_26  and  O_34 
REMARK   12  A    between atoms: C_27  and  O_32 
REMARK   13  A    between atoms: C_28  and  O_30 
ROOT
ATOM      1  O   LIG     1      35.098   7.765  -5.459  0.00  0.00    -0.341 OA
ATOM      2  C   LIG     1      33.776   7.359  -5.803  0.00  0.00     0.282 C 
ATOM      3  C   LIG     1      33.781   6.580  -7.119  0.00  0.00     0.201 C 
ATOM      4  C   LIG     1      34.766   5.413  -7.072  0.00  0.00     0.179 C 
ATOM      5  C   LIG     1      36.129   5.859  -6.545  0.00  0.00     0.177 C 
ATOM      6  C   LIG     1      35.975   6.658  -5.248  0.00  0.00     0.178 C 
ENDROOT
BRANCH   6   7
ATOM      7  C   LIG     1      37.312   7.214  -4.765  0.00  0.00     0.197 C 
BRANCH   7   8
ATOM      8  O   LIG     1      38.060   6.155  -4.195  0.00  0.00    -0.346 OA
BRANCH   8   9
ATOM      9  C   LIG     1      38.311   6.372  -2.811  0.00  0.00     0.281 C 
ATOM     10  O   LIG     1      39.082   7.557  -2.584  0.00  0.00    -0.346 OA
ATOM     11  C   LIG     1      40.416   7.480  -3.082  0.00  0.00     0.197 C 
ATOM     12  C   LIG     1      41.175   6.344  -2.408  0.00  0.00     0.171 C 
ATOM     13  C   LIG     1      40.455   5.012  -2.621  0.00  0.00     0.178 C 
ATOM     14  C   LIG     1      38.986   5.133  -2.202  0.00  0.00     0.201 C 
BRANCH  12  15
ATOM     15  O   LIG     1      42.499   6.264  -2.916  0.00  0.00    -0.387 OA
ATOM     16  H   LIG     1      42.601   6.964  -3.583  0.00  0.00     0.210 HD
ENDBRANCH  12  15
BRANCH  13  17
ATOM     17  O   LIG     1      40.529   4.652  -4.000  0.00  0.00    -0.386 OA
ATOM     18  H   LIG     1      41.092   5.309  -4.444  0.00  0.00     0.210 HD
ENDBRANCH  13  17
BRANCH  14  19
ATOM     19  O   LIG     1      38.908   5.242  -0.782  0.00  0.00    -0.384 OA
ATOM     20  H   LIG     1      39.618   5.833  -0.479  0.00  0.00     0.210 HD
ENDBRANCH  14  19
ENDBRANCH   8   9
ENDBRANCH   7   8
ENDBRANCH   6   7
BRANCH   5  21
ATOM     21  O   LIG     1      36.939   4.713  -6.300  0.00  0.00    -0.386 OA
ATOM     22  H   LIG     1      36.606   3.986  -6.855  0.00  0.00     0.210 HD
ENDBRANCH   5  21
BRANCH   2  23
ATOM     23  O   LIG     1      32.947   8.507  -5.973  0.00  0.00    -0.345 OA
BRANCH  23  24
ATOM     24  C   LIG     1      32.397   8.936  -4.738  0.00  0.00     0.190 C 
BRANCH  24  25
ATOM     25  C   LIG     1      32.649  10.401  -4.581  0.00  0.00     0.001 C 
ATOM     26  C   LIG     1      33.621  11.056  -5.234  0.00  0.00     0.006 C 
BRANCH  26  27
ATOM     27  C   LIG     1      33.897  12.499  -5.122  0.00  0.00    -0.025 A 
ATOM     28  C   LIG     1      34.189  13.225  -6.265  0.00  0.00     0.008 A 
ATOM     29  C   LIG     1      34.449  14.591  -6.158  0.00  0.00     0.001 A 
ATOM     30  C   LIG     1      34.416  15.213  -4.911  0.00  0.00     0.000 A 
ATOM     31  C   LIG     1      34.121  14.469  -3.768  0.00  0.00     0.001 A 
ATOM     32  C   LIG     1      33.860  13.102  -3.875  0.00  0.00     0.008 A 
ENDBRANCH  26  27
ENDBRANCH  24  25
ENDBRANCH  23  24
ENDBRANCH   2  23
BRANCH   4  33
ATOM     33  O   LIG     1      34.950   4.892  -8.389  0.00  0.00    -0.386 OA
ATOM     34  H   LIG     1      34.689   3.956  -8.371  0.00  0.00     0.210 HD
ENDBRANCH   4  33
BRANCH   3  35
ATOM     35  O   LIG     1      32.463   6.081  -7.348  0.00  0.00    -0.384 OA
ATOM     36  H   LIG     1      31.937   6.242  -6.547  0.00  0.00     0.210 HD
ENDBRANCH   3  35
TORSDOF 13
ENDMDL
MODEL 8
REMARK VINA RESULT:      -7.8      2.764      8.525
REMARK  13 active torsions:
REMARK  status: ('A' for Active; 'I' for Inactive)
REMARK    1  A    between atoms: C_2  and  O_12 
REMARK    2  A    between atoms: C_3  and  O_10 
REMARK    3  A    between atoms: C_4  and  O_8 
REMARK    4  A    between atoms: C_5  and  O_6 
REMARK    5  A    between atoms: C_22  and  C_23 
REMARK    6  A    between atoms: O_12  and  C_13 
REMARK    7  A    between atoms: C_13  and  C_14 
REMARK    8  A    between atoms: C_15  and  C_16 
REMARK    9  A    between atoms: C_23  and  O_24 
REMARK   10  A    between atoms: O_24  and  C_25 
REMARK   11  A    between atoms: C_26  and  O_34 
REMARK   12  A    between atoms: C_27  and  O_32 
REMARK   13  A    between atoms: C_28  and  O_30 
ROOT
ATOM      1  O   LIG     1      33.904   6.671  -5.373  0.00  0.00    -0.341 OA
ATOM      2  C   LIG     1      32.858   5.777  -5.745  0.00  0.00     0.282 C 
ATOM      3  C   LIG     1      32.973   5.404  -7.224  0.00  0.00     0.201 C 
ATOM      4  C   LIG     1      34.362   4.859  -7.554  0.00  0.00     0.179 C 
ATOM      5  C   LIG     1      35.459   5.766  -6.998  0.00  0.00     0.177 C 
ATOM      6  C   LIG     1      35.201   6.091  -5.525  0.00  0.00     0.178 C 
ENDROOT
BRANCH   6   7
ATOM      7  C   LIG     1      36.219   7.088  -4.979  0.00  0.00     0.197 C 
BRANCH   7   8
ATOM      8  O   LIG     1      37.341   6.370  -4.501  0.00  0.00    -0.346 OA
BRANCH   8   9
ATOM      9  C   LIG     1      38.312   7.233  -3.919  0.00  0.00     0.281 C 
ATOM     10  O   LIG     1      39.560   6.567  -3.698  0.00  0.00    -0.346 OA
ATOM     11  C   LIG     1      39.497   5.542  -2.709  0.00  0.00     0.197 C 
ATOM     12  C   LIG     1      39.080   6.119  -1.363  0.00  0.00     0.171 C 
ATOM     13  C   LIG     1      37.729   6.827  -1.475  0.00  0.00     0.178 C 
ATOM     14  C   LIG     1      37.759   7.843  -2.622  0.00  0.00     0.201 C 
BRANCH  12  15
ATOM     15  O   LIG     1      39.006   5.092  -0.384  0.00  0.00    -0.387 OA
ATOM     16  H   LIG     1      38.566   4.327  -0.793  0.00  0.00     0.210 HD
ENDBRANCH  12  15
BRANCH  13  17
ATOM     17  O   LIG     1      36.709   5.860  -1.720  0.00  0.00    -0.386 OA
ATOM     18  H   LIG     1      37.006   5.302  -2.459  0.00  0.00     0.210 HD
ENDBRANCH  13  17
BRANCH  14  19
ATOM     19  O   LIG     1      38.594   8.940  -2.259  0.00  0.00    -0.384 OA
ATOM     20  H   LIG     1      39.059   8.714  -1.436  0.00  0.00     0.210 HD
ENDBRANCH  14  19
ENDBRANCH   8   9
ENDBRANCH   7   8
ENDBRANCH   6   7
BRANCH   5  21
ATOM     21  O   LIG     1      36.720   5.113  -7.123  0.00  0.00    -0.386 OA
ATOM     22  H   LIG     1      36.765   4.717  -8.011  0.00  0.00     0.210 HD
ENDBRANCH   5  21
BRANCH   2  23
ATOM     23  O   LIG     1      31.593   6.406  -5.546  0.00  0.00    -0.345 OA
BRANCH  23  24
ATOM     24  C   LIG     1      31.653   7.792  -5.841  0.00  0.00     0.190 C 
BRANCH  24  25
ATOM     25  C   LIG     1      30.751   8.524  -4.901  0.00  0.00     0.001 C 
ATOM     26  C   LIG     1      29.543   8.068  -4.533  0.00  0.00     0.006 C 
BRANCH  26  27
ATOM     27  C   LIG     1      28.627   8.747  -3.600  0.00  0.00    -0.025 A 
ATOM     28  C   LIG     1      29.105   9.780  -2.811  0.00  0.00     0.008 A 
ATOM     29  C   LIG     1      28.237  10.422  -1.928  0.00  0.00     0.001 A 
ATOM     30  C   LIG     1      26.903  10.022  -1.844  0.00  0.00     0.000 A 
ATOM     31  C   LIG     1      26.437   8.980  -2.645  0.00  0.00     0.001 A 
ATOM     32  C   LIG     1      27.305   8.338  -3.529  0.00  0.00     0.008 A 
ENDBRANCH  26  27
ENDBRANCH  24  25
ENDBRANCH  23  24
ENDBRANCH   2  23
BRANCH   4  33
ATOM     33  O   LIG     1      34.521   4.791  -8.972  0.00  0.00    -0.386 OA
ATOM     34  H   LIG     1      35.309   5.312  -9.201  0.00  0.00     0.210 HD
ENDBRANCH   4  33
BRANCH   3  35
ATOM     35  O   LIG     1      31.992   4.408  -7.511  0.00  0.00    -0.384 OA
ATOM     36  H   LIG     1      32.452   3.564  -7.657  0.00  0.00     0.210 HD
ENDBRANCH   3  35
TORSDOF 13
ENDMDL
MODEL 9
REMARK VINA RESULT:      -7.7      6.183     10.289
REMARK  13 active torsions:
REMARK  status: ('A' for Active; 'I' for Inactive)
REMARK    1  A    between atoms: C_2  and  O_12 
REMARK    2  A    between atoms: C_3  and  O_10 
REMARK    3  A    between atoms: C_4  and  O_8 
REMARK    4  A    between atoms: C_5  and  O_6 
REMARK    5  A    between atoms: C_22  and  C_23 
REMARK    6  A    between atoms: O_12  and  C_13 
REMARK    7  A    between atoms: C_13  and  C_14 
REMARK    8  A    between atoms: C_15  and  C_16 
REMARK    9  A    between atoms: C_23  and  O_24 
REMARK   10  A    between atoms: O_24  and  C_25 
REMARK   11  A    between atoms: C_26  and  O_34 
REMARK   12  A    between atoms: C_27  and  O_32 
REMARK   13  A    between atoms: C_28  and  O_30 
ROOT
ATOM      1  O   LIG     1      39.516   7.255  -1.297  0.00  0.00    -0.341 OA
ATOM      2  C   LIG     1      39.444   6.136  -2.178  0.00  0.00     0.282 C 
ATOM      3  C   LIG     1      40.678   6.086  -3.080  0.00  0.00     0.201 C 
ATOM      4  C   LIG     1      41.968   6.113  -2.262  0.00  0.00     0.179 C 
ATOM      5  C   LIG     1      41.939   7.229  -1.218  0.00  0.00     0.177 C 
ATOM      6  C   LIG     1      40.637   7.187  -0.414  0.00  0.00     0.178 C 
ENDROOT
BRANCH   6   7
ATOM      7  C   LIG     1      40.532   8.361   0.554  0.00  0.00     0.197 C 
BRANCH   7   8
ATOM      8  O   LIG     1      40.732   7.879   1.871  0.00  0.00    -0.346 OA
BRANCH   8   9
ATOM      9  C   LIG     1      39.625   8.174   2.715  0.00  0.00     0.281 C 
ATOM     10  O   LIG     1      40.001   8.225   4.096  0.00  0.00    -0.346 OA
ATOM     11  C   LIG     1      40.408   6.966   4.628  0.00  0.00     0.197 C 
ATOM     12  C   LIG     1      39.274   5.953   4.535  0.00  0.00     0.171 C 
ATOM     13  C   LIG     1      38.816   5.789   3.085  0.00  0.00     0.178 C 
ATOM     14  C   LIG     1      38.498   7.158   2.474  0.00  0.00     0.201 C 
BRANCH  12  15
ATOM     15  O   LIG     1      39.688   4.697   5.055  0.00  0.00    -0.387 OA
ATOM     16  H   LIG     1      39.414   4.660   5.987  0.00  0.00     0.210 HD
ENDBRANCH  12  15
BRANCH  13  17
ATOM     17  O   LIG     1      39.851   5.158   2.332  0.00  0.00    -0.386 OA
ATOM     18  H   LIG     1      39.465   4.375   1.902  0.00  0.00     0.210 HD
ENDBRANCH  13  17
BRANCH  14  19
ATOM     19  O   LIG     1      37.307   7.673   3.063  0.00  0.00    -0.384 OA
ATOM     20  H   LIG     1      36.877   8.264   2.422  0.00  0.00     0.210 HD
ENDBRANCH  14  19
ENDBRANCH   8   9
ENDBRANCH   7   8
ENDBRANCH   6   7
BRANCH   5  21
ATOM     21  O   LIG     1      43.045   7.077  -0.333  0.00  0.00    -0.386 OA
ATOM     22  H   LIG     1      42.694   6.915   0.560  0.00  0.00     0.210 HD
ENDBRANCH   5  21
BRANCH   2  23
ATOM     23  O   LIG     1      38.293   6.252  -3.012  0.00  0.00    -0.345 OA
BRANCH  23  24
ATOM     24  C   LIG     1      38.311   7.461  -3.753  0.00  0.00     0.190 C 
BRANCH  24  25
ATOM     25  C   LIG     1      37.477   7.285  -4.981  0.00  0.00     0.001 C 
ATOM     26  C   LIG     1      36.336   6.579  -5.003  0.00  0.00     0.006 C 
BRANCH  26  27
ATOM     27  C   LIG     1      35.476   6.392  -6.184  0.00  0.00    -0.025 A 
ATOM     28  C   LIG     1      35.565   5.214  -6.909  0.00  0.00     0.008 A 
ATOM     29  C   LIG     1      34.750   5.037  -8.027  0.00  0.00     0.001 A 
ATOM     30  C   LIG     1      33.857   6.039  -8.405  0.00  0.00     0.000 A 
ATOM     31  C   LIG     1      33.778   7.219  -7.666  0.00  0.00     0.001 A 
ATOM     32  C   LIG     1      34.593   7.396  -6.547  0.00  0.00     0.008 A 
ENDBRANCH  26  27
ENDBRANCH  24  25
ENDBRANCH  23  24
ENDBRANCH   2  23
BRANCH   4  33
ATOM     33  O   LIG     1      43.078   6.349  -3.130  0.00  0.00    -0.386 OA
ATOM     34  H   LIG     1      43.316   5.498  -3.535  0.00  0.00     0.210 HD
ENDBRANCH   4  33
BRANCH   3  35
ATOM     35  O   LIG     1      40.625   4.880  -3.843  0.00  0.00    -0.384 OA
ATOM     36  H   LIG     1      41.430   4.369  -3.654  0.00  0.00     0.210 HD
ENDBRANCH   3  35
TORSDOF 13
ENDMDL
