MODEL 1
REMARK VINA RESULT:    -8.210      0.000      0.000
REMARK INTER + INTRA:         -17.077
REMARK INTER:                 -11.790
REMARK INTRA:                  -5.287
REMARK CONF_INDEPENDENT:        3.580
REMARK UNBOUND:                -5.287
REMARK SMILES COc1cc(C(=O)O[C@@H]2Cc3c(O)cc(O)cc3O[C@@H]2c2cc(O)c(O)c(O)c2)cc(O)c1O
REMARK SMILES IDX 8 1 9 4 19 5 20 6 18 7 11 10 17 11 10 12 12 13 15 14 14 15
REMARK SMILES IDX 21 16 29 17 22 18 27 19 23 20 25 21 28 22 24 27 26 32 13 37
REMARK SMILES IDX 16 42 6 47 7 48 5 51 4 52 30 53 3 54 31 55 33 56 2 57 1 58
REMARK SMILES IDX 32 61 34 66
REMARK H PARENT 28 23 24 28 26 33 13 38 16 43 32 62 34 67
REMARK Flexibility Score: inf
ROOT
ATOM      1  O   UNL     1       2.691  -1.474   0.332  1.00  0.00    -0.454 OA
ATOM      2 WAT  UNL     1       0.014  -0.338   1.073  1.00  0.00     0.000 W 
ATOM      3 WAT  UNL     1       5.030   0.356  -0.095  1.00  0.00     0.000 W 
ENDROOT
BRANCH   1   4
ATOM      4  C   UNL     1       2.491  -2.132  -0.919  1.00  0.00     0.227 C 
ATOM      5  O   UNL     1       0.965  -0.355  -1.685  1.00  0.00    -0.481 OA
ATOM      6  C   UNL     1       1.113  -1.771  -1.490  1.00  0.00     0.245 C 
ATOM      7  C   UNL     1       2.012   0.252  -2.328  1.00  0.00     0.131 A 
ATOM      8 WAT  UNL     1       0.909   0.835   1.069  1.00  0.00     0.000 W 
ATOM      9 WAT  UNL     1      -1.396  -0.034  -3.506  1.00  0.00     0.000 W 
ATOM     10  C   UNL     1       3.282  -0.325  -2.455  1.00  0.00     0.040 A 
ATOM     11  C   UNL     1       1.764   1.531  -2.835  1.00  0.00     0.093 A 
ATOM     12  C   UNL     1       3.578  -1.691  -1.898  1.00  0.00     0.093 C 
ATOM     13  C   UNL     1       4.285   0.379  -3.135  1.00  0.00     0.126 A 
ATOM     14  C   UNL     1       2.772   2.227  -3.500  1.00  0.00     0.122 A 
ATOM     15  C   UNL     1       4.031   1.650  -3.653  1.00  0.00     0.092 A 
BRANCH   6  16
ATOM     16  C   UNL     1      -0.013  -2.284  -0.612  1.00  0.00     0.004 A 
ATOM     17  C   UNL     1      -0.469  -3.593  -0.761  1.00  0.00     0.058 A 
ATOM     18  C   UNL     1      -0.590  -1.446   0.340  1.00  0.00     0.058 A 
ATOM     19  C   UNL     1      -1.505  -4.065   0.046  1.00  0.00     0.161 A 
ATOM     20  C   UNL     1      -1.626  -1.917   1.146  1.00  0.00     0.161 A 
ATOM     21  C   UNL     1      -2.083  -3.226   1.000  1.00  0.00     0.200 A 
BRANCH  19  22
ATOM     22  O   UNL     1      -1.941  -5.346  -0.107  1.00  0.00    -0.504 OA
ATOM     23  H   UNL     1      -2.822  -5.431   0.295  1.00  0.00     0.293 HD
ATOM     24 WAT  UNL     1      -0.089  -7.092   1.480  1.00  0.00     0.000 W 
ATOM     25 WAT  UNL     1      -2.278  -5.803  -3.052  1.00  0.00     0.000 W 
ATOM     26 WAT  UNL     1      -4.635  -5.606   1.121  1.00  0.00     0.000 W 
ENDBRANCH  19  22
BRANCH  20  27
ATOM     27  O   UNL     1      -2.183  -1.087   2.073  1.00  0.00    -0.504 OA
ATOM     28  H   UNL     1      -1.992  -1.432   2.962  1.00  0.00     0.293 HD
ATOM     29 WAT  UNL     1      -5.155  -1.233   1.699  1.00  0.00     0.000 W 
ATOM     30 WAT  UNL     1      -0.769   1.549   1.841  1.00  0.00     0.000 W 
ATOM     31 WAT  UNL     1      -1.602  -2.140   4.791  1.00  0.00     0.000 W 
ENDBRANCH  20  27
BRANCH  21  32
ATOM     32  O   UNL     1      -3.095  -3.688   1.789  1.00  0.00    -0.502 OA
ATOM     33  H   UNL     1      -3.389  -4.548   1.439  1.00  0.00     0.293 HD
ATOM     34 WAT  UNL     1      -5.391  -1.783   1.476  1.00  0.00     0.000 W 
ATOM     35 WAT  UNL     1      -1.926  -4.197   4.505  1.00  0.00     0.000 W 
ATOM     36 WAT  UNL     1      -3.992  -6.314   0.722  1.00  0.00     0.000 W 
ENDBRANCH  21  32
ENDBRANCH   6  16
BRANCH  13  37
ATOM     37  O   UNL     1       5.528  -0.159  -3.303  1.00  0.00    -0.507 OA
ATOM     38  H   UNL     1       5.882  -0.421  -2.436  1.00  0.00     0.293 HD
ATOM     39 WAT  UNL     1       7.292   2.037  -4.335  1.00  0.00     0.000 W 
ATOM     40 WAT  UNL     1       5.176  -2.676  -4.897  1.00  0.00     0.000 W 
ATOM     41 WAT  UNL     1       6.613  -0.960  -0.654  1.00  0.00     0.000 W 
ENDBRANCH  13  37
BRANCH  14  42
ATOM     42  O   UNL     1       2.527   3.468  -4.001  1.00  0.00    -0.508 OA
ATOM     43  H   UNL     1       2.651   3.449  -4.966  1.00  0.00     0.293 HD
ATOM     44 WAT  UNL     1       4.634   5.290  -2.886  1.00  0.00     0.000 W 
ATOM     45 WAT  UNL     1      -0.374   4.051  -3.507  1.00  0.00     0.000 W 
ATOM     46 WAT  UNL     1       2.906   3.410  -6.950  1.00  0.00     0.000 W 
ENDBRANCH  14  42
ENDBRANCH   1   4
BRANCH   1  47
ATOM     47  C   UNL     1       3.044  -2.274   1.372  1.00  0.00     0.338 C 
ATOM     48  O   UNL     1       4.174  -2.656   1.637  1.00  0.00    -0.246 OA
ATOM     49 WAT  UNL     1       4.637  -4.427   4.014  1.00  0.00     0.000 W 
ATOM     50 WAT  UNL     1       6.483  -1.824  -0.088  1.00  0.00     0.000 W 
BRANCH  47  51
ATOM     51  C   UNL     1       1.850  -2.642   2.173  1.00  0.00     0.067 A 
ATOM     52  C   UNL     1       1.240  -1.674   2.943  1.00  0.00     0.066 A 
ATOM     53  C   UNL     1       1.389  -3.942   2.124  1.00  0.00     0.066 A 
ATOM     54  C   UNL     1       0.117  -2.021   3.697  1.00  0.00     0.165 A 
ATOM     55  C   UNL     1       0.267  -4.288   2.876  1.00  0.00     0.162 A 
ATOM     56  C   UNL     1      -0.369  -3.328   3.663  1.00  0.00     0.200 A 
BRANCH  54  57
ATOM     57  O   UNL     1      -0.496  -1.073   4.459  1.00  0.00    -0.493 OA
ATOM     58  C   UNL     1      -0.197   0.290   4.164  1.00  0.00     0.278 C 
ATOM     59 WAT  UNL     1       0.537  -1.517   7.240  1.00  0.00     0.000 W 
ATOM     60 WAT  UNL     1      -3.424  -1.374   3.880  1.00  0.00     0.000 W 
ENDBRANCH  54  57
BRANCH  55  61
ATOM     61  O   UNL     1      -0.199  -5.568   2.835  1.00  0.00    -0.504 OA
ATOM     62  H   UNL     1      -1.142  -5.571   3.071  1.00  0.00     0.293 HD
ATOM     63 WAT  UNL     1       1.242  -7.089   4.982  1.00  0.00     0.000 W 
ATOM     64 WAT  UNL     1      -0.015  -6.468  -0.022  1.00  0.00     0.000 W 
ATOM     65 WAT  UNL     1      -3.082  -5.577   3.558  1.00  0.00     0.000 W 
ENDBRANCH  55  61
BRANCH  56  66
ATOM     66  O   UNL     1      -1.467  -3.666   4.398  1.00  0.00    -0.502 OA
ATOM     67  H   UNL     1      -2.233  -3.713   3.800  1.00  0.00     0.293 HD
ATOM     68 WAT  UNL     1      -1.977  -1.407   6.305  1.00  0.00     0.000 W 
ATOM     69 WAT  UNL     1      -0.999  -6.438   5.446  1.00  0.00     0.000 W 
ATOM     70 WAT  UNL     1      -3.810  -3.810   2.573  1.00  0.00     0.000 W 
ENDBRANCH  56  66
ENDBRANCH  47  51
ENDBRANCH   1  47
TORSDOF 12
ENDMDL
MODEL 2
REMARK VINA RESULT:    -8.106      0.935      3.092
REMARK INTER + INTRA:         -17.083
REMARK INTER:                 -11.685
REMARK INTRA:                  -5.398
REMARK CONF_INDEPENDENT:        3.580
REMARK UNBOUND:                -5.398
REMARK SMILES COc1cc(C(=O)O[C@@H]2Cc3c(O)cc(O)cc3O[C@@H]2c2cc(O)c(O)c(O)c2)cc(O)c1O
REMARK SMILES IDX 8 1 9 4 19 5 20 6 18 7 11 10 17 11 10 12 12 13 15 14 14 15
REMARK SMILES IDX 21 16 29 17 22 18 27 19 23 20 25 21 28 22 24 27 26 32 13 37
REMARK SMILES IDX 16 42 6 47 7 48 5 51 4 52 30 53 3 54 31 55 33 56 2 57 1 58
REMARK SMILES IDX 32 61 34 66
REMARK H PARENT 28 23 24 28 26 33 13 38 16 43 32 62 34 67
REMARK Flexibility Score: inf
ROOT
ATOM      1  O   UNL     1       2.733  -1.319   0.326  1.00  0.00    -0.454 OA
ATOM      2 WAT  UNL     1      -0.016  -0.379   1.074  1.00  0.00     0.000 W 
ATOM      3 WAT  UNL     1       4.988   0.650   0.127  1.00  0.00     0.000 W 
ENDROOT
BRANCH   1   4
ATOM      4  C   UNL     1       2.601  -1.878  -0.981  1.00  0.00     0.227 C 
ATOM      5  O   UNL     1       1.068  -0.075  -1.668  1.00  0.00    -0.481 OA
ATOM      6  C   UNL     1       1.240  -1.499  -1.580  1.00  0.00     0.245 C 
ATOM      7  C   UNL     1       2.127   0.603  -2.214  1.00  0.00     0.131 A 
ATOM      8 WAT  UNL     1       0.870   0.888   1.166  1.00  0.00     0.000 W 
ATOM      9 WAT  UNL     1      -1.222   0.346  -3.559  1.00  0.00     0.000 W 
ATOM     10  C   UNL     1       3.413   0.062  -2.332  1.00  0.00     0.040 A 
ATOM     11  C   UNL     1       1.871   1.913  -2.629  1.00  0.00     0.093 A 
ATOM     12  C   UNL     1       3.718  -1.338  -1.873  1.00  0.00     0.093 C 
ATOM     13  C   UNL     1       4.428   0.838  -2.909  1.00  0.00     0.126 A 
ATOM     14  C   UNL     1       2.890   2.679  -3.192  1.00  0.00     0.122 A 
ATOM     15  C   UNL     1       4.167   2.141  -3.335  1.00  0.00     0.092 A 
BRANCH   6  16
ATOM     16  C   UNL     1       0.091  -2.103  -0.797  1.00  0.00     0.004 A 
ATOM     17  C   UNL     1      -0.351  -3.392  -1.092  1.00  0.00     0.058 A 
ATOM     18  C   UNL     1      -0.522  -1.368   0.217  1.00  0.00     0.058 A 
ATOM     19  C   UNL     1      -1.409  -3.947  -0.371  1.00  0.00     0.161 A 
ATOM     20  C   UNL     1      -1.580  -1.923   0.937  1.00  0.00     0.161 A 
ATOM     21  C   UNL     1      -2.023  -3.212   0.644  1.00  0.00     0.200 A 
BRANCH  19  22
ATOM     22  O   UNL     1      -1.832  -5.207  -0.668  1.00  0.00    -0.504 OA
ATOM     23  H   UNL     1      -2.647  -5.394  -0.172  1.00  0.00     0.293 HD
ATOM     24 WAT  UNL     1       0.262  -7.092   0.361  1.00  0.00     0.000 W 
ATOM     25 WAT  UNL     1      -2.559  -5.217  -3.578  1.00  0.00     0.000 W 
ATOM     26 WAT  UNL     1      -4.325  -5.777   0.847  1.00  0.00     0.000 W 
ENDBRANCH  19  22
BRANCH  20  27
ATOM     27  O   UNL     1      -2.171  -1.194   1.926  1.00  0.00    -0.504 OA
ATOM     28  H   UNL     1      -2.853  -1.738   2.357  1.00  0.00     0.293 HD
ATOM     29 WAT  UNL     1      -3.589   1.090   0.595  1.00  0.00     0.000 W 
ATOM     30 WAT  UNL     1      -0.059  -0.653   3.988  1.00  0.00     0.000 W 
ATOM     31 WAT  UNL     1      -4.255  -2.855   3.242  1.00  0.00     0.000 W 
ENDBRANCH  20  27
BRANCH  21  32
ATOM     32  O   UNL     1      -3.056  -3.756   1.349  1.00  0.00    -0.502 OA
ATOM     33  H   UNL     1      -3.156  -4.686   1.079  1.00  0.00     0.293 HD
ATOM     34 WAT  UNL     1      -5.551  -2.324   0.496  1.00  0.00     0.000 W 
ATOM     35 WAT  UNL     1      -2.241  -3.760   4.236  1.00  0.00     0.000 W 
ATOM     36 WAT  UNL     1      -3.360  -6.597   0.527  1.00  0.00     0.000 W 
ENDBRANCH  21  32
ENDBRANCH   6  16
BRANCH  13  37
ATOM     37  O   UNL     1       5.689   0.340  -3.065  1.00  0.00    -0.507 OA
ATOM     38  H   UNL     1       6.238   1.000  -3.523  1.00  0.00     0.293 HD
ATOM     39 WAT  UNL     1       5.467  -2.027  -4.895  1.00  0.00     0.000 W 
ATOM     40 WAT  UNL     1       6.839   0.009  -0.315  1.00  0.00     0.000 W 
ATOM     41 WAT  UNL     1       7.369   2.355  -4.465  1.00  0.00     0.000 W 
ENDBRANCH  13  37
BRANCH  14  42
ATOM     42  O   UNL     1       2.637   3.952  -3.602  1.00  0.00    -0.508 OA
ATOM     43  H   UNL     1       1.675   4.093  -3.619  1.00  0.00     0.293 HD
ATOM     44 WAT  UNL     1       3.598   4.161  -6.437  1.00  0.00     0.000 W 
ATOM     45 WAT  UNL     1       3.750   5.783  -1.502  1.00  0.00     0.000 W 
ATOM     46 WAT  UNL     1      -0.305   4.381  -3.653  1.00  0.00     0.000 W 
ENDBRANCH  14  42
ENDBRANCH   1   4
BRANCH   1  47
ATOM     47  C   UNL     1       3.097  -2.186   1.306  1.00  0.00     0.338 C 
ATOM     48  O   UNL     1       4.226  -2.605   1.517  1.00  0.00    -0.246 OA
ATOM     49 WAT  UNL     1       4.716  -4.523   3.771  1.00  0.00     0.000 W 
ATOM     50 WAT  UNL     1       6.505  -1.717  -0.221  1.00  0.00     0.000 W 
BRANCH  47  51
ATOM     51  C   UNL     1       1.919  -2.578   2.118  1.00  0.00     0.067 A 
ATOM     52  C   UNL     1       1.432  -3.865   2.008  1.00  0.00     0.066 A 
ATOM     53  C   UNL     1       1.345  -1.645   2.957  1.00  0.00     0.066 A 
ATOM     54  C   UNL     1       0.323  -4.234   2.771  1.00  0.00     0.165 A 
ATOM     55  C   UNL     1       0.237  -2.015   3.720  1.00  0.00     0.162 A 
ATOM     56  C   UNL     1      -0.274  -3.309   3.627  1.00  0.00     0.200 A 
BRANCH  54  57
ATOM     57  O   UNL     1      -0.165  -5.502   2.672  1.00  0.00    -0.493 OA
ATOM     58  C   UNL     1       0.366  -6.323   1.633  1.00  0.00     0.278 C 
ATOM     59 WAT  UNL     1      -3.070  -5.173   2.002  1.00  0.00     0.000 W 
ATOM     60 WAT  UNL     1       0.642  -6.853   5.226  1.00  0.00     0.000 W 
ENDBRANCH  54  57
BRANCH  55  61
ATOM     61  O   UNL     1      -0.337  -1.101   4.553  1.00  0.00    -0.504 OA
ATOM     62  H   UNL     1      -1.034  -1.538   5.071  1.00  0.00     0.293 HD
ATOM     63 WAT  UNL     1      -1.690   0.934   2.813  1.00  0.00     0.000 W 
ATOM     64 WAT  UNL     1       1.782  -0.243   6.496  1.00  0.00     0.000 W 
ATOM     65 WAT  UNL     1      -2.469  -2.437   6.136  1.00  0.00     0.000 W 
ENDBRANCH  55  61
BRANCH  56  66
ATOM     66  O   UNL     1      -1.356  -3.670   4.373  1.00  0.00    -0.502 OA
ATOM     67  H   UNL     1      -1.691  -4.519   4.036  1.00  0.00     0.293 HD
ATOM     68 WAT  UNL     1      -3.491  -1.622   3.874  1.00  0.00     0.000 W 
ATOM     69 WAT  UNL     1      -0.371  -4.161   7.165  1.00  0.00     0.000 W 
ATOM     70 WAT  UNL     1      -2.381  -6.265   3.345  1.00  0.00     0.000 W 
ENDBRANCH  56  66
ENDBRANCH  47  51
ENDBRANCH   1  47
TORSDOF 12
ENDMDL
MODEL 3
REMARK VINA RESULT:    -8.099      2.121      4.754
REMARK INTER + INTRA:         -16.955
REMARK INTER:                 -11.679
REMARK INTRA:                  -5.276
REMARK CONF_INDEPENDENT:        3.580
REMARK UNBOUND:                -5.276
REMARK SMILES COc1cc(C(=O)O[C@@H]2Cc3c(O)cc(O)cc3O[C@@H]2c2cc(O)c(O)c(O)c2)cc(O)c1O
REMARK SMILES IDX 8 1 9 4 19 5 20 6 18 7 11 10 17 11 10 12 12 13 15 14 14 15
REMARK SMILES IDX 21 16 29 17 22 18 27 19 23 20 25 21 28 22 24 27 26 32 13 37
REMARK SMILES IDX 16 42 6 47 7 48 5 51 4 52 30 53 3 54 31 55 33 56 2 57 1 58
REMARK SMILES IDX 32 61 34 66
REMARK H PARENT 28 23 24 28 26 33 13 38 16 43 32 62 34 67
REMARK Flexibility Score: inf
ROOT
ATOM      1  O   UNL     1      -0.107   0.405  -0.017  1.00  0.00    -0.454 OA
ATOM      2 WAT  UNL     1      -1.431  -1.957  -1.310  1.00  0.00     0.000 W 
ATOM      3 WAT  UNL     1       0.689   2.773  -1.678  1.00  0.00     0.000 W 
ENDROOT
BRANCH   1   4
ATOM      4  C   UNL     1       1.110  -0.098   0.535  1.00  0.00     0.227 C 
ATOM      5  O   UNL     1       1.731  -1.138  -1.610  1.00  0.00    -0.481 OA
ATOM      6  C   UNL     1       1.538  -1.371  -0.206  1.00  0.00     0.245 C 
ATOM      7  C   UNL     1       2.485  -0.034  -1.915  1.00  0.00     0.131 A 
ATOM      8 WAT  UNL     1      -1.001  -0.577  -2.716  1.00  0.00     0.000 W 
ATOM      9 WAT  UNL     1       3.300  -3.489  -2.611  1.00  0.00     0.000 W 
ATOM     10  C   UNL     1       2.738   1.004  -1.010  1.00  0.00     0.040 A 
ATOM     11  C   UNL     1       2.977   0.033  -3.222  1.00  0.00     0.093 A 
ATOM     12  C   UNL     1       2.200   0.963   0.395  1.00  0.00     0.093 C 
ATOM     13  C   UNL     1       3.525   2.089  -1.420  1.00  0.00     0.126 A 
ATOM     14  C   UNL     1       3.750   1.122  -3.622  1.00  0.00     0.122 A 
ATOM     15  C   UNL     1       4.027   2.148  -2.720  1.00  0.00     0.092 A 
BRANCH   6  16
ATOM     16  C   UNL     1       0.544  -2.500  -0.010  1.00  0.00     0.004 A 
ATOM     17  C   UNL     1       0.329  -3.024   1.264  1.00  0.00     0.058 A 
ATOM     18  C   UNL     1      -0.153  -3.011  -1.103  1.00  0.00     0.058 A 
ATOM     19  C   UNL     1      -0.586  -4.062   1.444  1.00  0.00     0.161 A 
ATOM     20  C   UNL     1      -1.067  -4.049  -0.923  1.00  0.00     0.161 A 
ATOM     21  C   UNL     1      -1.284  -4.574   0.350  1.00  0.00     0.200 A 
BRANCH  19  22
ATOM     22  O   UNL     1      -0.788  -4.565   2.693  1.00  0.00    -0.504 OA
ATOM     23  H   UNL     1      -1.717  -4.838   2.779  1.00  0.00     0.293 HD
ATOM     24 WAT  UNL     1      -0.362  -2.307   4.621  1.00  0.00     0.000 W 
ATOM     25 WAT  UNL     1       0.874  -7.054   2.907  1.00  0.00     0.000 W 
ATOM     26 WAT  UNL     1      -3.629  -5.399   2.955  1.00  0.00     0.000 W 
ENDBRANCH  19  22
BRANCH  20  27
ATOM     27  O   UNL     1      -1.742  -4.541  -2.001  1.00  0.00    -0.504 OA
ATOM     28  H   UNL     1      -2.420  -5.166  -1.692  1.00  0.00     0.293 HD
ATOM     29 WAT  UNL     1       0.230  -6.120  -3.617  1.00  0.00     0.000 W 
ATOM     30 WAT  UNL     1      -3.192  -2.228  -3.247  1.00  0.00     0.000 W 
ATOM     31 WAT  UNL     1      -3.814  -6.452  -1.059  1.00  0.00     0.000 W 
ENDBRANCH  20  27
BRANCH  21  32
ATOM     32  O   UNL     1      -2.178  -5.588   0.527  1.00  0.00    -0.502 OA
ATOM     33  H   UNL     1      -3.057  -5.198   0.681  1.00  0.00     0.293 HD
ATOM     34 WAT  UNL     1      -1.399  -7.015   3.048  1.00  0.00     0.000 W 
ATOM     35 WAT  UNL     1      -2.324  -7.092  -2.064  1.00  0.00     0.000 W 
ATOM     36 WAT  UNL     1      -4.863  -4.399   0.995  1.00  0.00     0.000 W 
ENDBRANCH  21  32
ENDBRANCH   6  16
BRANCH  13  37
ATOM     37  O   UNL     1       3.815   3.108  -0.561  1.00  0.00    -0.507 OA
ATOM     38  H   UNL     1       3.081   3.746  -0.561  1.00  0.00     0.293 HD
ATOM     39 WAT  UNL     1       6.206   4.534  -1.681  1.00  0.00     0.000 W 
ATOM     40 WAT  UNL     1       3.931   1.919   2.191  1.00  0.00     0.000 W 
ATOM     41 WAT  UNL     1       1.571   5.058  -0.563  1.00  0.00     0.000 W 
ENDBRANCH  13  37
BRANCH  14  42
ATOM     42  O   UNL     1       4.235   1.183  -4.892  1.00  0.00    -0.508 OA
ATOM     43  H   UNL     1       4.099   2.081  -5.239  1.00  0.00     0.293 HD
ATOM     44 WAT  UNL     1       2.549  -0.658  -6.557  1.00  0.00     0.000 W 
ATOM     45 WAT  UNL     1       7.199   0.755  -4.716  1.00  0.00     0.000 W 
ATOM     46 WAT  UNL     1       3.819   3.929  -5.952  1.00  0.00     0.000 W 
ENDBRANCH  14  42
ENDBRANCH   1   4
BRANCH   1  47
ATOM     47  C   UNL     1      -1.011   0.880   0.878  1.00  0.00     0.338 C 
ATOM     48  O   UNL     1      -1.463   2.015   0.915  1.00  0.00    -0.246 OA
ATOM     49 WAT  UNL     1      -3.457   2.767   3.027  1.00  0.00     0.000 W 
ATOM     50 WAT  UNL     1      -0.577   4.049  -1.105  1.00  0.00     0.000 W 
BRANCH  47  51
ATOM     51  C   UNL     1      -1.396  -0.181   1.841  1.00  0.00     0.067 A 
ATOM     52  C   UNL     1      -0.999  -0.063   3.158  1.00  0.00     0.066 A 
ATOM     53  C   UNL     1      -2.139  -1.254   1.392  1.00  0.00     0.066 A 
ATOM     54  C   UNL     1      -1.361  -1.061   4.064  1.00  0.00     0.165 A 
ATOM     55  C   UNL     1      -2.501  -2.251   2.297  1.00  0.00     0.162 A 
ATOM     56  C   UNL     1      -2.112  -2.155   3.633  1.00  0.00     0.200 A 
BRANCH  54  57
ATOM     57  O   UNL     1      -0.977  -0.953   5.366  1.00  0.00    -0.493 OA
ATOM     58  C   UNL     1      -0.962   0.355   5.932  1.00  0.00     0.278 C 
ATOM     59 WAT  UNL     1       1.881  -1.861   5.416  1.00  0.00     0.000 W 
ATOM     60 WAT  UNL     1      -3.056  -2.456   6.922  1.00  0.00     0.000 W 
ENDBRANCH  54  57
BRANCH  55  61
ATOM     61  O   UNL     1      -3.235  -3.314   1.864  1.00  0.00    -0.504 OA
ATOM     62  H   UNL     1      -3.015  -4.093   2.404  1.00  0.00     0.293 HD
ATOM     63 WAT  UNL     1      -2.333  -3.913  -0.934  1.00  0.00     0.000 W 
ATOM     64 WAT  UNL     1      -6.113  -2.663   2.405  1.00  0.00     0.000 W 
ATOM     65 WAT  UNL     1      -2.563  -5.694   3.515  1.00  0.00     0.000 W 
ENDBRANCH  55  61
BRANCH  56  66
ATOM     66  O   UNL     1      -2.467  -3.129   4.519  1.00  0.00    -0.502 OA
ATOM     67  H   UNL     1      -2.494  -3.979   4.045  1.00  0.00     0.293 HD
ATOM     68 WAT  UNL     1      -5.269  -2.529   5.407  1.00  0.00     0.000 W 
ATOM     69 WAT  UNL     1      -0.260  -3.322   6.542  1.00  0.00     0.000 W 
ATOM     70 WAT  UNL     1      -2.549  -5.726   3.072  1.00  0.00     0.000 W 
ENDBRANCH  56  66
ENDBRANCH  47  51
ENDBRANCH   1  47
TORSDOF 12
ENDMDL
MODEL 4
REMARK VINA RESULT:    -8.062      0.807      1.814
REMARK INTER + INTRA:         -17.049
REMARK INTER:                 -11.641
REMARK INTRA:                  -5.408
REMARK CONF_INDEPENDENT:        3.580
REMARK UNBOUND:                -5.408
REMARK SMILES COc1cc(C(=O)O[C@@H]2Cc3c(O)cc(O)cc3O[C@@H]2c2cc(O)c(O)c(O)c2)cc(O)c1O
REMARK SMILES IDX 8 1 9 4 19 5 20 6 18 7 11 10 17 11 10 12 12 13 15 14 14 15
REMARK SMILES IDX 21 16 29 17 22 18 27 19 23 20 25 21 28 22 24 27 26 32 13 37
REMARK SMILES IDX 16 42 6 47 7 48 5 51 4 52 30 53 3 54 31 55 33 56 2 57 1 58
REMARK SMILES IDX 32 61 34 66
REMARK H PARENT 28 23 24 28 26 33 13 38 16 43 32 62 34 67
REMARK Flexibility Score: inf
ROOT
ATOM      1  O   UNL     1       2.550  -1.510   0.619  1.00  0.00    -0.454 OA
ATOM      2 WAT  UNL     1      -0.157  -0.452   1.362  1.00  0.00     0.000 W 
ATOM      3 WAT  UNL     1       4.834   0.387   0.187  1.00  0.00     0.000 W 
ENDROOT
BRANCH   1   4
ATOM      4  C   UNL     1       2.368  -2.174  -0.632  1.00  0.00     0.227 C 
ATOM      5  O   UNL     1       0.827  -0.419  -1.415  1.00  0.00    -0.481 OA
ATOM      6  C   UNL     1       0.990  -1.832  -1.214  1.00  0.00     0.245 C 
ATOM      7  C   UNL     1       1.871   0.200  -2.052  1.00  0.00     0.131 A 
ATOM      8 WAT  UNL     1       0.735   0.780   1.334  1.00  0.00     0.000 W 
ATOM      9 WAT  UNL     1      -1.525  -0.131  -3.255  1.00  0.00     0.000 W 
ATOM     10  C   UNL     1       3.148  -0.363  -2.168  1.00  0.00     0.040 A 
ATOM     11  C   UNL     1       1.611   1.473  -2.565  1.00  0.00     0.093 A 
ATOM     12  C   UNL     1       3.457  -1.723  -1.604  1.00  0.00     0.093 C 
ATOM     13  C   UNL     1       4.148   0.351  -2.842  1.00  0.00     0.126 A 
ATOM     14  C   UNL     1       2.616   2.179  -3.225  1.00  0.00     0.122 A 
ATOM     15  C   UNL     1       3.883   1.617  -3.367  1.00  0.00     0.092 A 
BRANCH   6  16
ATOM     16  C   UNL     1      -0.136  -2.355  -0.344  1.00  0.00     0.004 A 
ATOM     17  C   UNL     1      -0.516  -3.694  -0.428  1.00  0.00     0.058 A 
ATOM     18  C   UNL     1      -0.791  -1.497   0.539  1.00  0.00     0.058 A 
ATOM     19  C   UNL     1      -1.552  -4.176   0.372  1.00  0.00     0.161 A 
ATOM     20  C   UNL     1      -1.827  -1.979   1.338  1.00  0.00     0.161 A 
ATOM     21  C   UNL     1      -2.207  -3.318   1.256  1.00  0.00     0.200 A 
BRANCH  19  22
ATOM     22  O   UNL     1      -1.913  -5.486   0.282  1.00  0.00    -0.504 OA
ATOM     23  H   UNL     1      -2.798  -5.599   0.668  1.00  0.00     0.293 HD
ATOM     24 WAT  UNL     1      -0.008  -7.035   2.004  1.00  0.00     0.000 W 
ATOM     25 WAT  UNL     1      -2.150  -6.122  -2.640  1.00  0.00     0.000 W 
ATOM     26 WAT  UNL     1      -4.619  -5.830   1.462  1.00  0.00     0.000 W 
ENDBRANCH  19  22
BRANCH  20  27
ATOM     27  O   UNL     1      -2.459  -1.130   2.197  1.00  0.00    -0.504 OA
ATOM     28  H   UNL     1      -3.203  -1.596   2.614  1.00  0.00     0.293 HD
ATOM     29 WAT  UNL     1      -3.631   1.075   0.535  1.00  0.00     0.000 W 
ATOM     30 WAT  UNL     1      -0.503  -0.486   4.380  1.00  0.00     0.000 W 
ATOM     31 WAT  UNL     1      -4.735  -2.554   3.472  1.00  0.00     0.000 W 
ENDBRANCH  20  27
BRANCH  21  32
ATOM     32  O   UNL     1      -3.219  -3.789   2.039  1.00  0.00    -0.502 OA
ATOM     33  H   UNL     1      -3.438  -4.692   1.746  1.00  0.00     0.293 HD
ATOM     34 WAT  UNL     1      -5.623  -2.081   1.489  1.00  0.00     0.000 W 
ATOM     35 WAT  UNL     1      -2.140  -4.007   4.829  1.00  0.00     0.000 W 
ATOM     36 WAT  UNL     1      -3.888  -6.545   1.147  1.00  0.00     0.000 W 
ENDBRANCH  21  32
ENDBRANCH   6  16
BRANCH  13  37
ATOM     37  O   UNL     1       5.399  -0.172  -2.999  1.00  0.00    -0.507 OA
ATOM     38  H   UNL     1       5.871   0.331  -3.685  1.00  0.00     0.293 HD
ATOM     39 WAT  UNL     1       5.048  -2.960  -4.050  1.00  0.00     0.000 W 
ATOM     40 WAT  UNL     1       6.863   0.288  -0.422  1.00  0.00     0.000 W 
ATOM     41 WAT  UNL     1       6.843   1.362  -5.096  1.00  0.00     0.000 W 
ENDBRANCH  13  37
BRANCH  14  42
ATOM     42  O   UNL     1       2.360   3.416  -3.731  1.00  0.00    -0.508 OA
ATOM     43  H   UNL     1       1.396   3.537  -3.796  1.00  0.00     0.293 HD
ATOM     44 WAT  UNL     1       3.431   3.450  -6.534  1.00  0.00     0.000 W 
ATOM     45 WAT  UNL     1       3.356   5.407  -1.721  1.00  0.00     0.000 W 
ATOM     46 WAT  UNL     1      -0.584   3.785  -3.927  1.00  0.00     0.000 W 
ENDBRANCH  14  42
ENDBRANCH   1   4
BRANCH   1  47
ATOM     47  C   UNL     1       2.928  -2.298   1.658  1.00  0.00     0.338 C 
ATOM     48  O   UNL     1       4.065  -2.671   1.906  1.00  0.00    -0.246 OA
ATOM     49 WAT  UNL     1       4.584  -4.419   4.288  1.00  0.00     0.000 W 
ATOM     50 WAT  UNL     1       6.337  -1.838   0.132  1.00  0.00     0.000 W 
BRANCH  47  51
ATOM     51  C   UNL     1       1.752  -2.668   2.484  1.00  0.00     0.067 A 
ATOM     52  C   UNL     1       1.330  -1.800   3.470  1.00  0.00     0.066 A 
ATOM     53  C   UNL     1       1.117  -3.869   2.242  1.00  0.00     0.066 A 
ATOM     54  C   UNL     1       0.224  -2.148   4.247  1.00  0.00     0.165 A 
ATOM     55  C   UNL     1       0.012  -4.217   3.018  1.00  0.00     0.162 A 
ATOM     56  C   UNL     1      -0.435  -3.356   4.021  1.00  0.00     0.200 A 
BRANCH  54  57
ATOM     57  O   UNL     1      -0.204  -1.297   5.221  1.00  0.00    -0.493 OA
ATOM     58  C   UNL     1      -0.681  -0.020   4.803  1.00  0.00     0.278 C 
ATOM     59 WAT  UNL     1       2.229  -0.719   6.878  1.00  0.00     0.000 W 
ATOM     60 WAT  UNL     1      -2.575  -2.653   6.461  1.00  0.00     0.000 W 
ENDBRANCH  54  57
BRANCH  55  61
ATOM     61  O   UNL     1      -0.624  -5.400   2.788  1.00  0.00    -0.504 OA
ATOM     62  H   UNL     1      -1.530  -5.220   2.484  1.00  0.00     0.293 HD
ATOM     63 WAT  UNL     1      -0.851  -6.797   5.433  1.00  0.00     0.000 W 
ATOM     64 WAT  UNL     1       0.809  -6.726   0.509  1.00  0.00     0.000 W 
ATOM     65 WAT  UNL     1      -3.394  -4.850   1.861  1.00  0.00     0.000 W 
ENDBRANCH  55  61
BRANCH  56  66
ATOM     66  O   UNL     1      -1.517  -3.695   4.779  1.00  0.00    -0.502 OA
ATOM     67  H   UNL     1      -2.250  -3.922   4.182  1.00  0.00     0.293 HD
ATOM     68 WAT  UNL     1      -2.339  -1.235   6.286  1.00  0.00     0.000 W 
ATOM     69 WAT  UNL     1      -0.793  -6.196   6.270  1.00  0.00     0.000 W 
ATOM     70 WAT  UNL     1      -3.760  -4.389   2.955  1.00  0.00     0.000 W 
ENDBRANCH  56  66
ENDBRANCH  47  51
ENDBRANCH   1  47
TORSDOF 12
ENDMDL
MODEL 5
REMARK VINA RESULT:    -8.008      1.111      3.093
REMARK INTER + INTRA:         -17.104
REMARK INTER:                 -11.588
REMARK INTRA:                  -5.516
REMARK CONF_INDEPENDENT:        3.580
REMARK UNBOUND:                -5.516
REMARK SMILES COc1cc(C(=O)O[C@@H]2Cc3c(O)cc(O)cc3O[C@@H]2c2cc(O)c(O)c(O)c2)cc(O)c1O
REMARK SMILES IDX 8 1 9 4 19 5 20 6 18 7 11 10 17 11 10 12 12 13 15 14 14 15
REMARK SMILES IDX 21 16 29 17 22 18 27 19 23 20 25 21 28 22 24 27 26 32 13 37
REMARK SMILES IDX 16 42 6 47 7 48 5 51 4 52 30 53 3 54 31 55 33 56 2 57 1 58
REMARK SMILES IDX 32 61 34 66
REMARK H PARENT 28 23 24 28 26 33 13 38 16 43 32 62 34 67
REMARK Flexibility Score: inf
ROOT
ATOM      1  O   UNL     1       2.602  -1.341   0.368  1.00  0.00    -0.454 OA
ATOM      2 WAT  UNL     1      -0.084  -0.365   1.281  1.00  0.00     0.000 W 
ATOM      3 WAT  UNL     1       4.820   0.617  -0.128  1.00  0.00     0.000 W 
ENDROOT
BRANCH   1   4
ATOM      4  C   UNL     1       2.368  -1.976  -0.890  1.00  0.00     0.227 C 
ATOM      5  O   UNL     1       0.738  -0.244  -1.534  1.00  0.00    -0.481 OA
ATOM      6  C   UNL     1       0.951  -1.657  -1.384  1.00  0.00     0.245 C 
ATOM      7  C   UNL     1       1.728   0.421  -2.209  1.00  0.00     0.131 A 
ATOM      8 WAT  UNL     1       0.768   0.874   1.250  1.00  0.00     0.000 W 
ATOM      9 WAT  UNL     1      -1.720   0.026  -3.232  1.00  0.00     0.000 W 
ATOM     10  C   UNL     1       3.011  -0.101  -2.412  1.00  0.00     0.040 A 
ATOM     11  C   UNL     1       1.405   1.701  -2.670  1.00  0.00     0.093 A 
ATOM     12  C   UNL     1       3.388  -1.467  -1.906  1.00  0.00     0.093 C 
ATOM     13  C   UNL     1       3.952   0.660  -3.119  1.00  0.00     0.126 A 
ATOM     14  C   UNL     1       2.352   2.453  -3.363  1.00  0.00     0.122 A 
ATOM     15  C   UNL     1       3.624   1.932  -3.591  1.00  0.00     0.092 A 
BRANCH   6  16
ATOM     16  C   UNL     1      -0.110  -2.237  -0.469  1.00  0.00     0.004 A 
ATOM     17  C   UNL     1      -0.498  -3.569  -0.610  1.00  0.00     0.058 A 
ATOM     18  C   UNL     1      -0.696  -1.438   0.511  1.00  0.00     0.058 A 
ATOM     19  C   UNL     1      -1.474  -4.102   0.232  1.00  0.00     0.161 A 
ATOM     20  C   UNL     1      -1.672  -1.971   1.353  1.00  0.00     0.161 A 
ATOM     21  C   UNL     1      -2.061  -3.303   1.214  1.00  0.00     0.200 A 
BRANCH  19  22
ATOM     22  O   UNL     1      -1.845  -5.405   0.086  1.00  0.00    -0.504 OA
ATOM     23  H   UNL     1      -2.705  -5.541   0.517  1.00  0.00     0.293 HD
ATOM     24 WAT  UNL     1       0.156  -7.053   1.594  1.00  0.00     0.000 W 
ATOM     25 WAT  UNL     1      -2.261  -5.865  -2.849  1.00  0.00     0.000 W 
ATOM     26 WAT  UNL     1      -4.475  -5.820   1.405  1.00  0.00     0.000 W 
ENDBRANCH  19  22
BRANCH  20  27
ATOM     27  O   UNL     1      -2.238  -1.179   2.307  1.00  0.00    -0.504 OA
ATOM     28  H   UNL     1      -2.821  -1.722   2.865  1.00  0.00     0.293 HD
ATOM     29 WAT  UNL     1      -3.984   0.796   0.877  1.00  0.00     0.000 W 
ATOM     30 WAT  UNL     1      -0.008  -0.212   4.067  1.00  0.00     0.000 W 
ATOM     31 WAT  UNL     1      -4.023  -2.836   4.011  1.00  0.00     0.000 W 
ENDBRANCH  20  27
BRANCH  21  32
ATOM     32  O   UNL     1      -3.015  -3.825   2.037  1.00  0.00    -0.502 OA
ATOM     33  H   UNL     1      -2.588  -4.091   2.871  1.00  0.00     0.293 HD
ATOM     34 WAT  UNL     1      -4.025  -6.330   0.732  1.00  0.00     0.000 W 
ATOM     35 WAT  UNL     1      -4.919  -1.603   2.695  1.00  0.00     0.000 W 
ATOM     36 WAT  UNL     1      -1.712  -4.636   4.584  1.00  0.00     0.000 W 
ENDBRANCH  21  32
ENDBRANCH   6  16
BRANCH  13  37
ATOM     37  O   UNL     1       5.206   0.178  -3.361  1.00  0.00    -0.507 OA
ATOM     38  H   UNL     1       5.166  -0.461  -4.093  1.00  0.00     0.293 HD
ATOM     39 WAT  UNL     1       6.034  -1.352  -0.916  1.00  0.00     0.000 W 
ATOM     40 WAT  UNL     1       6.858   2.493  -4.314  1.00  0.00     0.000 W 
ATOM     41 WAT  UNL     1       5.087  -1.775  -5.599  1.00  0.00     0.000 W 
ENDBRANCH  13  37
BRANCH  14  42
ATOM     42  O   UNL     1       2.034   3.696  -3.818  1.00  0.00    -0.508 OA
ATOM     43  H   UNL     1       1.366   3.613  -4.521  1.00  0.00     0.293 HD
ATOM     44 WAT  UNL     1       4.507   4.816  -5.095  1.00  0.00     0.000 W 
ATOM     45 WAT  UNL     1       0.729   5.151  -1.543  1.00  0.00     0.000 W 
ATOM     46 WAT  UNL     1      -0.007   3.441  -5.966  1.00  0.00     0.000 W 
ENDBRANCH  14  42
ENDBRANCH   1   4
BRANCH   1  47
ATOM     47  C   UNL     1       3.050  -2.149   1.364  1.00  0.00     0.338 C 
ATOM     48  O   UNL     1       4.212  -2.473   1.564  1.00  0.00    -0.246 OA
ATOM     49 WAT  UNL     1       4.890  -4.282   3.859  1.00  0.00     0.000 W 
ATOM     50 WAT  UNL     1       6.383  -1.457  -0.239  1.00  0.00     0.000 W 
BRANCH  47  51
ATOM     51  C   UNL     1       1.920  -2.610   2.208  1.00  0.00     0.067 A 
ATOM     52  C   UNL     1       1.535  -3.934   2.142  1.00  0.00     0.066 A 
ATOM     53  C   UNL     1       1.287  -1.702   3.031  1.00  0.00     0.066 A 
ATOM     54  C   UNL     1       0.472  -4.368   2.935  1.00  0.00     0.165 A 
ATOM     55  C   UNL     1       0.225  -2.136   3.825  1.00  0.00     0.162 A 
ATOM     56  C   UNL     1      -0.183  -3.469   3.777  1.00  0.00     0.200 A 
BRANCH  54  57
ATOM     57  O   UNL     1       0.086  -5.673   2.881  1.00  0.00    -0.493 OA
ATOM     58  C   UNL     1       1.115  -6.648   2.727  1.00  0.00     0.278 C 
ATOM     59 WAT  UNL     1      -1.579  -5.892   0.395  1.00  0.00     0.000 W 
ATOM     60 WAT  UNL     1      -1.138  -6.240   5.560  1.00  0.00     0.000 W 
ENDBRANCH  54  57
BRANCH  55  61
ATOM     61  O   UNL     1      -0.406  -1.247   4.643  1.00  0.00    -0.504 OA
ATOM     62  H   UNL     1      -1.193  -0.900   4.188  1.00  0.00     0.293 HD
ATOM     63 WAT  UNL     1       1.466   1.065   5.028  1.00  0.00     0.000 W 
ATOM     64 WAT  UNL     1      -1.386  -2.796   7.018  1.00  0.00     0.000 W 
ATOM     65 WAT  UNL     1      -2.811  -0.187   3.252  1.00  0.00     0.000 W 
ENDBRANCH  55  61
BRANCH  56  66
ATOM     66  O   UNL     1      -1.220  -3.893   4.553  1.00  0.00    -0.502 OA
ATOM     67  H   UNL     1      -1.544  -4.739   4.196  1.00  0.00     0.293 HD
ATOM     68 WAT  UNL     1      -3.435  -1.896   4.226  1.00  0.00     0.000 W 
ATOM     69 WAT  UNL     1      -0.101  -4.460   7.278  1.00  0.00     0.000 W 
ATOM     70 WAT  UNL     1      -2.210  -6.477   3.465  1.00  0.00     0.000 W 
ENDBRANCH  56  66
ENDBRANCH  47  51
ENDBRANCH   1  47
TORSDOF 12
ENDMDL
MODEL 6
REMARK VINA RESULT:    -7.906      1.217      3.985
REMARK INTER + INTRA:         -17.060
REMARK INTER:                 -11.486
REMARK INTRA:                  -5.574
REMARK CONF_INDEPENDENT:        3.580
REMARK UNBOUND:                -5.574
REMARK SMILES COc1cc(C(=O)O[C@@H]2Cc3c(O)cc(O)cc3O[C@@H]2c2cc(O)c(O)c(O)c2)cc(O)c1O
REMARK SMILES IDX 8 1 9 4 19 5 20 6 18 7 11 10 17 11 10 12 12 13 15 14 14 15
REMARK SMILES IDX 21 16 29 17 22 18 27 19 23 20 25 21 28 22 24 27 26 32 13 37
REMARK SMILES IDX 16 42 6 47 7 48 5 51 4 52 30 53 3 54 31 55 33 56 2 57 1 58
REMARK SMILES IDX 32 61 34 66
REMARK H PARENT 28 23 24 28 26 33 13 38 16 43 32 62 34 67
REMARK Flexibility Score: inf
ROOT
ATOM      1  O   UNL     1       2.697  -1.261   0.394  1.00  0.00    -0.454 OA
ATOM      2 WAT  UNL     1       0.049  -0.196   1.318  1.00  0.00     0.000 W 
ATOM      3 WAT  UNL     1       4.969   0.624  -0.136  1.00  0.00     0.000 W 
ENDROOT
BRANCH   1   4
ATOM      4  C   UNL     1       2.434  -1.899  -0.856  1.00  0.00     0.227 C 
ATOM      5  O   UNL     1       0.859  -0.120  -1.508  1.00  0.00    -0.481 OA
ATOM      6  C   UNL     1       1.026  -1.538  -1.346  1.00  0.00     0.245 C 
ATOM      7  C   UNL     1       1.866   0.505  -2.195  1.00  0.00     0.131 A 
ATOM      8 WAT  UNL     1       0.944   1.022   1.266  1.00  0.00     0.000 W 
ATOM      9 WAT  UNL     1      -1.599   0.216  -3.194  1.00  0.00     0.000 W 
ATOM     10  C   UNL     1       3.130  -0.061  -2.400  1.00  0.00     0.040 A 
ATOM     11  C   UNL     1       1.583   1.791  -2.666  1.00  0.00     0.093 A 
ATOM     12  C   UNL     1       3.465  -1.434  -1.883  1.00  0.00     0.093 C 
ATOM     13  C   UNL     1       4.092   0.662  -3.120  1.00  0.00     0.126 A 
ATOM     14  C   UNL     1       2.551   2.505  -3.371  1.00  0.00     0.122 A 
ATOM     15  C   UNL     1       3.803   1.939  -3.602  1.00  0.00     0.092 A 
BRANCH   6  16
ATOM     16  C   UNL     1      -0.049  -2.074  -0.419  1.00  0.00     0.004 A 
ATOM     17  C   UNL     1      -0.632  -1.233   0.529  1.00  0.00     0.058 A 
ATOM     18  C   UNL     1      -0.451  -3.405  -0.515  1.00  0.00     0.058 A 
ATOM     19  C   UNL     1      -1.620  -1.727   1.382  1.00  0.00     0.161 A 
ATOM     20  C   UNL     1      -1.439  -3.897   0.337  1.00  0.00     0.161 A 
ATOM     21  C   UNL     1      -2.024  -3.058   1.286  1.00  0.00     0.200 A 
BRANCH  19  22
ATOM     22  O   UNL     1      -2.183  -0.896   2.303  1.00  0.00    -0.504 OA
ATOM     23  H   UNL     1      -2.814  -1.401   2.843  1.00  0.00     0.293 HD
ATOM     24 WAT  UNL     1      -3.775   1.140   0.781  1.00  0.00     0.000 W 
ATOM     25 WAT  UNL     1       0.020  -0.012   4.138  1.00  0.00     0.000 W 
ATOM     26 WAT  UNL     1      -4.112  -2.443   3.953  1.00  0.00     0.000 W 
ENDBRANCH  19  22
BRANCH  20  27
ATOM     27  O   UNL     1      -1.824  -5.201   0.233  1.00  0.00    -0.504 OA
ATOM     28  H   UNL     1      -2.642  -5.332   0.741  1.00  0.00     0.293 HD
ATOM     29 WAT  UNL     1       0.303  -6.845   1.565  1.00  0.00     0.000 W 
ATOM     30 WAT  UNL     1      -2.503  -5.678  -2.650  1.00  0.00     0.000 W 
ATOM     31 WAT  UNL     1      -4.325  -5.602   1.787  1.00  0.00     0.000 W 
ENDBRANCH  20  27
BRANCH  21  32
ATOM     32  O   UNL     1      -2.990  -3.539   2.119  1.00  0.00    -0.502 OA
ATOM     33  H   UNL     1      -2.564  -4.092   2.797  1.00  0.00     0.293 HD
ATOM     34 WAT  UNL     1      -4.737  -5.349   0.483  1.00  0.00     0.000 W 
ATOM     35 WAT  UNL     1      -4.184  -1.178   3.532  1.00  0.00     0.000 W 
ATOM     36 WAT  UNL     1      -1.689  -5.227   4.191  1.00  0.00     0.000 W 
ENDBRANCH  21  32
ENDBRANCH   6  16
BRANCH  13  37
ATOM     37  O   UNL     1       5.327   0.135  -3.364  1.00  0.00    -0.507 OA
ATOM     38  H   UNL     1       5.980   0.576  -2.794  1.00  0.00     0.293 HD
ATOM     39 WAT  UNL     1       6.027   0.839  -6.195  1.00  0.00     0.000 W 
ATOM     40 WAT  UNL     1       5.230  -2.739  -2.511  1.00  0.00     0.000 W 
ATOM     41 WAT  UNL     1       7.325   1.484  -1.623  1.00  0.00     0.000 W 
ENDBRANCH  13  37
BRANCH  14  42
ATOM     42  O   UNL     1       2.272   3.753  -3.836  1.00  0.00    -0.508 OA
ATOM     43  H   UNL     1       1.687   4.203  -3.201  1.00  0.00     0.293 HD
ATOM     44 WAT  UNL     1       0.703   3.408  -6.371  1.00  0.00     0.000 W 
ATOM     45 WAT  UNL     1       4.858   5.272  -3.867  1.00  0.00     0.000 W 
ATOM     46 WAT  UNL     1       0.486   5.127  -1.895  1.00  0.00     0.000 W 
ENDBRANCH  14  42
ENDBRANCH   1   4
BRANCH   1  47
ATOM     47  C   UNL     1       3.128  -2.074   1.394  1.00  0.00     0.338 C 
ATOM     48  O   UNL     1       4.287  -2.393   1.616  1.00  0.00    -0.246 OA
ATOM     49 WAT  UNL     1       4.926  -4.214   3.912  1.00  0.00     0.000 W 
ATOM     50 WAT  UNL     1       6.491  -1.354  -0.134  1.00  0.00     0.000 W 
BRANCH  47  51
ATOM     51  C   UNL     1       1.982  -2.547   2.210  1.00  0.00     0.067 A 
ATOM     52  C   UNL     1       1.584  -3.863   2.101  1.00  0.00     0.066 A 
ATOM     53  C   UNL     1       1.350  -1.656   3.053  1.00  0.00     0.066 A 
ATOM     54  C   UNL     1       0.507  -4.308   2.868  1.00  0.00     0.165 A 
ATOM     55  C   UNL     1       0.274  -2.100   3.820  1.00  0.00     0.162 A 
ATOM     56  C   UNL     1      -0.148  -3.426   3.728  1.00  0.00     0.200 A 
BRANCH  54  57
ATOM     57  O   UNL     1       0.107  -5.607   2.771  1.00  0.00    -0.493 OA
ATOM     58  C   UNL     1       1.097  -6.565   2.403  1.00  0.00     0.278 C 
ATOM     59 WAT  UNL     1      -1.888  -5.644   0.531  1.00  0.00     0.000 W 
ATOM     60 WAT  UNL     1      -0.738  -6.377   5.544  1.00  0.00     0.000 W 
ENDBRANCH  54  57
BRANCH  55  61
ATOM     61  O   UNL     1      -0.357  -1.229   4.657  1.00  0.00    -0.504 OA
ATOM     62  H   UNL     1      -1.158  -0.892   4.219  1.00  0.00     0.293 HD
ATOM     63 WAT  UNL     1       1.484   1.110   5.029  1.00  0.00     0.000 W 
ATOM     64 WAT  UNL     1      -1.270  -2.813   7.035  1.00  0.00     0.000 W 
ATOM     65 WAT  UNL     1      -2.803  -0.197   3.317  1.00  0.00     0.000 W 
ENDBRANCH  55  61
BRANCH  56  66
ATOM     66  O   UNL     1      -1.200  -3.861   4.479  1.00  0.00    -0.502 OA
ATOM     67  H   UNL     1      -1.516  -4.702   4.105  1.00  0.00     0.293 HD
ATOM     68 WAT  UNL     1      -3.409  -1.860   4.139  1.00  0.00     0.000 W 
ATOM     69 WAT  UNL     1      -0.131  -4.466   7.217  1.00  0.00     0.000 W 
ATOM     70 WAT  UNL     1      -2.168  -6.430   3.338  1.00  0.00     0.000 W 
ENDBRANCH  56  66
ENDBRANCH  47  51
ENDBRANCH   1  47
TORSDOF 12
ENDMDL
MODEL 7
REMARK VINA RESULT:    -7.879      0.867      3.143
REMARK INTER + INTRA:         -17.037
REMARK INTER:                 -11.459
REMARK INTRA:                  -5.579
REMARK CONF_INDEPENDENT:        3.580
REMARK UNBOUND:                -5.579
REMARK SMILES COc1cc(C(=O)O[C@@H]2Cc3c(O)cc(O)cc3O[C@@H]2c2cc(O)c(O)c(O)c2)cc(O)c1O
REMARK SMILES IDX 8 1 9 4 19 5 20 6 18 7 11 10 17 11 10 12 12 13 15 14 14 15
REMARK SMILES IDX 21 16 29 17 22 18 27 19 23 20 25 21 28 22 24 27 26 32 13 37
REMARK SMILES IDX 16 42 6 47 7 48 5 51 4 52 30 53 3 54 31 55 33 56 2 57 1 58
REMARK SMILES IDX 32 61 34 66
REMARK H PARENT 28 23 24 28 26 33 13 38 16 43 32 62 34 67
REMARK Flexibility Score: inf
ROOT
ATOM      1  O   UNL     1       2.690  -1.454   0.449  1.00  0.00    -0.454 OA
ATOM      2 WAT  UNL     1       0.049  -0.269   1.235  1.00  0.00     0.000 W 
ATOM      3 WAT  UNL     1       5.066   0.328   0.021  1.00  0.00     0.000 W 
ENDROOT
BRANCH   1   4
ATOM      4  C   UNL     1       2.462  -2.090  -0.809  1.00  0.00     0.227 C 
ATOM      5  O   UNL     1       0.897  -0.316  -1.496  1.00  0.00    -0.481 OA
ATOM      6  C   UNL     1       1.065  -1.734  -1.333  1.00  0.00     0.245 C 
ATOM      7  C   UNL     1       1.919   0.315  -2.156  1.00  0.00     0.131 A 
ATOM      8 WAT  UNL     1       0.906   0.820   1.281  1.00  0.00     0.000 W 
ATOM      9 WAT  UNL     1      -1.518   0.014  -3.243  1.00  0.00     0.000 W 
ATOM     10  C   UNL     1       3.190  -0.246  -2.331  1.00  0.00     0.040 A 
ATOM     11  C   UNL     1       1.643   1.600  -2.632  1.00  0.00     0.093 A 
ATOM     12  C   UNL     1       3.517  -1.618  -1.808  1.00  0.00     0.093 C 
ATOM     13  C   UNL     1       4.166   0.482  -3.024  1.00  0.00     0.126 A 
ATOM     14  C   UNL     1       2.625   2.320  -3.311  1.00  0.00     0.122 A 
ATOM     15  C   UNL     1       3.885   1.760  -3.510  1.00  0.00     0.092 A 
BRANCH   6  16
ATOM     16  C   UNL     1      -0.030  -2.276  -0.435  1.00  0.00     0.004 A 
ATOM     17  C   UNL     1      -0.654  -1.435   0.486  1.00  0.00     0.058 A 
ATOM     18  C   UNL     1      -0.411  -3.613  -0.531  1.00  0.00     0.058 A 
ATOM     19  C   UNL     1      -1.662  -1.934   1.312  1.00  0.00     0.161 A 
ATOM     20  C   UNL     1      -1.418  -4.112   0.295  1.00  0.00     0.161 A 
ATOM     21  C   UNL     1      -2.044  -3.272   1.217  1.00  0.00     0.200 A 
BRANCH  19  22
ATOM     22  O   UNL     1      -2.265  -1.103   2.208  1.00  0.00    -0.504 OA
ATOM     23  H   UNL     1      -2.834  -1.628   2.795  1.00  0.00     0.293 HD
ATOM     24 WAT  UNL     1      -4.069   0.706   0.637  1.00  0.00     0.000 W 
ATOM     25 WAT  UNL     1      -0.089   0.061   3.914  1.00  0.00     0.000 W 
ATOM     26 WAT  UNL     1      -4.004  -2.710   4.004  1.00  0.00     0.000 W 
ENDBRANCH  19  22
BRANCH  20  27
ATOM     27  O   UNL     1      -1.781  -5.421   0.192  1.00  0.00    -0.504 OA
ATOM     28  H   UNL     1      -2.673  -5.533   0.563  1.00  0.00     0.293 HD
ATOM     29 WAT  UNL     1       0.093  -6.985   1.935  1.00  0.00     0.000 W 
ATOM     30 WAT  UNL     1      -1.974  -6.041  -2.738  1.00  0.00     0.000 W 
ATOM     31 WAT  UNL     1      -4.507  -5.766   1.326  1.00  0.00     0.000 W 
ENDBRANCH  20  27
BRANCH  21  32
ATOM     32  O   UNL     1      -3.029  -3.759   2.024  1.00  0.00    -0.502 OA
ATOM     33  H   UNL     1      -2.621  -4.084   2.845  1.00  0.00     0.293 HD
ATOM     34 WAT  UNL     1      -4.210  -6.138   0.629  1.00  0.00     0.000 W 
ATOM     35 WAT  UNL     1      -4.777  -1.438   2.770  1.00  0.00     0.000 W 
ATOM     36 WAT  UNL     1      -1.782  -4.751   4.533  1.00  0.00     0.000 W 
ENDBRANCH  21  32
ENDBRANCH   6  16
BRANCH  13  37
ATOM     37  O   UNL     1       5.410  -0.038  -3.238  1.00  0.00    -0.507 OA
ATOM     38  H   UNL     1       6.011   0.675  -3.512  1.00  0.00     0.293 HD
ATOM     39 WAT  UNL     1       5.175  -1.921  -5.562  1.00  0.00     0.000 W 
ATOM     40 WAT  UNL     1       6.398  -1.040  -0.589  1.00  0.00     0.000 W 
ATOM     41 WAT  UNL     1       7.250   2.140  -4.077  1.00  0.00     0.000 W 
ENDBRANCH  13  37
BRANCH  14  42
ATOM     42  O   UNL     1       2.352   3.568  -3.780  1.00  0.00    -0.508 OA
ATOM     43  H   UNL     1       2.869   3.720  -4.590  1.00  0.00     0.293 HD
ATOM     44 WAT  UNL     1       3.358   5.510  -1.726  1.00  0.00     0.000 W 
ATOM     45 WAT  UNL     1      -0.540   3.589  -4.575  1.00  0.00     0.000 W 
ATOM     46 WAT  UNL     1       3.932   4.033  -6.256  1.00  0.00     0.000 W 
ENDBRANCH  14  42
ENDBRANCH   1   4
BRANCH   1  47
ATOM     47  C   UNL     1       3.036  -2.276   1.474  1.00  0.00     0.338 C 
ATOM     48  O   UNL     1       4.156  -2.708   1.707  1.00  0.00    -0.246 OA
ATOM     49 WAT  UNL     1       4.606  -4.515   4.059  1.00  0.00     0.000 W 
ATOM     50 WAT  UNL     1       6.453  -1.960  -0.072  1.00  0.00     0.000 W 
BRANCH  47  51
ATOM     51  C   UNL     1       1.850  -2.600   2.304  1.00  0.00     0.067 A 
ATOM     52  C   UNL     1       1.400  -1.669   3.218  1.00  0.00     0.066 A 
ATOM     53  C   UNL     1       1.232  -3.823   2.137  1.00  0.00     0.066 A 
ATOM     54  C   UNL     1       0.285  -1.974   3.998  1.00  0.00     0.165 A 
ATOM     55  C   UNL     1       0.117  -4.128   2.917  1.00  0.00     0.162 A 
ATOM     56  C   UNL     1      -0.357  -3.203   3.848  1.00  0.00     0.200 A 
BRANCH  54  57
ATOM     57  O   UNL     1      -0.170  -1.061   4.902  1.00  0.00    -0.493 OA
ATOM     58  C   UNL     1       0.711  -0.708   5.966  1.00  0.00     0.278 C 
ATOM     59 WAT  UNL     1      -2.514  -2.378   6.232  1.00  0.00     0.000 W 
ATOM     60 WAT  UNL     1      -0.559   1.466   3.334  1.00  0.00     0.000 W 
ENDBRANCH  54  57
BRANCH  55  61
ATOM     61  O   UNL     1      -0.501  -5.332   2.760  1.00  0.00    -0.504 OA
ATOM     62  H   UNL     1      -1.412  -5.184   2.453  1.00  0.00     0.293 HD
ATOM     63 WAT  UNL     1      -0.690  -6.575   5.484  1.00  0.00     0.000 W 
ATOM     64 WAT  UNL     1       0.937  -6.767   0.553  1.00  0.00     0.000 W 
ATOM     65 WAT  UNL     1      -3.286  -4.879   1.824  1.00  0.00     0.000 W 
ENDBRANCH  55  61
BRANCH  56  66
ATOM     66  O   UNL     1      -1.448  -3.501   4.609  1.00  0.00    -0.502 OA
ATOM     67  H   UNL     1      -1.909  -4.256   4.203  1.00  0.00     0.293 HD
ATOM     68 WAT  UNL     1      -3.302  -1.148   4.443  1.00  0.00     0.000 W 
ATOM     69 WAT  UNL     1      -0.431  -4.425   7.277  1.00  0.00     0.000 W 
ATOM     70 WAT  UNL     1      -2.856  -5.808   3.370  1.00  0.00     0.000 W 
ENDBRANCH  56  66
ENDBRANCH  47  51
ENDBRANCH   1  47
TORSDOF 12
ENDMDL
MODEL 8
REMARK VINA RESULT:    -7.622      0.834      1.973
REMARK INTER + INTRA:         -17.077
REMARK INTER:                 -11.202
REMARK INTRA:                  -5.875
REMARK CONF_INDEPENDENT:        3.580
REMARK UNBOUND:                -5.875
REMARK SMILES COc1cc(C(=O)O[C@@H]2Cc3c(O)cc(O)cc3O[C@@H]2c2cc(O)c(O)c(O)c2)cc(O)c1O
REMARK SMILES IDX 8 1 9 4 19 5 20 6 18 7 11 10 17 11 10 12 12 13 15 14 14 15
REMARK SMILES IDX 21 16 29 17 22 18 27 19 23 20 25 21 28 22 24 27 26 32 13 37
REMARK SMILES IDX 16 42 6 47 7 48 5 51 4 52 30 53 3 54 31 55 33 56 2 57 1 58
REMARK SMILES IDX 32 61 34 66
REMARK H PARENT 28 23 24 28 26 33 13 38 16 43 32 62 34 67
REMARK Flexibility Score: inf
ROOT
ATOM      1  O   UNL     1       2.607  -1.348   0.563  1.00  0.00    -0.454 OA
ATOM      2 WAT  UNL     1      -0.005  -0.094   1.340  1.00  0.00     0.000 W 
ATOM      3 WAT  UNL     1       5.023   0.374   0.117  1.00  0.00     0.000 W 
ENDROOT
BRANCH   1   4
ATOM      4  C   UNL     1       2.363  -1.990  -0.689  1.00  0.00     0.227 C 
ATOM      5  O   UNL     1       0.766  -0.234  -1.352  1.00  0.00    -0.481 OA
ATOM      6  C   UNL     1       0.953  -1.650  -1.188  1.00  0.00     0.245 C 
ATOM      7  C   UNL     1       1.769   0.406  -2.032  1.00  0.00     0.131 A 
ATOM      8 WAT  UNL     1       0.814   0.910   1.422  1.00  0.00     0.000 W 
ATOM      9 WAT  UNL     1      -1.684   0.066  -3.055  1.00  0.00     0.000 W 
ATOM     10  C   UNL     1       3.043  -0.142  -2.228  1.00  0.00     0.040 A 
ATOM     11  C   UNL     1       1.470   1.687  -2.505  1.00  0.00     0.093 A 
ATOM     12  C   UNL     1       3.394  -1.509  -1.709  1.00  0.00     0.093 C 
ATOM     13  C   UNL     1       3.998   0.595  -2.941  1.00  0.00     0.126 A 
ATOM     14  C   UNL     1       2.432   2.415  -3.204  1.00  0.00     0.122 A 
ATOM     15  C   UNL     1       3.694   1.868  -3.425  1.00  0.00     0.092 A 
BRANCH   6  16
ATOM     16  C   UNL     1      -0.120  -2.201  -0.269  1.00  0.00     0.004 A 
ATOM     17  C   UNL     1      -0.500  -3.539  -0.367  1.00  0.00     0.058 A 
ATOM     18  C   UNL     1      -0.725  -1.369   0.673  1.00  0.00     0.058 A 
ATOM     19  C   UNL     1      -1.487  -4.045   0.479  1.00  0.00     0.161 A 
ATOM     20  C   UNL     1      -1.712  -1.876   1.518  1.00  0.00     0.161 A 
ATOM     21  C   UNL     1      -2.093  -3.214   1.422  1.00  0.00     0.200 A 
BRANCH  19  22
ATOM     22  O   UNL     1      -1.850  -5.354   0.375  1.00  0.00    -0.504 OA
ATOM     23  H   UNL     1      -2.734  -5.471   0.761  1.00  0.00     0.293 HD
ATOM     24 WAT  UNL     1       0.057  -6.924   2.076  1.00  0.00     0.000 W 
ATOM     25 WAT  UNL     1      -2.093  -5.957  -2.554  1.00  0.00     0.000 W 
ATOM     26 WAT  UNL     1      -4.554  -5.709   1.556  1.00  0.00     0.000 W 
ENDBRANCH  19  22
BRANCH  20  27
ATOM     27  O   UNL     1      -2.295  -1.053   2.434  1.00  0.00    -0.504 OA
ATOM     28  H   UNL     1      -2.040  -1.341   3.327  1.00  0.00     0.293 HD
ATOM     29 WAT  UNL     1      -5.259  -1.452   2.201  1.00  0.00     0.000 W 
ATOM     30 WAT  UNL     1      -1.112   1.675   2.029  1.00  0.00     0.000 W 
ATOM     31 WAT  UNL     1      -1.517  -1.932   5.165  1.00  0.00     0.000 W 
ENDBRANCH  20  27
BRANCH  21  32
ATOM     32  O   UNL     1      -3.056  -3.710   2.249  1.00  0.00    -0.502 OA
ATOM     33  H   UNL     1      -3.140  -3.115   3.015  1.00  0.00     0.293 HD
ATOM     34 WAT  UNL     1      -2.051  -6.340   3.288  1.00  0.00     0.000 W 
ATOM     35 WAT  UNL     1      -5.651  -3.583   0.749  1.00  0.00     0.000 W 
ATOM     36 WAT  UNL     1      -3.313  -1.892   4.587  1.00  0.00     0.000 W 
ENDBRANCH  21  32
ENDBRANCH   6  16
BRANCH  13  37
ATOM     37  O   UNL     1       5.243   0.087  -3.176  1.00  0.00    -0.507 OA
ATOM     38  H   UNL     1       5.629   0.534  -3.949  1.00  0.00     0.293 HD
ATOM     39 WAT  UNL     1       4.877  -2.793  -3.931  1.00  0.00     0.000 W 
ATOM     40 WAT  UNL     1       6.939   0.815  -0.812  1.00  0.00     0.000 W 
ATOM     41 WAT  UNL     1       6.425   1.452  -5.538  1.00  0.00     0.000 W 
ENDBRANCH  13  37
BRANCH  14  42
ATOM     42  O   UNL     1       2.138   3.659  -3.671  1.00  0.00    -0.508 OA
ATOM     43  H   UNL     1       2.582   3.788  -4.527  1.00  0.00     0.293 HD
ATOM     44 WAT  UNL     1       3.354   5.620  -1.754  1.00  0.00     0.000 W 
ATOM     45 WAT  UNL     1      -0.814   3.715  -4.204  1.00  0.00     0.000 W 
ATOM     46 WAT  UNL     1       3.496   4.052  -6.287  1.00  0.00     0.000 W 
ENDBRANCH  14  42
ENDBRANCH   1   4
BRANCH   1  47
ATOM     47  C   UNL     1       2.935  -2.169   1.595  1.00  0.00     0.338 C 
ATOM     48  O   UNL     1       4.049  -2.602   1.847  1.00  0.00    -0.246 OA
ATOM     49 WAT  UNL     1       4.457  -4.406   4.210  1.00  0.00     0.000 W 
ATOM     50 WAT  UNL     1       6.376  -1.863   0.103  1.00  0.00     0.000 W 
BRANCH  47  51
ATOM     51  C   UNL     1       1.734  -2.489   2.406  1.00  0.00     0.067 A 
ATOM     52  C   UNL     1       1.202  -1.512   3.224  1.00  0.00     0.066 A 
ATOM     53  C   UNL     1       1.187  -3.752   2.319  1.00  0.00     0.066 A 
ATOM     54  C   UNL     1       0.073  -1.813   3.987  1.00  0.00     0.165 A 
ATOM     55  C   UNL     1       0.058  -4.053   3.081  1.00  0.00     0.162 A 
ATOM     56  C   UNL     1      -0.499  -3.084   3.916  1.00  0.00     0.200 A 
BRANCH  54  57
ATOM     57  O   UNL     1      -0.463  -0.857   4.795  1.00  0.00    -0.493 OA
ATOM     58  C   UNL     1       0.447  -0.080   5.572  1.00  0.00     0.278 C 
ATOM     59 WAT  UNL     1      -2.116  -2.360   6.797  1.00  0.00     0.000 W 
ATOM     60 WAT  UNL     1      -1.772   1.098   2.935  1.00  0.00     0.000 W 
ENDBRANCH  54  57
BRANCH  55  61
ATOM     61  O   UNL     1      -0.491  -5.298   3.003  1.00  0.00    -0.504 OA
ATOM     62  H   UNL     1      -1.432  -5.216   2.771  1.00  0.00     0.293 HD
ATOM     63 WAT  UNL     1      -0.370  -6.479   5.758  1.00  0.00     0.000 W 
ATOM     64 WAT  UNL     1       0.849  -6.696   0.711  1.00  0.00     0.000 W 
ATOM     65 WAT  UNL     1      -3.368  -5.047   2.297  1.00  0.00     0.000 W 
ENDBRANCH  55  61
BRANCH  56  66
ATOM     66  O   UNL     1      -1.603  -3.377   4.660  1.00  0.00    -0.502 OA
ATOM     67  H   UNL     1      -2.095  -4.087   4.211  1.00  0.00     0.293 HD
ATOM     68 WAT  UNL     1      -3.353  -0.941   4.632  1.00  0.00     0.000 W 
ATOM     69 WAT  UNL     1      -0.630  -4.497   7.268  1.00  0.00     0.000 W 
ATOM     70 WAT  UNL     1      -3.107  -5.546   3.290  1.00  0.00     0.000 W 
ENDBRANCH  56  66
ENDBRANCH  47  51
ENDBRANCH   1  47
TORSDOF 12
ENDMDL
MODEL 9
REMARK VINA RESULT:    -7.471      1.113      3.165
REMARK INTER + INTRA:         -16.938
REMARK INTER:                 -11.051
REMARK INTRA:                  -5.887
REMARK CONF_INDEPENDENT:        3.580
REMARK UNBOUND:                -5.887
REMARK SMILES COc1cc(C(=O)O[C@@H]2Cc3c(O)cc(O)cc3O[C@@H]2c2cc(O)c(O)c(O)c2)cc(O)c1O
REMARK SMILES IDX 8 1 9 4 19 5 20 6 18 7 11 10 17 11 10 12 12 13 15 14 14 15
REMARK SMILES IDX 21 16 29 17 22 18 27 19 23 20 25 21 28 22 24 27 26 32 13 37
REMARK SMILES IDX 16 42 6 47 7 48 5 51 4 52 30 53 3 54 31 55 33 56 2 57 1 58
REMARK SMILES IDX 32 61 34 66
REMARK H PARENT 28 23 24 28 26 33 13 38 16 43 32 62 34 67
REMARK Flexibility Score: inf
ROOT
ATOM      1  O   UNL     1       2.651  -1.295   0.362  1.00  0.00    -0.454 OA
ATOM      2 WAT  UNL     1       0.103  -0.246   1.548  1.00  0.00     0.000 W 
ATOM      3 WAT  UNL     1       4.853   0.604  -0.380  1.00  0.00     0.000 W 
ENDROOT
BRANCH   1   4
ATOM      4  C   UNL     1       2.269  -1.928  -0.860  1.00  0.00     0.227 C 
ATOM      5  O   UNL     1       0.733  -0.083  -1.413  1.00  0.00    -0.481 OA
ATOM      6  C   UNL     1       0.847  -1.506  -1.249  1.00  0.00     0.245 C 
ATOM      7  C   UNL     1       1.715   0.491  -2.177  1.00  0.00     0.131 A 
ATOM      8 WAT  UNL     1       1.072   1.073   1.335  1.00  0.00     0.000 W 
ATOM      9 WAT  UNL     1      -1.823   0.356  -2.919  1.00  0.00     0.000 W 
ATOM     10  C   UNL     1       2.934  -0.134  -2.469  1.00  0.00     0.040 A 
ATOM     11  C   UNL     1       1.457   1.785  -2.639  1.00  0.00     0.093 A 
ATOM     12  C   UNL     1       3.242  -1.517  -1.964  1.00  0.00     0.093 C 
ATOM     13  C   UNL     1       3.872   0.539  -3.263  1.00  0.00     0.126 A 
ATOM     14  C   UNL     1       2.402   2.450  -3.420  1.00  0.00     0.122 A 
ATOM     15  C   UNL     1       3.607   1.825  -3.736  1.00  0.00     0.092 A 
BRANCH   6  16
ATOM     16  C   UNL     1      -0.181  -1.985  -0.241  1.00  0.00     0.004 A 
ATOM     17  C   UNL     1      -0.474  -3.344  -0.141  1.00  0.00     0.058 A 
ATOM     18  C   UNL     1      -0.829  -1.067   0.582  1.00  0.00     0.058 A 
ATOM     19  C   UNL     1      -1.419  -3.785   0.787  1.00  0.00     0.161 A 
ATOM     20  C   UNL     1      -1.774  -1.507   1.509  1.00  0.00     0.161 A 
ATOM     21  C   UNL     1      -2.069  -2.866   1.611  1.00  0.00     0.200 A 
BRANCH  19  22
ATOM     22  O   UNL     1      -1.697  -5.116   0.877  1.00  0.00    -0.504 OA
ATOM     23  H   UNL     1      -2.575  -5.230   1.278  1.00  0.00     0.293 HD
ATOM     24 WAT  UNL     1       0.293  -6.293   2.787  1.00  0.00     0.000 W 
ATOM     25 WAT  UNL     1      -1.880  -6.157  -1.931  1.00  0.00     0.000 W 
ATOM     26 WAT  UNL     1      -4.382  -5.465   2.103  1.00  0.00     0.000 W 
ENDBRANCH  19  22
BRANCH  20  27
ATOM     27  O   UNL     1      -2.401  -0.599   2.308  1.00  0.00    -0.504 OA
ATOM     28  H   UNL     1      -2.482  -0.967   3.204  1.00  0.00     0.293 HD
ATOM     29 WAT  UNL     1      -5.187  -0.279   1.242  1.00  0.00     0.000 W 
ATOM     30 WAT  UNL     1      -0.588   1.784   2.506  1.00  0.00     0.000 W 
ATOM     31 WAT  UNL     1      -2.649  -1.724   5.048  1.00  0.00     0.000 W 
ENDBRANCH  20  27
BRANCH  21  32
ATOM     32  O   UNL     1      -2.991  -3.298   2.518  1.00  0.00    -0.502 OA
ATOM     33  H   UNL     1      -2.613  -4.051   3.005  1.00  0.00     0.293 HD
ATOM     34 WAT  UNL     1      -5.330  -4.346   0.959  1.00  0.00     0.000 W 
ATOM     35 WAT  UNL     1      -3.381  -1.078   4.497  1.00  0.00     0.000 W 
ATOM     36 WAT  UNL     1      -1.837  -5.598   4.007  1.00  0.00     0.000 W 
ENDBRANCH  21  32
ENDBRANCH   6  16
BRANCH  13  37
ATOM     37  O   UNL     1       5.061  -0.045  -3.591  1.00  0.00    -0.507 OA
ATOM     38  H   UNL     1       4.892  -0.811  -4.166  1.00  0.00     0.293 HD
ATOM     39 WAT  UNL     1       6.237  -1.110  -1.045  1.00  0.00     0.000 W 
ATOM     40 WAT  UNL     1       6.586   1.951  -5.230  1.00  0.00     0.000 W 
ATOM     41 WAT  UNL     1       4.546  -2.388  -5.348  1.00  0.00     0.000 W 
ENDBRANCH  13  37
BRANCH  14  42
ATOM     42  O   UNL     1       2.146   3.706  -3.876  1.00  0.00    -0.508 OA
ATOM     43  H   UNL     1       1.550   4.153  -3.251  1.00  0.00     0.293 HD
ATOM     44 WAT  UNL     1       0.643   3.409  -6.455  1.00  0.00     0.000 W 
ATOM     45 WAT  UNL     1       4.747   5.201  -3.819  1.00  0.00     0.000 W 
ATOM     46 WAT  UNL     1       0.323   5.071  -1.965  1.00  0.00     0.000 W 
ENDBRANCH  14  42
ENDBRANCH   1   4
BRANCH   1  47
ATOM     47  C   UNL     1       3.182  -2.110   1.309  1.00  0.00     0.338 C 
ATOM     48  O   UNL     1       4.372  -2.306   1.509  1.00  0.00    -0.246 OA
ATOM     49 WAT  UNL     1       5.238  -4.175   3.691  1.00  0.00     0.000 W 
ATOM     50 WAT  UNL     1       6.426  -0.921  -0.183  1.00  0.00     0.000 W 
BRANCH  47  51
ATOM     51  C   UNL     1       2.106  -2.758   2.100  1.00  0.00     0.067 A 
ATOM     52  C   UNL     1       2.060  -4.136   2.158  1.00  0.00     0.066 A 
ATOM     53  C   UNL     1       1.185  -1.963   2.751  1.00  0.00     0.066 A 
ATOM     54  C   UNL     1       1.048  -4.745   2.902  1.00  0.00     0.165 A 
ATOM     55  C   UNL     1       0.175  -2.573   3.495  1.00  0.00     0.162 A 
ATOM     56  C   UNL     1       0.105  -3.964   3.570  1.00  0.00     0.200 A 
BRANCH  54  57
ATOM     57  O   UNL     1       0.993  -6.105   2.969  1.00  0.00    -0.493 OA
ATOM     58  C   UNL     1       1.866  -6.744   3.898  1.00  0.00     0.278 C 
ATOM     59 WAT  UNL     1       1.890  -7.058   0.269  1.00  0.00     0.000 W 
ATOM     60 WAT  UNL     1      -1.776  -6.731   3.937  1.00  0.00     0.000 W 
ENDBRANCH  54  57
BRANCH  55  61
ATOM     61  O   UNL     1      -0.740  -1.798   4.143  1.00  0.00    -0.504 OA
ATOM     62  H   UNL     1      -1.627  -1.998   3.799  1.00  0.00     0.293 HD
ATOM     63 WAT  UNL     1      -0.143   1.050   3.412  1.00  0.00     0.000 W 
ATOM     64 WAT  UNL     1      -0.713  -2.644   7.021  1.00  0.00     0.000 W 
ATOM     65 WAT  UNL     1      -3.451  -2.409   3.089  1.00  0.00     0.000 W 
ENDBRANCH  55  61
BRANCH  56  66
ATOM     66  O   UNL     1      -0.882  -4.559   4.297  1.00  0.00    -0.502 OA
ATOM     67  H   UNL     1      -1.666  -3.983   4.278  1.00  0.00     0.293 HD
ATOM     68 WAT  UNL     1       0.064  -4.663   7.142  1.00  0.00     0.000 W 
ATOM     69 WAT  UNL     1      -1.619  -7.092   2.867  1.00  0.00     0.000 W 
ATOM     70 WAT  UNL     1      -3.279  -2.800   4.240  1.00  0.00     0.000 W 
ENDBRANCH  56  66
ENDBRANCH  47  51
ENDBRANCH   1  47
TORSDOF 12
ENDMDL
