MODEL 1
REMARK VINA RESULT:      -8.9      0.000      0.000
REMARK  Name = 5320623
REMARK  11 active torsions:
REMARK  status: ('A' for Active; 'I' for Inactive)
REMARK    1  A    between atoms: O_2  and  C_16
REMARK    2  A    between atoms: O_2  and  C_18
REMARK    3  A    between atoms: O_3  and  C_12
REMARK    4  A    between atoms: O_4  and  C_13
REMARK    5  A    between atoms: O_5  and  C_14
REMARK    6  A    between atoms: O_6  and  C_17
REMARK    7  A    between atoms: O_8  and  C_20
REMARK    8  A    between atoms: O_9  and  C_23
REMARK    9  A    between atoms: O_11  and  C_32
REMARK   10  A    between atoms: C_15  and  C_17
REMARK   11  A    between atoms: C_25  and  C_27
REMARK                            x       y       z     vdW  Elec       q    Type
REMARK                         _______ _______ _______ _____ _____    ______ ____
ROOT
ATOM      7  O   UNL     1       3.714  42.770  25.079  0.00  0.00    +0.000 OA
ATOM     10  O   UNL     1       1.427  39.859  23.378  0.00  0.00    +0.000 OA
ATOM     18  C   UNL     1       3.923  43.847  21.603  0.00  0.00    +0.000 A 
ATOM     19  C   UNL     1       4.101  43.794  22.986  0.00  0.00    +0.000 A 
ATOM     20  C   UNL     1       3.149  42.881  20.959  0.00  0.00    +0.000 A 
ATOM     21  C   UNL     1       3.504  42.771  23.723  0.00  0.00    +0.000 A 
ATOM     22  C   UNL     1       2.731  41.806  23.078  0.00  0.00    +0.000 A 
ATOM     23  C   UNL     1       2.551  41.856  21.694  0.00  0.00    +0.000 A 
ATOM     24  C   UNL     1       2.114  40.739  23.879  0.00  0.00    +0.000 A 
ATOM     25  C   UNL     1       3.126  41.771  25.838  0.00  0.00    +0.000 A 
ATOM     26  C   UNL     1       2.369  40.784  25.333  0.00  0.00    +0.000 A 
ENDROOT
BRANCH  25  27
ATOM     27  C   UNL     1       3.423  41.861  27.282  0.00  0.00    +0.000 A 
ATOM     28  C   UNL     1       2.824  40.973  28.179  0.00  0.00    +0.000 A 
ATOM     29  C   UNL     1       4.302  42.837  27.758  0.00  0.00    +0.000 A 
ATOM     30  C   UNL     1       3.104  41.060  29.542  0.00  0.00    +0.000 A 
ATOM     31  C   UNL     1       4.582  42.924  29.121  0.00  0.00    +0.000 A 
ATOM     32  C   UNL     1       3.983  42.036  30.014  0.00  0.00    +0.000 A 
BRANCH  32  11
ATOM     11  O   UNL     1       4.256  42.120  31.345  0.00  0.00    +0.000 OA
ATOM     39  H   UNL     1       3.592  42.691  31.767  0.00  0.00    +0.000 HD
ENDBRANCH  32  11
ENDBRANCH  25  27
BRANCH  20   8
ATOM      8  O   UNL     1       2.981  42.940  19.606  0.00  0.00    +0.000 OA
ATOM     37  H   UNL     1       3.349  43.783  19.288  0.00  0.00    +0.000 HD
ENDBRANCH  20   8
BRANCH  23   9
ATOM      9  O   UNL     1       1.802  40.932  21.028  0.00  0.00    +0.000 OA
ATOM     38  H   UNL     1       1.761  41.140  20.082  0.00  0.00    +0.000 HD
ENDBRANCH  23   9
BRANCH  18   2
ATOM      2  O   UNL     1       4.511  44.852  20.892  0.00  0.00    +0.000 OA
BRANCH   2  16
ATOM      1  O   UNL     1       6.769  45.337  21.229  0.00  0.00    +0.000 OA
ATOM     12  C   UNL     1       7.347  44.988  18.436  0.00  0.00    +0.000 C 
ATOM     13  C   UNL     1       8.337  45.637  19.404  0.00  0.00    +0.000 C 
ATOM     14  C   UNL     1       5.916  45.070  18.970  0.00  0.00    +0.000 C 
ATOM     15  C   UNL     1       8.123  45.120  20.829  0.00  0.00    +0.000 C 
ATOM     16  C   UNL     1       5.839  44.612  20.427  0.00  0.00    +0.000 C 
BRANCH  12   3
ATOM      3  O   UNL     1       7.431  45.680  17.189  0.00  0.00    +0.000 OA
ATOM     33  H   UNL     1       8.372  45.839  17.008  0.00  0.00    +0.000 HD
ENDBRANCH  12   3
BRANCH  13   4
ATOM      4  O   UNL     1       9.667  45.339  18.989  0.00  0.00    +0.000 OA
ATOM     34  H   UNL     1      10.241  46.072  19.271  0.00  0.00    +0.000 HD
ENDBRANCH  13   4
BRANCH  14   5
ATOM      5  O   UNL     1       5.071  44.225  18.190  0.00  0.00    +0.000 OA
ATOM     35  H   UNL     1       4.693  44.757  17.470  0.00  0.00    +0.000 HD
ENDBRANCH  14   5
BRANCH  15  17
ATOM     17  C   UNL     1       9.019  45.838  21.832  0.00  0.00    +0.000 C 
BRANCH  17   6
ATOM      6  O   UNL     1       9.657  46.918  21.176  0.00  0.00    +0.000 OA
ATOM     36  H   UNL     1      10.592  46.914  21.444  0.00  0.00    +0.000 HD
ENDBRANCH  17   6
ENDBRANCH  15  17
ENDBRANCH   2  16
ENDBRANCH  18   2
TORSDOF 11
ENDMDL
MODEL 2
REMARK VINA RESULT:      -8.8      1.803      2.782
REMARK  Name = 5320623
REMARK  11 active torsions:
REMARK  status: ('A' for Active; 'I' for Inactive)
REMARK    1  A    between atoms: O_2  and  C_16
REMARK    2  A    between atoms: O_2  and  C_18
REMARK    3  A    between atoms: O_3  and  C_12
REMARK    4  A    between atoms: O_4  and  C_13
REMARK    5  A    between atoms: O_5  and  C_14
REMARK    6  A    between atoms: O_6  and  C_17
REMARK    7  A    between atoms: O_8  and  C_20
REMARK    8  A    between atoms: O_9  and  C_23
REMARK    9  A    between atoms: O_11  and  C_32
REMARK   10  A    between atoms: C_15  and  C_17
REMARK   11  A    between atoms: C_25  and  C_27
REMARK                            x       y       z     vdW  Elec       q    Type
REMARK                         _______ _______ _______ _____ _____    ______ ____
ROOT
ATOM      7  O   UNL     1       4.310  42.700  23.392  0.00  0.00    +0.000 OA
ATOM     10  O   UNL     1       1.639  41.573  20.529  0.00  0.00    +0.000 OA
ATOM     18  C   UNL     1       5.895  44.250  20.500  0.00  0.00    +0.000 A 
ATOM     19  C   UNL     1       5.641  43.839  21.809  0.00  0.00    +0.000 A 
ATOM     20  C   UNL     1       5.019  43.899  19.473  0.00  0.00    +0.000 A 
ATOM     21  C   UNL     1       4.507  43.075  22.088  0.00  0.00    +0.000 A 
ATOM     22  C   UNL     1       3.633  42.725  21.060  0.00  0.00    +0.000 A 
ATOM     23  C   UNL     1       3.884  43.135  19.748  0.00  0.00    +0.000 A 
ATOM     24  C   UNL     1       2.446  41.919  21.382  0.00  0.00    +0.000 A 
ATOM     25  C   UNL     1       3.187  41.947  23.701  0.00  0.00    +0.000 A 
ATOM     26  C   UNL     1       2.278  41.543  22.800  0.00  0.00    +0.000 A 
ENDROOT
BRANCH  25  27
ATOM     27  C   UNL     1       3.076  41.594  25.130  0.00  0.00    +0.000 A 
ATOM     28  C   UNL     1       2.320  40.487  25.523  0.00  0.00    +0.000 A 
ATOM     29  C   UNL     1       3.724  42.367  26.096  0.00  0.00    +0.000 A 
ATOM     30  C   UNL     1       2.215  40.154  26.873  0.00  0.00    +0.000 A 
ATOM     31  C   UNL     1       3.619  42.034  27.447  0.00  0.00    +0.000 A 
ATOM     32  C   UNL     1       2.864  40.928  27.835  0.00  0.00    +0.000 A 
BRANCH  32  11
ATOM     11  O   UNL     1       2.761  40.603  29.153  0.00  0.00    +0.000 OA
ATOM     39  H   UNL     1       2.203  41.264  29.598  0.00  0.00    +0.000 HD
ENDBRANCH  32  11
ENDBRANCH  25  27
BRANCH  20   8
ATOM      8  O   UNL     1       5.276  44.305  18.195  0.00  0.00    +0.000 OA
ATOM     37  H   UNL     1       4.984  45.229  18.103  0.00  0.00    +0.000 HD
ENDBRANCH  20   8
BRANCH  23   9
ATOM      9  O   UNL     1       3.052  42.813  18.718  0.00  0.00    +0.000 OA
ATOM     38  H   UNL     1       2.269  43.386  18.717  0.00  0.00    +0.000 HD
ENDBRANCH  23   9
BRANCH  18   2
ATOM      2  O   UNL     1       7.007  44.998  20.239  0.00  0.00    +0.000 OA
BRANCH   2  16
ATOM      1  O   UNL     1       9.006  43.899  20.735  0.00  0.00    +0.000 OA
ATOM     12  C   UNL     1      10.141  44.645  18.204  0.00  0.00    +0.000 C 
ATOM     13  C   UNL     1      10.984  44.077  19.346  0.00  0.00    +0.000 C 
ATOM     14  C   UNL     1       8.841  45.256  18.727  0.00  0.00    +0.000 C 
ATOM     15  C   UNL     1      10.139  43.177  20.250  0.00  0.00    +0.000 C 
ATOM     16  C   UNL     1       8.127  44.305  19.688  0.00  0.00    +0.000 C 
BRANCH  12   3
ATOM      3  O   UNL     1      10.910  45.653  17.546  0.00  0.00    +0.000 OA
ATOM     33  H   UNL     1      11.816  45.602  17.895  0.00  0.00    +0.000 HD
ENDBRANCH  12   3
BRANCH  13   4
ATOM      4  O   UNL     1      12.063  43.320  18.804  0.00  0.00    +0.000 OA
ATOM     34  H   UNL     1      12.237  43.646  17.904  0.00  0.00    +0.000 HD
ENDBRANCH  13   4
BRANCH  14   5
ATOM      5  O   UNL     1       7.968  45.521  17.630  0.00  0.00    +0.000 OA
ATOM     35  H   UNL     1       7.211  44.915  17.691  0.00  0.00    +0.000 HD
ENDBRANCH  14   5
BRANCH  15  17
ATOM     17  C   UNL     1      10.927  42.693  21.462  0.00  0.00    +0.000 C 
BRANCH  17   6
ATOM      6  O   UNL     1      11.939  43.640  21.752  0.00  0.00    +0.000 OA
ATOM     36  H   UNL     1      12.750  43.147  21.964  0.00  0.00    +0.000 HD
ENDBRANCH  17   6
ENDBRANCH  15  17
ENDBRANCH   2  16
ENDBRANCH  18   2
TORSDOF 11
ENDMDL
MODEL 3
REMARK VINA RESULT:      -8.4      2.121      8.066
REMARK  Name = 5320623
REMARK  11 active torsions:
REMARK  status: ('A' for Active; 'I' for Inactive)
REMARK    1  A    between atoms: O_2  and  C_16
REMARK    2  A    between atoms: O_2  and  C_18
REMARK    3  A    between atoms: O_3  and  C_12
REMARK    4  A    between atoms: O_4  and  C_13
REMARK    5  A    between atoms: O_5  and  C_14
REMARK    6  A    between atoms: O_6  and  C_17
REMARK    7  A    between atoms: O_8  and  C_20
REMARK    8  A    between atoms: O_9  and  C_23
REMARK    9  A    between atoms: O_11  and  C_32
REMARK   10  A    between atoms: C_15  and  C_17
REMARK   11  A    between atoms: C_25  and  C_27
REMARK                            x       y       z     vdW  Elec       q    Type
REMARK                         _______ _______ _______ _____ _____    ______ ____
ROOT
ATOM      7  O   UNL     1       3.704  43.234  23.028  0.00  0.00    +0.000 OA
ATOM     10  O   UNL     1       1.627  40.423  20.933  0.00  0.00    +0.000 OA
ATOM     18  C   UNL     1       2.665  41.115  25.805  0.00  0.00    +0.000 A 
ATOM     19  C   UNL     1       3.249  42.151  25.077  0.00  0.00    +0.000 A 
ATOM     20  C   UNL     1       1.941  40.119  25.147  0.00  0.00    +0.000 A 
ATOM     21  C   UNL     1       3.107  42.190  23.689  0.00  0.00    +0.000 A 
ATOM     22  C   UNL     1       2.384  41.195  23.035  0.00  0.00    +0.000 A 
ATOM     23  C   UNL     1       1.797  40.155  23.760  0.00  0.00    +0.000 A 
ATOM     24  C   UNL     1       2.250  41.261  21.572  0.00  0.00    +0.000 A 
ATOM     25  C   UNL     1       3.587  43.294  21.648  0.00  0.00    +0.000 A 
ATOM     26  C   UNL     1       2.911  42.401  20.907  0.00  0.00    +0.000 A 
ENDROOT
BRANCH  25  27
ATOM     27  C   UNL     1       4.260  44.459  21.039  0.00  0.00    +0.000 A 
ATOM     28  C   UNL     1       4.943  44.322  19.828  0.00  0.00    +0.000 A 
ATOM     29  C   UNL     1       4.218  45.704  21.672  0.00  0.00    +0.000 A 
ATOM     30  C   UNL     1       5.579  45.422  19.254  0.00  0.00    +0.000 A 
ATOM     31  C   UNL     1       4.853  46.804  21.098  0.00  0.00    +0.000 A 
ATOM     32  C   UNL     1       5.535  46.663  19.889  0.00  0.00    +0.000 A 
BRANCH  32  11
ATOM     11  O   UNL     1       6.156  47.738  19.329  0.00  0.00    +0.000 OA
ATOM     39  H   UNL     1       5.732  48.551  19.653  0.00  0.00    +0.000 HD
ENDBRANCH  32  11
ENDBRANCH  25  27
BRANCH  20   8
ATOM      8  O   UNL     1       1.372  39.108  25.868  0.00  0.00    +0.000 OA
ATOM     37  H   UNL     1       1.566  39.257  26.810  0.00  0.00    +0.000 HD
ENDBRANCH  20   8
BRANCH  23   9
ATOM      9  O   UNL     1       1.084  39.164  23.155  0.00  0.00    +0.000 OA
ATOM     38  H   UNL     1       1.646  38.657  22.549  0.00  0.00    +0.000 HD
ENDBRANCH  23   9
BRANCH  18   2
ATOM      2  O   UNL     1       2.810  41.086  27.161  0.00  0.00    +0.000 OA
BRANCH   2  16
ATOM      1  O   UNL     1       5.093  41.554  27.289  0.00  0.00    +0.000 OA
ATOM     12  C   UNL     1       4.802  42.672  29.919  0.00  0.00    +0.000 C 
ATOM     13  C   UNL     1       6.166  42.327  29.321  0.00  0.00    +0.000 C 
ATOM     14  C   UNL     1       3.683  41.882  29.239  0.00  0.00    +0.000 C 
ATOM     15  C   UNL     1       6.125  42.404  27.793  0.00  0.00    +0.000 C 
ATOM     16  C   UNL     1       3.794  41.958  27.717  0.00  0.00    +0.000 C 
BRANCH  12   3
ATOM      3  O   UNL     1       4.835  42.351  31.310  0.00  0.00    +0.000 OA
ATOM     33  H   UNL     1       3.968  42.583  31.683  0.00  0.00    +0.000 HD
ENDBRANCH  12   3
BRANCH  13   4
ATOM      4  O   UNL     1       7.142  43.241  29.813  0.00  0.00    +0.000 OA
ATOM     34  H   UNL     1       6.820  44.143  29.644  0.00  0.00    +0.000 HD
ENDBRANCH  13   4
BRANCH  14   5
ATOM      5  O   UNL     1       2.420  42.424  29.624  0.00  0.00    +0.000 OA
ATOM     35  H   UNL     1       2.047  41.858  30.320  0.00  0.00    +0.000 HD
ENDBRANCH  14   5
BRANCH  15  17
ATOM     17  C   UNL     1       7.440  41.950  27.168  0.00  0.00    +0.000 C 
BRANCH  17   6
ATOM      6  O   UNL     1       8.249  43.088  26.939  0.00  0.00    +0.000 OA
ATOM     36  H   UNL     1       9.070  42.785  26.514  0.00  0.00    +0.000 HD
ENDBRANCH  17   6
ENDBRANCH  15  17
ENDBRANCH   2  16
ENDBRANCH  18   2
TORSDOF 11
ENDMDL
MODEL 4
REMARK VINA RESULT:      -8.2      3.146      6.537
REMARK  Name = 5320623
REMARK  11 active torsions:
REMARK  status: ('A' for Active; 'I' for Inactive)
REMARK    1  A    between atoms: O_2  and  C_16
REMARK    2  A    between atoms: O_2  and  C_18
REMARK    3  A    between atoms: O_3  and  C_12
REMARK    4  A    between atoms: O_4  and  C_13
REMARK    5  A    between atoms: O_5  and  C_14
REMARK    6  A    between atoms: O_6  and  C_17
REMARK    7  A    between atoms: O_8  and  C_20
REMARK    8  A    between atoms: O_9  and  C_23
REMARK    9  A    between atoms: O_11  and  C_32
REMARK   10  A    between atoms: C_15  and  C_17
REMARK   11  A    between atoms: C_25  and  C_27
REMARK                            x       y       z     vdW  Elec       q    Type
REMARK                         _______ _______ _______ _____ _____    ______ ____
ROOT
ATOM      7  O   UNL     1       6.136  42.982  21.244  0.00  0.00    +0.000 OA
ATOM     10  O   UNL     1       5.418  46.907  20.418  0.00  0.00    +0.000 OA
ATOM     18  C   UNL     1       9.387  43.871  19.860  0.00  0.00    +0.000 A 
ATOM     19  C   UNL     1       8.346  43.137  20.426  0.00  0.00    +0.000 A 
ATOM     20  C   UNL     1       9.207  45.221  19.554  0.00  0.00    +0.000 A 
ATOM     21  C   UNL     1       7.122  43.755  20.686  0.00  0.00    +0.000 A 
ATOM     22  C   UNL     1       6.944  45.104  20.380  0.00  0.00    +0.000 A 
ATOM     23  C   UNL     1       7.985  45.842  19.812  0.00  0.00    +0.000 A 
ATOM     24  C   UNL     1       5.644  45.730  20.664  0.00  0.00    +0.000 A 
ATOM     25  C   UNL     1       4.912  43.572  21.521  0.00  0.00    +0.000 A 
ATOM     26  C   UNL     1       4.617  44.857  21.266  0.00  0.00    +0.000 A 
ENDROOT
BRANCH  25  27
ATOM     27  C   UNL     1       3.922  42.650  22.113  0.00  0.00    +0.000 A 
ATOM     28  C   UNL     1       3.673  42.675  23.487  0.00  0.00    +0.000 A 
ATOM     29  C   UNL     1       3.231  41.747  21.301  0.00  0.00    +0.000 A 
ATOM     30  C   UNL     1       2.739  41.803  24.046  0.00  0.00    +0.000 A 
ATOM     31  C   UNL     1       2.296  40.875  21.860  0.00  0.00    +0.000 A 
ATOM     32  C   UNL     1       2.051  40.903  23.232  0.00  0.00    +0.000 A 
BRANCH  32  11
ATOM     11  O   UNL     1       1.138  40.052  23.778  0.00  0.00    +0.000 OA
ATOM     39  H   UNL     1       0.564  40.552  24.382  0.00  0.00    +0.000 HD
ENDBRANCH  32  11
ENDBRANCH  25  27
BRANCH  20   8
ATOM      8  O   UNL     1      10.232  45.932  18.999  0.00  0.00    +0.000 OA
ATOM     37  H   UNL     1      10.155  46.858  19.289  0.00  0.00    +0.000 HD
ENDBRANCH  20   8
BRANCH  23   9
ATOM      9  O   UNL     1       7.848  47.162  19.501  0.00  0.00    +0.000 OA
ATOM     38  H   UNL     1       7.962  47.715  20.289  0.00  0.00    +0.000 HD
ENDBRANCH  23   9
BRANCH  18   2
ATOM      2  O   UNL     1      10.580  43.257  19.610  0.00  0.00    +0.000 OA
BRANCH   2  16
ATOM      1  O   UNL     1      11.412  44.309  21.519  0.00  0.00    +0.000 OA
ATOM     12  C   UNL     1      13.938  42.964  21.262  0.00  0.00    +0.000 C 
ATOM     13  C   UNL     1      13.733  44.152  22.202  0.00  0.00    +0.000 C 
ATOM     14  C   UNL     1      12.889  42.952  20.149  0.00  0.00    +0.000 C 
ATOM     15  C   UNL     1      12.274  44.242  22.656  0.00  0.00    +0.000 C 
ATOM     16  C   UNL     1      11.479  43.136  20.711  0.00  0.00    +0.000 C 
BRANCH  12   3
ATOM      3  O   UNL     1      15.240  43.074  20.687  0.00  0.00    +0.000 OA
ATOM     33  H   UNL     1      15.495  44.012  20.721  0.00  0.00    +0.000 HD
ENDBRANCH  12   3
BRANCH  13   4
ATOM      4  O   UNL     1      14.573  44.002  23.342  0.00  0.00    +0.000 OA
ATOM     34  H   UNL     1      15.004  43.131  23.286  0.00  0.00    +0.000 HD
ENDBRANCH  13   4
BRANCH  14   5
ATOM      5  O   UNL     1      12.938  41.699  19.467  0.00  0.00    +0.000 OA
ATOM     35  H   UNL     1      13.851  41.369  19.505  0.00  0.00    +0.000 HD
ENDBRANCH  14   5
BRANCH  15  17
ATOM     17  C   UNL     1      12.020  45.486  23.500  0.00  0.00    +0.000 C 
BRANCH  17   6
ATOM      6  O   UNL     1      12.497  45.249  24.811  0.00  0.00    +0.000 OA
ATOM     36  H   UNL     1      13.227  44.610  24.747  0.00  0.00    +0.000 HD
ENDBRANCH  17   6
ENDBRANCH  15  17
ENDBRANCH   2  16
ENDBRANCH  18   2
TORSDOF 11
ENDMDL
MODEL 5
REMARK VINA RESULT:      -8.2      2.836      8.183
REMARK  Name = 5320623
REMARK  11 active torsions:
REMARK  status: ('A' for Active; 'I' for Inactive)
REMARK    1  A    between atoms: O_2  and  C_16
REMARK    2  A    between atoms: O_2  and  C_18
REMARK    3  A    between atoms: O_3  and  C_12
REMARK    4  A    between atoms: O_4  and  C_13
REMARK    5  A    between atoms: O_5  and  C_14
REMARK    6  A    between atoms: O_6  and  C_17
REMARK    7  A    between atoms: O_8  and  C_20
REMARK    8  A    between atoms: O_9  and  C_23
REMARK    9  A    between atoms: O_11  and  C_32
REMARK   10  A    between atoms: C_15  and  C_17
REMARK   11  A    between atoms: C_25  and  C_27
REMARK                            x       y       z     vdW  Elec       q    Type
REMARK                         _______ _______ _______ _____ _____    ______ ____
ROOT
ATOM      7  O   UNL     1       6.169  44.175  22.402  0.00  0.00    +0.000 OA
ATOM     10  O   UNL     1       5.892  44.365  18.342  0.00  0.00    +0.000 OA
ATOM     18  C   UNL     1       2.957  42.507  21.977  0.00  0.00    +0.000 A 
ATOM     19  C   UNL     1       4.093  43.061  22.567  0.00  0.00    +0.000 A 
ATOM     20  C   UNL     1       2.801  42.538  20.591  0.00  0.00    +0.000 A 
ATOM     21  C   UNL     1       5.074  43.647  21.766  0.00  0.00    +0.000 A 
ATOM     22  C   UNL     1       4.917  43.677  20.381  0.00  0.00    +0.000 A 
ATOM     23  C   UNL     1       3.780  43.124  19.788  0.00  0.00    +0.000 A 
ATOM     24  C   UNL     1       5.966  44.301  19.562  0.00  0.00    +0.000 A 
ATOM     25  C   UNL     1       7.164  44.756  21.632  0.00  0.00    +0.000 A 
ATOM     26  C   UNL     1       7.124  44.852  20.293  0.00  0.00    +0.000 A 
ENDROOT
BRANCH  25  27
ATOM     27  C   UNL     1       8.292  45.297  22.417  0.00  0.00    +0.000 A 
ATOM     28  C   UNL     1       9.396  45.855  21.767  0.00  0.00    +0.000 A 
ATOM     29  C   UNL     1       8.260  45.252  23.813  0.00  0.00    +0.000 A 
ATOM     30  C   UNL     1      10.461  46.365  22.509  0.00  0.00    +0.000 A 
ATOM     31  C   UNL     1       9.325  45.763  24.555  0.00  0.00    +0.000 A 
ATOM     32  C   UNL     1      10.426  46.318  23.903  0.00  0.00    +0.000 A 
BRANCH  32  11
ATOM     11  O   UNL     1      11.465  46.817  24.627  0.00  0.00    +0.000 OA
ATOM     39  H   UNL     1      12.270  46.789  24.083  0.00  0.00    +0.000 HD
ENDBRANCH  32  11
ENDBRANCH  25  27
BRANCH  20   8
ATOM      8  O   UNL     1       1.685  41.994  20.023  0.00  0.00    +0.000 OA
ATOM     37  H   UNL     1       1.366  42.602  19.333  0.00  0.00    +0.000 HD
ENDBRANCH  20   8
BRANCH  23   9
ATOM      9  O   UNL     1       3.592  43.133  18.438  0.00  0.00    +0.000 OA
ATOM     38  H   UNL     1       2.916  43.782  18.189  0.00  0.00    +0.000 HD
ENDBRANCH  23   9
BRANCH  18   2
ATOM      2  O   UNL     1       2.003  41.936  22.770  0.00  0.00    +0.000 OA
BRANCH   2  16
ATOM      1  O   UNL     1       1.472  39.702  22.352  0.00  0.00    +0.000 OA
ATOM     12  C   UNL     1       1.882  39.002  25.107  0.00  0.00    +0.000 C 
ATOM     13  C   UNL     1       1.192  38.064  24.117  0.00  0.00    +0.000 C 
ATOM     14  C   UNL     1       1.811  40.455  24.636  0.00  0.00    +0.000 C 
ATOM     15  C   UNL     1       1.676  38.329  22.689  0.00  0.00    +0.000 C 
ATOM     16  C   UNL     1       2.233  40.586  23.173  0.00  0.00    +0.000 C 
BRANCH  12   3
ATOM      3  O   UNL     1       1.222  38.877  26.368  0.00  0.00    +0.000 OA
ATOM     33  H   UNL     1       0.638  38.101  26.314  0.00  0.00    +0.000 HD
ENDBRANCH  12   3
BRANCH  13   4
ATOM      4  O   UNL     1       1.478  36.713  24.468  0.00  0.00    +0.000 OA
ATOM     34  H   UNL     1       2.422  36.552  24.298  0.00  0.00    +0.000 HD
ENDBRANCH  13   4
BRANCH  14   5
ATOM      5  O   UNL     1       2.690  41.253  25.428  0.00  0.00    +0.000 OA
ATOM     35  H   UNL     1       2.331  42.155  25.462  0.00  0.00    +0.000 HD
ENDBRANCH  14   5
BRANCH  15  17
ATOM     17  C   UNL     1       0.917  37.488  21.669  0.00  0.00    +0.000 C 
BRANCH  17   6
ATOM      6  O   UNL     1      -0.445  37.434  22.050  0.00  0.00    +0.000 OA
ATOM     36  H   UNL     1      -0.700  36.497  22.097  0.00  0.00    +0.000 HD
ENDBRANCH  17   6
ENDBRANCH  15  17
ENDBRANCH   2  16
ENDBRANCH  18   2
TORSDOF 11
ENDMDL
MODEL 6
REMARK VINA RESULT:      -7.9      4.772      9.528
REMARK  Name = 5320623
REMARK  11 active torsions:
REMARK  status: ('A' for Active; 'I' for Inactive)
REMARK    1  A    between atoms: O_2  and  C_16
REMARK    2  A    between atoms: O_2  and  C_18
REMARK    3  A    between atoms: O_3  and  C_12
REMARK    4  A    between atoms: O_4  and  C_13
REMARK    5  A    between atoms: O_5  and  C_14
REMARK    6  A    between atoms: O_6  and  C_17
REMARK    7  A    between atoms: O_8  and  C_20
REMARK    8  A    between atoms: O_9  and  C_23
REMARK    9  A    between atoms: O_11  and  C_32
REMARK   10  A    between atoms: C_15  and  C_17
REMARK   11  A    between atoms: C_25  and  C_27
REMARK                            x       y       z     vdW  Elec       q    Type
REMARK                         _______ _______ _______ _____ _____    ______ ____
ROOT
ATOM      7  O   UNL     1      12.429  42.827  21.232  0.00  0.00    +0.000 OA
ATOM     10  O   UNL     1      13.048  44.193  17.444  0.00  0.00    +0.000 OA
ATOM     18  C   UNL     1       9.385  44.791  20.836  0.00  0.00    +0.000 A 
ATOM     19  C   UNL     1      10.366  43.966  21.386  0.00  0.00    +0.000 A 
ATOM     20  C   UNL     1       9.535  45.291  19.542  0.00  0.00    +0.000 A 
ATOM     21  C   UNL     1      11.499  43.642  20.639  0.00  0.00    +0.000 A 
ATOM     22  C   UNL     1      11.647  44.143  19.346  0.00  0.00    +0.000 A 
ATOM     23  C   UNL     1      10.667  44.970  18.792  0.00  0.00    +0.000 A 
ATOM     24  C   UNL     1      12.852  43.787  18.581  0.00  0.00    +0.000 A 
ATOM     25  C   UNL     1      13.562  42.483  20.510  0.00  0.00    +0.000 A 
ATOM     26  C   UNL     1      13.821  42.906  19.263  0.00  0.00    +0.000 A 
ENDROOT
BRANCH  25  27
ATOM     27  C   UNL     1      14.499  41.609  21.245  0.00  0.00    +0.000 A 
ATOM     28  C   UNL     1      14.025  40.752  22.241  0.00  0.00    +0.000 A 
ATOM     29  C   UNL     1      15.864  41.637  20.948  0.00  0.00    +0.000 A 
ATOM     30  C   UNL     1      14.910  39.927  22.935  0.00  0.00    +0.000 A 
ATOM     31  C   UNL     1      16.749  40.812  21.642  0.00  0.00    +0.000 A 
ATOM     32  C   UNL     1      16.272  39.958  22.636  0.00  0.00    +0.000 A 
BRANCH  32  11
ATOM     11  O   UNL     1      17.136  39.153  23.314  0.00  0.00    +0.000 OA
ATOM     39  H   UNL     1      17.943  39.656  23.515  0.00  0.00    +0.000 HD
ENDBRANCH  32  11
ENDBRANCH  25  27
BRANCH  20   8
ATOM      8  O   UNL     1       8.570  46.098  19.012  0.00  0.00    +0.000 OA
ATOM     37  H   UNL     1       8.834  47.024  19.153  0.00  0.00    +0.000 HD
ENDBRANCH  20   8
BRANCH  23   9
ATOM      9  O   UNL     1      10.777  45.477  17.532  0.00  0.00    +0.000 OA
ATOM     38  H   UNL     1      11.350  46.260  17.525  0.00  0.00    +0.000 HD
ENDBRANCH  23   9
BRANCH  18   2
ATOM      2  O   UNL     1       8.280  45.100  21.576  0.00  0.00    +0.000 OA
BRANCH   2  16
ATOM      1  O   UNL     1       6.507  44.554  20.159  0.00  0.00    +0.000 OA
ATOM     12  C   UNL     1       4.865  43.770  22.382  0.00  0.00    +0.000 C 
ATOM     13  C   UNL     1       4.298  43.983  20.978  0.00  0.00    +0.000 C 
ATOM     14  C   UNL     1       6.184  44.521  22.566  0.00  0.00    +0.000 C 
ATOM     15  C   UNL     1       5.369  43.727  19.914  0.00  0.00    +0.000 C 
ATOM     16  C   UNL     1       7.140  44.260  21.403  0.00  0.00    +0.000 C 
BRANCH  12   3
ATOM      3  O   UNL     1       3.905  44.252  23.323  0.00  0.00    +0.000 OA
ATOM     33  H   UNL     1       4.373  44.407  24.161  0.00  0.00    +0.000 HD
ENDBRANCH  12   3
BRANCH  13   4
ATOM      4  O   UNL     1       3.205  43.094  20.769  0.00  0.00    +0.000 OA
ATOM     34  H   UNL     1       3.567  42.206  20.602  0.00  0.00    +0.000 HD
ENDBRANCH  13   4
BRANCH  14   5
ATOM      5  O   UNL     1       6.813  44.082  23.770  0.00  0.00    +0.000 OA
ATOM     35  H   UNL     1       6.811  43.110  23.775  0.00  0.00    +0.000 HD
ENDBRANCH  14   5
BRANCH  15  17
ATOM     17  C   UNL     1       4.862  44.048  18.512  0.00  0.00    +0.000 C 
BRANCH  17   6
ATOM      6  O   UNL     1       5.636  45.107  17.982  0.00  0.00    +0.000 OA
ATOM     36  H   UNL     1       6.567  44.825  17.993  0.00  0.00    +0.000 HD
ENDBRANCH  17   6
ENDBRANCH  15  17
ENDBRANCH   2  16
ENDBRANCH  18   2
TORSDOF 11
ENDMDL
MODEL 7
REMARK VINA RESULT:      -7.9      3.578      8.981
REMARK  Name = 5320623
REMARK  11 active torsions:
REMARK  status: ('A' for Active; 'I' for Inactive)
REMARK    1  A    between atoms: O_2  and  C_16
REMARK    2  A    between atoms: O_2  and  C_18
REMARK    3  A    between atoms: O_3  and  C_12
REMARK    4  A    between atoms: O_4  and  C_13
REMARK    5  A    between atoms: O_5  and  C_14
REMARK    6  A    between atoms: O_6  and  C_17
REMARK    7  A    between atoms: O_8  and  C_20
REMARK    8  A    between atoms: O_9  and  C_23
REMARK    9  A    between atoms: O_11  and  C_32
REMARK   10  A    between atoms: C_15  and  C_17
REMARK   11  A    between atoms: C_25  and  C_27
REMARK                            x       y       z     vdW  Elec       q    Type
REMARK                         _______ _______ _______ _____ _____    ______ ____
ROOT
ATOM      7  O   UNL     1      10.363  43.128  21.134  0.00  0.00    +0.000 OA
ATOM     10  O   UNL     1      10.130  44.908  17.477  0.00  0.00    +0.000 OA
ATOM     18  C   UNL     1       6.964  44.423  21.353  0.00  0.00    +0.000 A 
ATOM     19  C   UNL     1       8.160  43.783  21.676  0.00  0.00    +0.000 A 
ATOM     20  C   UNL     1       6.818  45.051  20.115  0.00  0.00    +0.000 A 
ATOM     21  C   UNL     1       9.212  43.772  20.759  0.00  0.00    +0.000 A 
ATOM     22  C   UNL     1       9.064  44.401  19.523  0.00  0.00    +0.000 A 
ATOM     23  C   UNL     1       7.868  45.043  19.196  0.00  0.00    +0.000 A 
ATOM     24  C   UNL     1      10.189  44.375  18.576  0.00  0.00    +0.000 A 
ATOM     25  C   UNL     1      11.422  43.094  20.239  0.00  0.00    +0.000 A 
ATOM     26  C   UNL     1      11.404  43.667  19.025  0.00  0.00    +0.000 A 
ENDROOT
BRANCH  25  27
ATOM     27  C   UNL     1      12.612  42.381  20.745  0.00  0.00    +0.000 A 
ATOM     28  C   UNL     1      13.878  42.677  20.234  0.00  0.00    +0.000 A 
ATOM     29  C   UNL     1      12.477  41.405  21.736  0.00  0.00    +0.000 A 
ATOM     30  C   UNL     1      15.002  42.003  20.712  0.00  0.00    +0.000 A 
ATOM     31  C   UNL     1      13.601  40.731  22.214  0.00  0.00    +0.000 A 
ATOM     32  C   UNL     1      14.863  41.029  21.701  0.00  0.00    +0.000 A 
BRANCH  32  11
ATOM     11  O   UNL     1      15.960  40.371  22.167  0.00  0.00    +0.000 OA
ATOM     39  H   UNL     1      15.710  39.457  22.385  0.00  0.00    +0.000 HD
ENDBRANCH  32  11
ENDBRANCH  25  27
BRANCH  20   8
ATOM      8  O   UNL     1       5.644  45.676  19.807  0.00  0.00    +0.000 OA
ATOM     37  H   UNL     1       5.421  45.470  18.882  0.00  0.00    +0.000 HD
ENDBRANCH  20   8
BRANCH  23   9
ATOM      9  O   UNL     1       7.687  45.666  17.998  0.00  0.00    +0.000 OA
ATOM     38  H   UNL     1       6.758  45.919  17.879  0.00  0.00    +0.000 HD
ENDBRANCH  23   9
BRANCH  18   2
ATOM      2  O   UNL     1       5.942  44.426  22.257  0.00  0.00    +0.000 OA
BRANCH   2  16
ATOM      1  O   UNL     1       4.053  43.338  21.423  0.00  0.00    +0.000 OA
ATOM     12  C   UNL     1       3.665  41.936  23.900  0.00  0.00    +0.000 C 
ATOM     13  C   UNL     1       2.594  41.987  22.810  0.00  0.00    +0.000 C 
ATOM     14  C   UNL     1       4.647  43.100  23.766  0.00  0.00    +0.000 C 
ATOM     15  C   UNL     1       3.231  42.170  21.430  0.00  0.00    +0.000 C 
ATOM     16  C   UNL     1       5.149  43.242  22.329  0.00  0.00    +0.000 C 
BRANCH  12   3
ATOM      3  O   UNL     1       3.009  42.008  25.167  0.00  0.00    +0.000 OA
ATOM     33  H   UNL     1       3.529  41.478  25.794  0.00  0.00    +0.000 HD
ENDBRANCH  12   3
BRANCH  13   4
ATOM      4  O   UNL     1       1.846  40.774  22.826  0.00  0.00    +0.000 OA
ATOM     34  H   UNL     1       2.473  40.035  22.906  0.00  0.00    +0.000 HD
ENDBRANCH  13   4
BRANCH  14   5
ATOM      5  O   UNL     1       5.772  42.869  24.613  0.00  0.00    +0.000 OA
ATOM     35  H   UNL     1       6.150  42.003  24.385  0.00  0.00    +0.000 HD
ENDBRANCH  14   5
BRANCH  15  17
ATOM     17  C   UNL     1       2.179  42.341  20.340  0.00  0.00    +0.000 C 
BRANCH  17   6
ATOM      6  O   UNL     1       0.963  42.740  20.943  0.00  0.00    +0.000 OA
ATOM     36  H   UNL     1       0.495  41.934  21.223  0.00  0.00    +0.000 HD
ENDBRANCH  17   6
ENDBRANCH  15  17
ENDBRANCH   2  16
ENDBRANCH  18   2
TORSDOF 11
ENDMDL
MODEL 8
REMARK VINA RESULT:      -7.5      5.186      9.019
REMARK  Name = 5320623
REMARK  11 active torsions:
REMARK  status: ('A' for Active; 'I' for Inactive)
REMARK    1  A    between atoms: O_2  and  C_16
REMARK    2  A    between atoms: O_2  and  C_18
REMARK    3  A    between atoms: O_3  and  C_12
REMARK    4  A    between atoms: O_4  and  C_13
REMARK    5  A    between atoms: O_5  and  C_14
REMARK    6  A    between atoms: O_6  and  C_17
REMARK    7  A    between atoms: O_8  and  C_20
REMARK    8  A    between atoms: O_9  and  C_23
REMARK    9  A    between atoms: O_11  and  C_32
REMARK   10  A    between atoms: C_15  and  C_17
REMARK   11  A    between atoms: C_25  and  C_27
REMARK                            x       y       z     vdW  Elec       q    Type
REMARK                         _______ _______ _______ _____ _____    ______ ____
ROOT
ATOM      7  O   UNL     1      12.540  42.414  21.354  0.00  0.00    +0.000 OA
ATOM     10  O   UNL     1      11.091  39.921  24.233  0.00  0.00    +0.000 OA
ATOM     18  C   UNL     1       8.975  42.846  20.734  0.00  0.00    +0.000 A 
ATOM     19  C   UNL     1      10.361  42.969  20.633  0.00  0.00    +0.000 A 
ATOM     20  C   UNL     1       8.414  42.009  21.700  0.00  0.00    +0.000 A 
ATOM     21  C   UNL     1      11.185  42.253  21.501  0.00  0.00    +0.000 A 
ATOM     22  C   UNL     1      10.623  41.417  22.465  0.00  0.00    +0.000 A 
ATOM     23  C   UNL     1       9.236  41.291  22.569  0.00  0.00    +0.000 A 
ATOM     24  C   UNL     1      11.516  40.674  23.366  0.00  0.00    +0.000 A 
ATOM     25  C   UNL     1      13.384  41.721  22.208  0.00  0.00    +0.000 A 
ATOM     26  C   UNL     1      12.964  40.883  23.170  0.00  0.00    +0.000 A 
ENDROOT
BRANCH  25  27
ATOM     27  C   UNL     1      14.819  41.963  21.960  0.00  0.00    +0.000 A 
ATOM     28  C   UNL     1      15.317  43.267  21.932  0.00  0.00    +0.000 A 
ATOM     29  C   UNL     1      15.685  40.887  21.747  0.00  0.00    +0.000 A 
ATOM     30  C   UNL     1      16.673  43.494  21.697  0.00  0.00    +0.000 A 
ATOM     31  C   UNL     1      17.041  41.114  21.512  0.00  0.00    +0.000 A 
ATOM     32  C   UNL     1      17.535  42.418  21.486  0.00  0.00    +0.000 A 
BRANCH  32  11
ATOM     11  O   UNL     1      18.858  42.640  21.256  0.00  0.00    +0.000 OA
ATOM     39  H   UNL     1      19.377  41.959  21.716  0.00  0.00    +0.000 HD
ENDBRANCH  32  11
ENDBRANCH  25  27
BRANCH  20   8
ATOM      8  O   UNL     1       7.057  41.895  21.790  0.00  0.00    +0.000 OA
ATOM     37  H   UNL     1       6.810  41.916  22.731  0.00  0.00    +0.000 HD
ENDBRANCH  20   8
BRANCH  23   9
ATOM      9  O   UNL     1       8.651  40.486  23.499  0.00  0.00    +0.000 OA
ATOM     38  H   UNL     1       7.697  40.413  23.339  0.00  0.00    +0.000 HD
ENDBRANCH  23   9
BRANCH  18   2
ATOM      2  O   UNL     1       8.177  43.552  19.880  0.00  0.00    +0.000 OA
BRANCH   2  16
ATOM      1  O   UNL     1       6.192  44.550  20.592  0.00  0.00    +0.000 OA
ATOM     12  C   UNL     1       7.111  47.149  19.785  0.00  0.00    +0.000 C 
ATOM     13  C   UNL     1       5.651  46.871  20.143  0.00  0.00    +0.000 C 
ATOM     14  C   UNL     1       7.837  45.865  19.383  0.00  0.00    +0.000 C 
ATOM     15  C   UNL     1       5.547  45.705  21.130  0.00  0.00    +0.000 C 
ATOM     16  C   UNL     1       7.590  44.746  20.395  0.00  0.00    +0.000 C 
BRANCH  12   3
ATOM      3  O   UNL     1       7.130  48.069  18.692  0.00  0.00    +0.000 OA
ATOM     33  H   UNL     1       7.093  48.966  19.066  0.00  0.00    +0.000 HD
ENDBRANCH  12   3
BRANCH  13   4
ATOM      4  O   UNL     1       5.078  48.036  20.728  0.00  0.00    +0.000 OA
ATOM     34  H   UNL     1       5.426  48.812  20.255  0.00  0.00    +0.000 HD
ENDBRANCH  13   4
BRANCH  14   5
ATOM      5  O   UNL     1       9.241  46.114  19.325  0.00  0.00    +0.000 OA
ATOM     35  H   UNL     1       9.382  47.072  19.402  0.00  0.00    +0.000 HD
ENDBRANCH  14   5
BRANCH  15  17
ATOM     17  C   UNL     1       4.096  45.332  21.413  0.00  0.00    +0.000 C 
BRANCH  17   6
ATOM      6  O   UNL     1       4.042  43.964  21.771  0.00  0.00    +0.000 OA
ATOM     36  H   UNL     1       4.953  43.623  21.767  0.00  0.00    +0.000 HD
ENDBRANCH  17   6
ENDBRANCH  15  17
ENDBRANCH   2  16
ENDBRANCH  18   2
TORSDOF 11
ENDMDL
MODEL 9
REMARK VINA RESULT:      -7.2      4.110      8.089
REMARK  Name = 5320623
REMARK  11 active torsions:
REMARK  status: ('A' for Active; 'I' for Inactive)
REMARK    1  A    between atoms: O_2  and  C_16
REMARK    2  A    between atoms: O_2  and  C_18
REMARK    3  A    between atoms: O_3  and  C_12
REMARK    4  A    between atoms: O_4  and  C_13
REMARK    5  A    between atoms: O_5  and  C_14
REMARK    6  A    between atoms: O_6  and  C_17
REMARK    7  A    between atoms: O_8  and  C_20
REMARK    8  A    between atoms: O_9  and  C_23
REMARK    9  A    between atoms: O_11  and  C_32
REMARK   10  A    between atoms: C_15  and  C_17
REMARK   11  A    between atoms: C_25  and  C_27
REMARK                            x       y       z     vdW  Elec       q    Type
REMARK                         _______ _______ _______ _____ _____    ______ ____
ROOT
ATOM      7  O   UNL     1       7.091  43.085  20.753  0.00  0.00    +0.000 OA
ATOM     10  O   UNL     1       7.819  45.723  17.734  0.00  0.00    +0.000 OA
ATOM     18  C   UNL     1      10.726  42.837  20.651  0.00  0.00    +0.000 A 
ATOM     19  C   UNL     1       9.395  42.635  21.015  0.00  0.00    +0.000 A 
ATOM     20  C   UNL     1      11.043  43.729  19.625  0.00  0.00    +0.000 A 
ATOM     21  C   UNL     1       8.381  43.326  20.351  0.00  0.00    +0.000 A 
ATOM     22  C   UNL     1       8.700  44.216  19.327  0.00  0.00    +0.000 A 
ATOM     23  C   UNL     1      10.032  44.422  18.959  0.00  0.00    +0.000 A 
ATOM     24  C   UNL     1       7.612  44.930  18.643  0.00  0.00    +0.000 A 
ATOM     25  C   UNL     1       6.064  43.764  20.116  0.00  0.00    +0.000 A 
ATOM     26  C   UNL     1       6.243  44.639  19.114  0.00  0.00    +0.000 A 
ENDROOT
BRANCH  25  27
ATOM     27  C   UNL     1       4.718  43.426  20.622  0.00  0.00    +0.000 A 
ATOM     28  C   UNL     1       4.366  43.731  21.939  0.00  0.00    +0.000 A 
ATOM     29  C   UNL     1       3.792  42.797  19.786  0.00  0.00    +0.000 A 
ATOM     30  C   UNL     1       3.095  43.411  22.416  0.00  0.00    +0.000 A 
ATOM     31  C   UNL     1       2.521  42.477  20.263  0.00  0.00    +0.000 A 
ATOM     32  C   UNL     1       2.173  42.783  21.579  0.00  0.00    +0.000 A 
BRANCH  32  11
ATOM     11  O   UNL     1       0.932  42.471  22.045  0.00  0.00    +0.000 OA
ATOM     39  H   UNL     1       0.578  43.233  22.533  0.00  0.00    +0.000 HD
ENDBRANCH  32  11
ENDBRANCH  25  27
BRANCH  20   8
ATOM      8  O   UNL     1      12.349  43.921  19.275  0.00  0.00    +0.000 OA
ATOM     37  H   UNL     1      12.629  43.174  18.717  0.00  0.00    +0.000 HD
ENDBRANCH  20   8
BRANCH  23   9
ATOM      9  O   UNL     1      10.382  45.284  17.964  0.00  0.00    +0.000 OA
ATOM     38  H   UNL     1      10.592  44.802  17.149  0.00  0.00    +0.000 HD
ENDBRANCH  23   9
BRANCH  18   2
ATOM      2  O   UNL     1      11.710  42.157  21.307  0.00  0.00    +0.000 OA
BRANCH   2  16
ATOM      1  O   UNL     1      13.603  43.245  22.130  0.00  0.00    +0.000 OA
ATOM     12  C   UNL     1      13.054  42.355  24.806  0.00  0.00    +0.000 C 
ATOM     13  C   UNL     1      14.397  42.965  24.404  0.00  0.00    +0.000 C 
ATOM     14  C   UNL     1      12.315  41.793  23.591  0.00  0.00    +0.000 C 
ATOM     15  C   UNL     1      14.227  43.923  23.222  0.00  0.00    +0.000 C 
ATOM     16  C   UNL     1      12.284  42.802  22.443  0.00  0.00    +0.000 C 
BRANCH  12   3
ATOM      3  O   UNL     1      13.308  41.303  25.738  0.00  0.00    +0.000 OA
ATOM     33  H   UNL     1      13.143  40.462  25.279  0.00  0.00    +0.000 HD
ENDBRANCH  12   3
BRANCH  13   4
ATOM      4  O   UNL     1      14.943  43.677  25.512  0.00  0.00    +0.000 OA
ATOM     34  H   UNL     1      14.237  43.793  26.171  0.00  0.00    +0.000 HD
ENDBRANCH  13   4
BRANCH  14   5
ATOM      5  O   UNL     1      10.970  41.488  23.955  0.00  0.00    +0.000 OA
ATOM     35  H   UNL     1      10.388  41.772  23.230  0.00  0.00    +0.000 HD
ENDBRANCH  14   5
BRANCH  15  17
ATOM     17  C   UNL     1      15.568  44.454  22.727  0.00  0.00    +0.000 C 
BRANCH  17   6
ATOM      6  O   UNL     1      16.025  45.442  23.632  0.00  0.00    +0.000 OA
ATOM     36  H   UNL     1      16.960  45.617  23.428  0.00  0.00    +0.000 HD
ENDBRANCH  17   6
ENDBRANCH  15  17
ENDBRANCH   2  16
ENDBRANCH  18   2
TORSDOF 11
ENDMDL
