MODEL 1
REMARK VINA RESULT:      -7.4      0.000      0.000
REMARK  10 active torsions:
REMARK  status: ('A' for Active; 'I' for Inactive)
REMARK    1  A    between atoms: O_2  and  C_12 
REMARK    2  A    between atoms: O_2  and  C_14 
REMARK    3  A    between atoms: O_3  and  C_8 
REMARK    4  A    between atoms: O_4  and  C_9 
REMARK    5  A    between atoms: O_5  and  C_10 
REMARK    6  A    between atoms: O_6  and  C_13 
REMARK    7  A    between atoms: O_7  and  C_21 
REMARK    8  A    between atoms: C_11  and  C_13 
REMARK    9  A    between atoms: C_14  and  C_15 
REMARK   10  A    between atoms: C_15  and  C_16 
ROOT
HETATM    1  O   UNK     0      71.531  38.147  30.723  0.00  0.00    -0.348 OA
HETATM    2  C   UNK     0      73.055  37.365  28.417  0.00  0.00     0.183 C 
HETATM    3  C   UNK     0      73.302  38.680  29.157  0.00  0.00     0.180 C 
HETATM    4  C   UNK     0      71.642  36.841  28.679  0.00  0.00     0.204 C 
HETATM    5  C   UNK     0      72.895  38.562  30.627  0.00  0.00     0.179 C 
HETATM    6  C   UNK     0      71.313  36.850  30.171  0.00  0.00     0.291 C 
ENDROOT
BRANCH   5   7
HETATM    7  C   UNK     0      73.022  39.894  31.358  0.00  0.00     0.198 C 
BRANCH   7   8
HETATM    8  O   UNK     0      71.799  40.596  31.234  0.00  0.00    -0.398 OA
HETATM    9  H   UNK     0      71.742  40.930  30.322  0.00  0.00     0.209 HD
ENDBRANCH   7   8
ENDBRANCH   5   7
BRANCH   6  10
HETATM   10  O   UNK     0      69.941  36.487  30.321  0.00  0.00    -0.358 OA
BRANCH  10  11
HETATM   11  C   UNK     0      69.725  35.769  31.526  0.00  0.00     0.175 C 
BRANCH  11  12
HETATM   12  C   UNK     0      70.151  34.317  31.345  0.00  0.00     0.065 C 
BRANCH  12  13
HETATM   13  C   UNK     0      70.907  33.787  32.539  0.00  0.00    -0.056 A 
HETATM   14  C   UNK     0      70.970  32.420  32.751  0.00  0.00     0.010 A 
HETATM   15  C   UNK     0      71.669  31.931  33.855  0.00  0.00     0.037 A 
HETATM   16  C   UNK     0      72.294  32.817  34.733  0.00  0.00     0.065 A 
HETATM   17  C   UNK     0      72.222  34.190  34.507  0.00  0.00     0.037 A 
HETATM   18  C   UNK     0      71.524  34.679  33.403  0.00  0.00     0.010 A 
BRANCH  16  19
HETATM   19  O   UNK     0      72.976  32.339  35.810  0.00  0.00    -0.361 OA
HETATM   20  H   UNK     0      72.468  31.610  36.207  0.00  0.00     0.217 HD
ENDBRANCH  16  19
ENDBRANCH  12  13
ENDBRANCH  11  12
ENDBRANCH  10  11
ENDBRANCH   6  10
BRANCH   3  21
HETATM   21  O   UNK     0      74.686  39.012  29.077  0.00  0.00    -0.390 OA
HETATM   22  H   UNK     0      74.769  39.837  28.569  0.00  0.00     0.210 HD
ENDBRANCH   3  21
BRANCH   4  23
HETATM   23  O   UNK     0      71.541  35.497  28.207  0.00  0.00    -0.388 OA
HETATM   24  H   UNK     0      71.877  34.907  28.903  0.00  0.00     0.210 HD
ENDBRANCH   4  23
BRANCH   2  25
HETATM   25  O   UNK     0      73.221  37.606  27.020  0.00  0.00    -0.390 OA
HETATM   26  H   UNK     0      72.417  37.293  26.572  0.00  0.00     0.210 HD
ENDBRANCH   2  25
TORSDOF 10
ENDMDL
MODEL 2
REMARK VINA RESULT:      -7.0      1.966      3.468
REMARK  10 active torsions:
REMARK  status: ('A' for Active; 'I' for Inactive)
REMARK    1  A    between atoms: O_2  and  C_12 
REMARK    2  A    between atoms: O_2  and  C_14 
REMARK    3  A    between atoms: O_3  and  C_8 
REMARK    4  A    between atoms: O_4  and  C_9 
REMARK    5  A    between atoms: O_5  and  C_10 
REMARK    6  A    between atoms: O_6  and  C_13 
REMARK    7  A    between atoms: O_7  and  C_21 
REMARK    8  A    between atoms: C_11  and  C_13 
REMARK    9  A    between atoms: C_14  and  C_15 
REMARK   10  A    between atoms: C_15  and  C_16 
ROOT
HETATM    1  O   UNK     0      73.593  37.784  31.646  0.00  0.00    -0.348 OA
HETATM    2  C   UNK     0      73.886  37.297  28.830  0.00  0.00     0.183 C 
HETATM    3  C   UNK     0      73.175  38.534  29.379  0.00  0.00     0.180 C 
HETATM    4  C   UNK     0      73.906  36.168  29.861  0.00  0.00     0.204 C 
HETATM    5  C   UNK     0      73.714  38.901  30.763  0.00  0.00     0.179 C 
HETATM    6  C   UNK     0      74.376  36.668  31.226  0.00  0.00     0.291 C 
ENDROOT
BRANCH   5   7
HETATM    7  C   UNK     0      72.940  40.061  31.382  0.00  0.00     0.198 C 
BRANCH   7   8
HETATM    8  O   UNK     0      71.628  40.062  30.851  0.00  0.00    -0.398 OA
HETATM    9  H   UNK     0      71.671  40.450  29.961  0.00  0.00     0.209 HD
ENDBRANCH   7   8
ENDBRANCH   5   7
BRANCH   6  10
HETATM   10  O   UNK     0      74.230  35.600  32.160  0.00  0.00    -0.358 OA
BRANCH  10  11
HETATM   11  C   UNK     0      73.179  35.857  33.079  0.00  0.00     0.175 C 
BRANCH  11  12
HETATM   12  C   UNK     0      72.201  34.687  33.085  0.00  0.00     0.065 C 
BRANCH  12  13
HETATM   13  C   UNK     0      71.246  34.732  31.917  0.00  0.00    -0.056 A 
HETATM   14  C   UNK     0      71.127  33.624  31.095  0.00  0.00     0.010 A 
HETATM   15  C   UNK     0      70.244  33.666  30.015  0.00  0.00     0.037 A 
HETATM   16  C   UNK     0      69.493  34.816  29.773  0.00  0.00     0.065 A 
HETATM   17  C   UNK     0      69.624  35.924  30.609  0.00  0.00     0.037 A 
HETATM   18  C   UNK     0      70.507  35.882  31.688  0.00  0.00     0.010 A 
BRANCH  16  19
HETATM   19  O   UNK     0      68.632  34.856  28.719  0.00  0.00    -0.361 OA
HETATM   20  H   UNK     0      68.902  35.572  28.118  0.00  0.00     0.217 HD
ENDBRANCH  16  19
ENDBRANCH  12  13
ENDBRANCH  11  12
ENDBRANCH  10  11
ENDBRANCH   6  10
BRANCH   3  21
HETATM   21  O   UNK     0      73.379  39.629  28.489  0.00  0.00    -0.390 OA
HETATM   22  H   UNK     0      72.646  39.637  27.850  0.00  0.00     0.210 HD
ENDBRANCH   3  21
BRANCH   4  23
HETATM   23  O   UNK     0      74.803  35.145  29.427  0.00  0.00    -0.388 OA
HETATM   24  H   UNK     0      74.856  35.183  28.456  0.00  0.00     0.210 HD
ENDBRANCH   4  23
BRANCH   2  25
HETATM   25  O   UNK     0      73.184  36.865  27.664  0.00  0.00    -0.390 OA
HETATM   26  H   UNK     0      72.234  36.960  27.845  0.00  0.00     0.210 HD
ENDBRANCH   2  25
TORSDOF 10
ENDMDL
MODEL 3
REMARK VINA RESULT:      -7.0      1.909      1.995
REMARK  10 active torsions:
REMARK  status: ('A' for Active; 'I' for Inactive)
REMARK    1  A    between atoms: O_2  and  C_12 
REMARK    2  A    between atoms: O_2  and  C_14 
REMARK    3  A    between atoms: O_3  and  C_8 
REMARK    4  A    between atoms: O_4  and  C_9 
REMARK    5  A    between atoms: O_5  and  C_10 
REMARK    6  A    between atoms: O_6  and  C_13 
REMARK    7  A    between atoms: O_7  and  C_21 
REMARK    8  A    between atoms: C_11  and  C_13 
REMARK    9  A    between atoms: C_14  and  C_15 
REMARK   10  A    between atoms: C_15  and  C_16 
ROOT
HETATM    1  O   UNK     0      71.618  37.871  30.864  0.00  0.00    -0.348 OA
HETATM    2  C   UNK     0      72.945  37.609  28.330  0.00  0.00     0.183 C 
HETATM    3  C   UNK     0      72.955  38.912  29.131  0.00  0.00     0.180 C 
HETATM    4  C   UNK     0      71.764  36.724  28.728  0.00  0.00     0.204 C 
HETATM    5  C   UNK     0      72.804  38.631  30.627  0.00  0.00     0.179 C 
HETATM    6  C   UNK     0      71.659  36.585  30.247  0.00  0.00     0.291 C 
ENDROOT
BRANCH   5   7
HETATM    7  C   UNK     0      72.692  39.919  31.436  0.00  0.00     0.198 C 
BRANCH   7   8
HETATM    8  O   UNK     0      71.467  40.549  31.114  0.00  0.00    -0.398 OA
HETATM    9  H   UNK     0      71.186  40.220  30.243  0.00  0.00     0.209 HD
ENDBRANCH   7   8
ENDBRANCH   5   7
BRANCH   6  10
HETATM   10  O   UNK     0      70.460  35.871  30.541  0.00  0.00    -0.358 OA
BRANCH  10  11
HETATM   11  C   UNK     0      70.309  35.668  31.938  0.00  0.00     0.175 C 
BRANCH  11  12
HETATM   12  C   UNK     0      70.867  34.303  32.324  0.00  0.00     0.065 C 
BRANCH  12  13
HETATM   13  C   UNK     0      72.377  34.282  32.329  0.00  0.00    -0.056 A 
HETATM   14  C   UNK     0      73.047  33.419  31.478  0.00  0.00     0.010 A 
HETATM   15  C   UNK     0      74.442  33.400  31.483  0.00  0.00     0.037 A 
HETATM   16  C   UNK     0      75.147  34.244  32.341  0.00  0.00     0.065 A 
HETATM   17  C   UNK     0      74.459  35.107  33.193  0.00  0.00     0.037 A 
HETATM   18  C   UNK     0      73.064  35.126  33.187  0.00  0.00     0.010 A 
BRANCH  16  19
HETATM   19  O   UNK     0      76.509  34.224  32.346  0.00  0.00    -0.361 OA
HETATM   20  H   UNK     0      76.824  34.474  33.231  0.00  0.00     0.217 HD
ENDBRANCH  16  19
ENDBRANCH  12  13
ENDBRANCH  11  12
ENDBRANCH  10  11
ENDBRANCH   6  10
BRANCH   3  21
HETATM   21  O   UNK     0      74.183  39.597  28.902  0.00  0.00    -0.390 OA
HETATM   22  H   UNK     0      74.035  40.543  29.067  0.00  0.00     0.210 HD
ENDBRANCH   3  21
BRANCH   4  23
HETATM   23  O   UNK     0      71.940  35.421  28.172  0.00  0.00    -0.388 OA
HETATM   24  H   UNK     0      71.151  35.210  27.642  0.00  0.00     0.210 HD
ENDBRANCH   4  23
BRANCH   2  25
HETATM   25  O   UNK     0      72.844  37.943  26.945  0.00  0.00    -0.390 OA
HETATM   26  H   UNK     0      73.452  38.684  26.779  0.00  0.00     0.210 HD
ENDBRANCH   2  25
TORSDOF 10
ENDMDL
MODEL 4
REMARK VINA RESULT:      -7.0      2.715      3.834
REMARK  10 active torsions:
REMARK  status: ('A' for Active; 'I' for Inactive)
REMARK    1  A    between atoms: O_2  and  C_12 
REMARK    2  A    between atoms: O_2  and  C_14 
REMARK    3  A    between atoms: O_3  and  C_8 
REMARK    4  A    between atoms: O_4  and  C_9 
REMARK    5  A    between atoms: O_5  and  C_10 
REMARK    6  A    between atoms: O_6  and  C_13 
REMARK    7  A    between atoms: O_7  and  C_21 
REMARK    8  A    between atoms: C_11  and  C_13 
REMARK    9  A    between atoms: C_14  and  C_15 
REMARK   10  A    between atoms: C_15  and  C_16 
ROOT
HETATM    1  O   UNK     0      74.697  38.448  31.116  0.00  0.00    -0.348 OA
HETATM    2  C   UNK     0      71.886  37.951  30.803  0.00  0.00     0.183 C 
HETATM    3  C   UNK     0      72.432  39.288  31.305  0.00  0.00     0.180 C 
HETATM    4  C   UNK     0      72.895  36.824  31.024  0.00  0.00     0.204 C 
HETATM    5  C   UNK     0      73.841  39.537  30.765  0.00  0.00     0.179 C 
HETATM    6  C   UNK     0      74.286  37.216  30.527  0.00  0.00     0.291 C 
ENDROOT
BRANCH   5   7
HETATM    7  C   UNK     0      74.453  40.807  31.345  0.00  0.00     0.198 C 
BRANCH   7   8
HETATM    8  O   UNK     0      75.266  41.410  30.356  0.00  0.00    -0.398 OA
HETATM    9  H   UNK     0      74.697  41.987  29.819  0.00  0.00     0.209 HD
ENDBRANCH   7   8
ENDBRANCH   5   7
BRANCH   6  10
HETATM   10  O   UNK     0      75.193  36.179  30.896  0.00  0.00    -0.358 OA
BRANCH  10  11
HETATM   11  C   UNK     0      75.078  35.859  32.274  0.00  0.00     0.175 C 
BRANCH  11  12
HETATM   12  C   UNK     0      75.262  34.358  32.472  0.00  0.00     0.065 C 
BRANCH  12  13
HETATM   13  C   UNK     0      75.320  33.975  33.930  0.00  0.00    -0.056 A 
HETATM   14  C   UNK     0      74.232  33.345  34.511  0.00  0.00     0.010 A 
HETATM   15  C   UNK     0      74.286  32.990  35.859  0.00  0.00     0.037 A 
HETATM   16  C   UNK     0      75.429  33.271  36.608  0.00  0.00     0.065 A 
HETATM   17  C   UNK     0      76.517  33.906  36.010  0.00  0.00     0.037 A 
HETATM   18  C   UNK     0      76.462  34.260  34.662  0.00  0.00     0.010 A 
BRANCH  16  19
HETATM   19  O   UNK     0      75.482  32.925  37.924  0.00  0.00    -0.361 OA
HETATM   20  H   UNK     0      74.607  32.602  38.200  0.00  0.00     0.217 HD
ENDBRANCH  16  19
ENDBRANCH  12  13
ENDBRANCH  11  12
ENDBRANCH  10  11
ENDBRANCH   6  10
BRANCH   3  21
HETATM   21  O   UNK     0      71.571  40.339  30.876  0.00  0.00    -0.390 OA
HETATM   22  H   UNK     0      70.781  40.332  31.443  0.00  0.00     0.210 HD
ENDBRANCH   3  21
BRANCH   4  23
HETATM   23  O   UNK     0      72.474  35.664  30.305  0.00  0.00    -0.388 OA
HETATM   24  H   UNK     0      72.053  35.957  29.479  0.00  0.00     0.210 HD
ENDBRANCH   4  23
BRANCH   2  25
HETATM   25  O   UNK     0      70.687  37.664  31.524  0.00  0.00    -0.390 OA
HETATM   26  H   UNK     0      70.038  37.323  30.885  0.00  0.00     0.210 HD
ENDBRANCH   2  25
TORSDOF 10
ENDMDL
MODEL 5
REMARK VINA RESULT:      -6.9     20.793     23.743
REMARK  10 active torsions:
REMARK  status: ('A' for Active; 'I' for Inactive)
REMARK    1  A    between atoms: O_2  and  C_12 
REMARK    2  A    between atoms: O_2  and  C_14 
REMARK    3  A    between atoms: O_3  and  C_8 
REMARK    4  A    between atoms: O_4  and  C_9 
REMARK    5  A    between atoms: O_5  and  C_10 
REMARK    6  A    between atoms: O_6  and  C_13 
REMARK    7  A    between atoms: O_7  and  C_21 
REMARK    8  A    between atoms: C_11  and  C_13 
REMARK    9  A    between atoms: C_14  and  C_15 
REMARK   10  A    between atoms: C_15  and  C_16 
ROOT
HETATM    1  O   UNK     0      57.517  16.803  26.653  0.00  0.00    -0.348 OA
HETATM    2  C   UNK     0      58.066  15.960  29.343  0.00  0.00     0.183 C 
HETATM    3  C   UNK     0      56.657  15.941  28.749  0.00  0.00     0.180 C 
HETATM    4  C   UNK     0      58.969  16.941  28.594  0.00  0.00     0.204 C 
HETATM    5  C   UNK     0      56.711  15.774  27.229  0.00  0.00     0.179 C 
HETATM    6  C   UNK     0      58.875  16.740  27.082  0.00  0.00     0.291 C 
ENDROOT
BRANCH   5   7
HETATM    7  C   UNK     0      55.325  15.870  26.600  0.00  0.00     0.198 C 
BRANCH   7   8
HETATM    8  O   UNK     0      54.530  16.735  27.389  0.00  0.00    -0.398 OA
HETATM    9  H   UNK     0      55.131  17.306  27.897  0.00  0.00     0.209 HD
ENDBRANCH   7   8
ENDBRANCH   5   7
BRANCH   6  10
HETATM   10  O   UNK     0      59.628  17.776  26.454  0.00  0.00    -0.358 OA
BRANCH  10  11
HETATM   11  C   UNK     0      58.951  18.289  25.316  0.00  0.00     0.175 C 
BRANCH  11  12
HETATM   12  C   UNK     0      59.143  19.799  25.239  0.00  0.00     0.065 C 
BRANCH  12  13
HETATM   13  C   UNK     0      58.694  20.500  26.498  0.00  0.00    -0.056 A 
HETATM   14  C   UNK     0      59.602  21.261  27.213  0.00  0.00     0.010 A 
HETATM   15  C   UNK     0      59.187  21.909  28.377  0.00  0.00     0.037 A 
HETATM   16  C   UNK     0      57.866  21.785  28.810  0.00  0.00     0.065 A 
HETATM   17  C   UNK     0      56.962  21.015  28.080  0.00  0.00     0.037 A 
HETATM   18  C   UNK     0      57.379  20.368  26.916  0.00  0.00     0.010 A 
BRANCH  16  19
HETATM   19  O   UNK     0      57.461  22.417  29.946  0.00  0.00    -0.361 OA
HETATM   20  H   UNK     0      57.649  23.367  29.862  0.00  0.00     0.217 HD
ENDBRANCH  16  19
ENDBRANCH  12  13
ENDBRANCH  11  12
ENDBRANCH  10  11
ENDBRANCH   6  10
BRANCH   3  21
HETATM   21  O   UNK     0      55.921  14.861  29.316  0.00  0.00    -0.390 OA
HETATM   22  H   UNK     0      55.727  14.224  28.607  0.00  0.00     0.210 HD
ENDBRANCH   3  21
BRANCH   4  23
HETATM   23  O   UNK     0      60.325  16.733  28.990  0.00  0.00    -0.388 OA
HETATM   24  H   UNK     0      60.434  15.791  29.210  0.00  0.00     0.210 HD
ENDBRANCH   4  23
BRANCH   2  25
HETATM   25  O   UNK     0      57.963  16.358  30.711  0.00  0.00    -0.390 OA
HETATM   26  H   UNK     0      57.336  17.101  30.752  0.00  0.00     0.210 HD
ENDBRANCH   2  25
TORSDOF 10
ENDMDL
MODEL 6
REMARK VINA RESULT:      -6.9      2.180      3.420
REMARK  10 active torsions:
REMARK  status: ('A' for Active; 'I' for Inactive)
REMARK    1  A    between atoms: O_2  and  C_12 
REMARK    2  A    between atoms: O_2  and  C_14 
REMARK    3  A    between atoms: O_3  and  C_8 
REMARK    4  A    between atoms: O_4  and  C_9 
REMARK    5  A    between atoms: O_5  and  C_10 
REMARK    6  A    between atoms: O_6  and  C_13 
REMARK    7  A    between atoms: O_7  and  C_21 
REMARK    8  A    between atoms: C_11  and  C_13 
REMARK    9  A    between atoms: C_14  and  C_15 
REMARK   10  A    between atoms: C_15  and  C_16 
ROOT
HETATM    1  O   UNK     0      74.673  37.514  30.525  0.00  0.00    -0.348 OA
HETATM    2  C   UNK     0      72.882  37.067  28.325  0.00  0.00     0.183 C 
HETATM    3  C   UNK     0      73.086  38.447  28.950  0.00  0.00     0.180 C 
HETATM    4  C   UNK     0      73.271  35.955  29.301  0.00  0.00     0.204 C 
HETATM    5  C   UNK     0      74.478  38.562  29.574  0.00  0.00     0.179 C 
HETATM    6  C   UNK     0      74.639  36.219  29.928  0.00  0.00     0.291 C 
ENDROOT
BRANCH   5   7
HETATM    7  C   UNK     0      74.662  39.886  30.306  0.00  0.00     0.198 C 
BRANCH   7   8
HETATM    8  O   UNK     0      73.392  40.357  30.716  0.00  0.00    -0.398 OA
HETATM    9  H   UNK     0      73.189  41.151  30.193  0.00  0.00     0.209 HD
ENDBRANCH   7   8
ENDBRANCH   5   7
BRANCH   6  10
HETATM   10  O   UNK     0      74.864  35.223  30.925  0.00  0.00    -0.358 OA
BRANCH  10  11
HETATM   11  C   UNK     0      74.889  35.791  32.226  0.00  0.00     0.175 C 
BRANCH  11  12
HETATM   12  C   UNK     0      73.912  35.049  33.131  0.00  0.00     0.065 C 
BRANCH  12  13
HETATM   13  C   UNK     0      72.504  35.059  32.586  0.00  0.00    -0.056 A 
HETATM   14  C   UNK     0      71.841  36.265  32.440  0.00  0.00     0.010 A 
HETATM   15  C   UNK     0      70.540  36.274  31.936  0.00  0.00     0.037 A 
HETATM   16  C   UNK     0      69.920  35.074  31.586  0.00  0.00     0.065 A 
HETATM   17  C   UNK     0      70.600  33.867  31.739  0.00  0.00     0.037 A 
HETATM   18  C   UNK     0      71.901  33.859  32.242  0.00  0.00     0.010 A 
BRANCH  16  19
HETATM   19  O   UNK     0      68.651  35.084  31.095  0.00  0.00    -0.361 OA
HETATM   20  H   UNK     0      68.637  35.594  30.267  0.00  0.00     0.217 HD
ENDBRANCH  16  19
ENDBRANCH  12  13
ENDBRANCH  11  12
ENDBRANCH  10  11
ENDBRANCH   6  10
BRANCH   3  21
HETATM   21  O   UNK     0      72.937  39.446  27.944  0.00  0.00    -0.390 OA
HETATM   22  H   UNK     0      72.734  40.289  28.385  0.00  0.00     0.210 HD
ENDBRANCH   3  21
BRANCH   4  23
HETATM   23  O   UNK     0      73.331  34.712  28.602  0.00  0.00    -0.388 OA
HETATM   24  H   UNK     0      74.225  34.619  28.228  0.00  0.00     0.210 HD
ENDBRANCH   4  23
BRANCH   2  25
HETATM   25  O   UNK     0      71.503  36.937  27.980  0.00  0.00    -0.390 OA
HETATM   26  H   UNK     0      71.118  36.264  28.568  0.00  0.00     0.210 HD
ENDBRANCH   2  25
TORSDOF 10
ENDMDL
MODEL 7
REMARK VINA RESULT:      -6.9     20.593     23.621
REMARK  10 active torsions:
REMARK  status: ('A' for Active; 'I' for Inactive)
REMARK    1  A    between atoms: O_2  and  C_12 
REMARK    2  A    between atoms: O_2  and  C_14 
REMARK    3  A    between atoms: O_3  and  C_8 
REMARK    4  A    between atoms: O_4  and  C_9 
REMARK    5  A    between atoms: O_5  and  C_10 
REMARK    6  A    between atoms: O_6  and  C_13 
REMARK    7  A    between atoms: O_7  and  C_21 
REMARK    8  A    between atoms: C_11  and  C_13 
REMARK    9  A    between atoms: C_14  and  C_15 
REMARK   10  A    between atoms: C_15  and  C_16 
ROOT
HETATM    1  O   UNK     0      56.371  17.980  27.547  0.00  0.00    -0.348 OA
HETATM    2  C   UNK     0      57.237  16.935  30.079  0.00  0.00     0.183 C 
HETATM    3  C   UNK     0      56.170  16.246  29.229  0.00  0.00     0.180 C 
HETATM    4  C   UNK     0      57.354  18.418  29.724  0.00  0.00     0.204 C 
HETATM    5  C   UNK     0      56.367  16.565  27.745  0.00  0.00     0.179 C 
HETATM    6  C   UNK     0      57.457  18.622  28.213  0.00  0.00     0.291 C 
ENDROOT
BRANCH   5   7
HETATM    7  C   UNK     0      55.247  15.985  26.889  0.00  0.00     0.198 C 
BRANCH   7   8
HETATM    8  O   UNK     0      54.071  16.741  27.111  0.00  0.00    -0.398 OA
HETATM    9  H   UNK     0      53.370  16.124  27.382  0.00  0.00     0.209 HD
ENDBRANCH   7   8
ENDBRANCH   5   7
BRANCH   6  10
HETATM   10  O   UNK     0      57.417  20.025  27.956  0.00  0.00    -0.358 OA
BRANCH  10  11
HETATM   11  C   UNK     0      58.355  20.393  26.955  0.00  0.00     0.175 C 
BRANCH  11  12
HETATM   12  C   UNK     0      59.345  19.256  26.733  0.00  0.00     0.065 C 
BRANCH  12  13
HETATM   13  C   UNK     0      60.298  19.538  25.597  0.00  0.00    -0.056 A 
HETATM   14  C   UNK     0      60.790  18.484  24.846  0.00  0.00     0.010 A 
HETATM   15  C   UNK     0      61.670  18.744  23.795  0.00  0.00     0.037 A 
HETATM   16  C   UNK     0      62.047  20.058  23.511  0.00  0.00     0.065 A 
HETATM   17  C   UNK     0      61.543  21.109  24.276  0.00  0.00     0.037 A 
HETATM   18  C   UNK     0      60.663  20.847  25.326  0.00  0.00     0.010 A 
BRANCH  16  19
HETATM   19  O   UNK     0      62.905  20.312  22.486  0.00  0.00    -0.361 OA
HETATM   20  H   UNK     0      63.177  19.468  22.086  0.00  0.00     0.217 HD
ENDBRANCH  16  19
ENDBRANCH  12  13
ENDBRANCH  11  12
ENDBRANCH  10  11
ENDBRANCH   6  10
BRANCH   3  21
HETATM   21  O   UNK     0      56.252  14.836  29.422  0.00  0.00    -0.390 OA
HETATM   22  H   UNK     0      56.662  14.675  30.289  0.00  0.00     0.210 HD
ENDBRANCH   3  21
BRANCH   4  23
HETATM   23  O   UNK     0      58.529  18.959  30.329  0.00  0.00    -0.388 OA
HETATM   24  H   UNK     0      59.302  18.609  29.852  0.00  0.00     0.210 HD
ENDBRANCH   4  23
BRANCH   2  25
HETATM   25  O   UNK     0      56.864  16.803  31.451  0.00  0.00    -0.390 OA
HETATM   26  H   UNK     0      57.436  17.395  31.967  0.00  0.00     0.210 HD
ENDBRANCH   2  25
TORSDOF 10
ENDMDL
MODEL 8
REMARK VINA RESULT:      -6.8      1.564      2.867
REMARK  10 active torsions:
REMARK  status: ('A' for Active; 'I' for Inactive)
REMARK    1  A    between atoms: O_2  and  C_12 
REMARK    2  A    between atoms: O_2  and  C_14 
REMARK    3  A    between atoms: O_3  and  C_8 
REMARK    4  A    between atoms: O_4  and  C_9 
REMARK    5  A    between atoms: O_5  and  C_10 
REMARK    6  A    between atoms: O_6  and  C_13 
REMARK    7  A    between atoms: O_7  and  C_21 
REMARK    8  A    between atoms: C_11  and  C_13 
REMARK    9  A    between atoms: C_14  and  C_15 
REMARK   10  A    between atoms: C_15  and  C_16 
ROOT
HETATM    1  O   UNK     0      72.230  36.414  29.919  0.00  0.00    -0.348 OA
HETATM    2  C   UNK     0      73.553  38.962  29.981  0.00  0.00     0.183 C 
HETATM    3  C   UNK     0      74.262  37.680  29.544  0.00  0.00     0.180 C 
HETATM    4  C   UNK     0      72.338  38.652  30.856  0.00  0.00     0.204 C 
HETATM    5  C   UNK     0      73.262  36.676  28.967  0.00  0.00     0.179 C 
HETATM    6  C   UNK     0      71.458  37.574  30.223  0.00  0.00     0.291 C 
ENDROOT
BRANCH   5   7
HETATM    7  C   UNK     0      73.927  35.345  28.633  0.00  0.00     0.198 C 
BRANCH   7   8
HETATM    8  O   UNK     0      74.935  35.090  29.593  0.00  0.00    -0.398 OA
HETATM    9  H   UNK     0      75.311  35.946  29.859  0.00  0.00     0.209 HD
ENDBRANCH   7   8
ENDBRANCH   5   7
BRANCH   6  10
HETATM   10  O   UNK     0      70.433  37.240  31.157  0.00  0.00    -0.358 OA
BRANCH  10  11
HETATM   11  C   UNK     0      70.251  35.834  31.242  0.00  0.00     0.175 C 
BRANCH  11  12
HETATM   12  C   UNK     0      70.111  35.420  32.703  0.00  0.00     0.065 C 
BRANCH  12  13
HETATM   13  C   UNK     0      71.374  34.796  33.245  0.00  0.00    -0.056 A 
HETATM   14  C   UNK     0      71.290  33.628  33.984  0.00  0.00     0.010 A 
HETATM   15  C   UNK     0      72.457  33.051  34.486  0.00  0.00     0.037 A 
HETATM   16  C   UNK     0      73.693  33.652  34.241  0.00  0.00     0.065 A 
HETATM   17  C   UNK     0      73.761  34.827  33.495  0.00  0.00     0.037 A 
HETATM   18  C   UNK     0      72.594  35.404  32.994  0.00  0.00     0.010 A 
BRANCH  16  19
HETATM   19  O   UNK     0      74.831  33.088  34.731  0.00  0.00    -0.361 OA
HETATM   20  H   UNK     0      75.430  32.893  33.989  0.00  0.00     0.217 HD
ENDBRANCH  16  19
ENDBRANCH  12  13
ENDBRANCH  11  12
ENDBRANCH  10  11
ENDBRANCH   6  10
BRANCH   3  21
HETATM   21  O   UNK     0      75.238  37.995  28.554  0.00  0.00    -0.390 OA
HETATM   22  H   UNK     0      74.828  37.880  27.680  0.00  0.00     0.210 HD
ENDBRANCH   3  21
BRANCH   4  23
HETATM   23  O   UNK     0      71.553  39.834  31.013  0.00  0.00    -0.388 OA
HETATM   24  H   UNK     0      70.780  39.764  30.426  0.00  0.00     0.210 HD
ENDBRANCH   4  23
BRANCH   2  25
HETATM   25  O   UNK     0      74.484  39.751  30.723  0.00  0.00    -0.390 OA
HETATM   26  H   UNK     0      74.869  39.179  31.409  0.00  0.00     0.210 HD
ENDBRANCH   2  25
TORSDOF 10
ENDMDL
MODEL 9
REMARK VINA RESULT:      -6.8     21.819     23.757
REMARK  10 active torsions:
REMARK  status: ('A' for Active; 'I' for Inactive)
REMARK    1  A    between atoms: O_2  and  C_12 
REMARK    2  A    between atoms: O_2  and  C_14 
REMARK    3  A    between atoms: O_3  and  C_8 
REMARK    4  A    between atoms: O_4  and  C_9 
REMARK    5  A    between atoms: O_5  and  C_10 
REMARK    6  A    between atoms: O_6  and  C_13 
REMARK    7  A    between atoms: O_7  and  C_21 
REMARK    8  A    between atoms: C_11  and  C_13 
REMARK    9  A    between atoms: C_14  and  C_15 
REMARK   10  A    between atoms: C_15  and  C_16 
ROOT
HETATM    1  O   UNK     0      58.171  18.412  27.998  0.00  0.00    -0.348 OA
HETATM    2  C   UNK     0      57.581  15.846  29.145  0.00  0.00     0.183 C 
HETATM    3  C   UNK     0      57.638  17.125  29.981  0.00  0.00     0.180 C 
HETATM    4  C   UNK     0      58.376  15.997  27.848  0.00  0.00     0.204 C 
HETATM    5  C   UNK     0      57.298  18.348  29.127  0.00  0.00     0.179 C 
HETATM    6  C   UNK     0      58.019  17.295  27.124  0.00  0.00     0.291 C 
ENDROOT
BRANCH   5   7
HETATM    7  C   UNK     0      57.463  19.647  29.909  0.00  0.00     0.198 C 
BRANCH   7   8
HETATM    8  O   UNK     0      56.627  20.631  29.331  0.00  0.00    -0.398 OA
HETATM    9  H   UNK     0      56.897  20.740  28.404  0.00  0.00     0.209 HD
ENDBRANCH   7   8
ENDBRANCH   5   7
BRANCH   6  10
HETATM   10  O   UNK     0      58.898  17.432  26.009  0.00  0.00    -0.358 OA
BRANCH  10  11
HETATM   11  C   UNK     0      60.139  18.003  26.397  0.00  0.00     0.175 C 
BRANCH  11  12
HETATM   12  C   UNK     0      61.274  17.039  26.072  0.00  0.00     0.065 C 
BRANCH  12  13
HETATM   13  C   UNK     0      61.794  17.219  24.666  0.00  0.00    -0.056 A 
HETATM   14  C   UNK     0      62.053  16.102  23.890  0.00  0.00     0.010 A 
HETATM   15  C   UNK     0      62.534  16.268  22.591  0.00  0.00     0.037 A 
HETATM   16  C   UNK     0      62.749  17.551  22.086  0.00  0.00     0.065 A 
HETATM   17  C   UNK     0      62.483  18.666  22.879  0.00  0.00     0.037 A 
HETATM   18  C   UNK     0      62.002  18.499  24.178  0.00  0.00     0.010 A 
BRANCH  16  19
HETATM   19  O   UNK     0      63.218  17.713  20.818  0.00  0.00    -0.361 OA
HETATM   20  H   UNK     0      62.463  17.789  20.210  0.00  0.00     0.217 HD
ENDBRANCH  16  19
ENDBRANCH  12  13
ENDBRANCH  11  12
ENDBRANCH  10  11
ENDBRANCH   6  10
BRANCH   3  21
HETATM   21  O   UNK     0      56.707  17.027  31.056  0.00  0.00    -0.390 OA
HETATM   22  H   UNK     0      56.876  16.193  31.526  0.00  0.00     0.210 HD
ENDBRANCH   3  21
BRANCH   4  23
HETATM   23  O   UNK     0      58.077  14.904  26.979  0.00  0.00    -0.388 OA
HETATM   24  H   UNK     0      58.084  14.088  27.508  0.00  0.00     0.210 HD
ENDBRANCH   4  23
BRANCH   2  25
HETATM   25  O   UNK     0      58.136  14.785  29.923  0.00  0.00    -0.390 OA
HETATM   26  H   UNK     0      58.448  14.102  29.304  0.00  0.00     0.210 HD
ENDBRANCH   2  25
TORSDOF 10
ENDMDL
