REMARK  11 active torsions:
REMARK  status: ('A' for Active; 'I' for Inactive)
REMARK    1  A    between atoms: O_1  and  C_9 
REMARK    2  A    between atoms: O_2  and  C_19 
REMARK    3  A    between atoms: O_3  and  C_26 
REMARK    4  A    between atoms: O_4  and  C_27 
REMARK    5  A    between atoms: O_6  and  C_28 
REMARK    6  A    between atoms: O_7  and  C_32 
REMARK    7  A    between atoms: C_10  and  C_19 
REMARK    8  A    between atoms: C_19  and  C_27 
REMARK    9  A    between atoms: C_27  and  C_30 
REMARK   10  A    between atoms: C_30  and  C_31 
REMARK   11  A    between atoms: C_31  and  C_32 
ROOT
HETATM    1  O   UNK     0       0.074   0.762   1.287  0.00  0.00    -0.384 OA
HETATM    2  H   UNK     0       0.493   0.874   2.158  0.00  0.00     0.211 HD
ENDROOT
BRANCH   1   3
HETATM    3  C   UNK     0       0.311  -0.597   0.854  0.00  0.00     0.089 C 
HETATM    4  C   UNK     0      -0.435  -0.849  -0.482  0.00  0.00    -0.002 C 
HETATM    5  C   UNK     0      -1.908  -0.696  -0.024  0.00  0.00     0.034 C 
HETATM    6  C   UNK     0       0.014   0.213  -1.502  0.00  0.00     0.014 C 
HETATM    7  C   UNK     0      -0.180  -2.268  -1.059  0.00  0.00     0.019 C 
HETATM    8  C   UNK     0      -1.937  -1.388   1.358  0.00  0.00     0.012 C 
HETATM    9  C   UNK     0      -0.471  -1.484   1.835  0.00  0.00     0.044 C 
HETATM   10  C   UNK     0       1.533   0.150  -1.731  0.00  0.00     0.011 C 
HETATM   11  C   UNK     0       2.400   0.153  -0.434  0.00  0.00     0.027 C 
HETATM   12  C   UNK     0       3.921  -0.154  -0.727  0.00  0.00    -0.023 C 
HETATM   13  C   UNK     0       1.811  -0.716   0.688  0.00  0.00    -0.037 C 
HETATM   14  C   UNK     0       4.695  -0.335   0.609  0.00  0.00     0.071 C 
HETATM   15  C   UNK     0       4.592   0.994  -1.534  0.00  0.00     0.044 C 
HETATM   16  C   UNK     0       4.091  -1.453  -1.561  0.00  0.00     0.016 C 
HETATM   17  C   UNK     0       4.859   0.971   1.406  0.00  0.00     0.047 C 
HETATM   18  C   UNK     0       4.037  -1.383   1.486  0.00  0.00     0.154 C 
HETATM   19  C   UNK     0       5.520   2.065   0.569  0.00  0.00     0.147 C 
HETATM   20  C   UNK     0       4.756   2.292  -0.736  0.00  0.00     0.147 C 
HETATM   21  O   UNK     0       4.697  -2.126   2.211  0.00  0.00    -0.293 OA
HETATM   22  C   UNK     0       2.559  -1.450   1.526  0.00  0.00     0.057 C 
BRANCH   5  23
HETATM   23  C   UNK     0      -2.975  -1.228  -0.973  0.00  0.00     0.084 C 
HETATM   24  C   UNK     0      -2.885  -0.495  -2.322  0.00  0.00     0.049 C 
BRANCH  23  25
HETATM   25  O   UNK     0      -2.710  -2.615  -1.221  0.00  0.00    -0.387 OA
HETATM   26  H   UNK     0      -3.045  -3.138  -0.474  0.00  0.00     0.210 HD
ENDBRANCH  23  25
BRANCH  23  27
HETATM   27  C   UNK     0      -4.404  -1.107  -0.377  0.00  0.00     0.152 C 
BRANCH  27  28
HETATM   28  O   UNK     0      -5.349  -1.701  -1.273  0.00  0.00    -0.393 OA
HETATM   29  H   UNK     0      -5.056  -2.614  -1.441  0.00  0.00     0.210 HD
ENDBRANCH  27  28
BRANCH  27  30
HETATM   30  C   UNK     0      -4.850   0.340  -0.092  0.00  0.00     0.037 C 
BRANCH  30  31
HETATM   31  C   UNK     0      -6.290   0.404   0.451  0.00  0.00     0.040 C 
BRANCH  31  32
HETATM   32  C   UNK     0      -6.823   1.833   0.684  0.00  0.00     0.051 C 
HETATM   33  C   UNK     0      -5.975   2.528   1.755  0.00  0.00     0.045 C 
HETATM   34  C   UNK     0      -6.835   2.671  -0.596  0.00  0.00     0.045 C 
BRANCH  32  35
HETATM   35  O   UNK     0      -8.161   1.739   1.177  0.00  0.00    -0.391 OA
HETATM   36  H   UNK     0      -8.702   1.310   0.493  0.00  0.00     0.210 HD
ENDBRANCH  32  35
ENDBRANCH  31  32
ENDBRANCH  30  31
ENDBRANCH  27  30
ENDBRANCH  23  27
ENDBRANCH   5  23
BRANCH  19  37
HETATM   37  O   UNK     0       6.862   1.678   0.268  0.00  0.00    -0.393 OA
HETATM   38  H   UNK     0       7.327   1.551   1.112  0.00  0.00     0.210 HD
ENDBRANCH  19  37
BRANCH  20  39
HETATM   39  O   UNK     0       5.457   3.252  -1.523  0.00  0.00    -0.393 OA
HETATM   40  H   UNK     0       4.947   3.389  -2.340  0.00  0.00     0.210 HD
ENDBRANCH  20  39
ENDBRANCH   1   3
TORSDOF 11
