MODEL 1
REMARK VINA RESULT:      -6.1      0.000      0.000
REMARK  4 active torsions:
REMARK  status: ('A' for Active; 'I' for Inactive)
REMARK    1  A    between atoms: C_2  and  C_12 
REMARK    2  A    between atoms: C_6  and  O_22 
REMARK    3  A    between atoms: C_8  and  O_20 
REMARK    4  A    between atoms: C_15  and  O_18 
ROOT
ATOM      1  O   UNL     1      -0.023  -3.792  -1.093  0.00  0.00    -0.454 OA
ATOM      2  C   UNL     1      -0.951  -4.715  -0.632  0.00  0.00     0.139 A 
ATOM      3  C   UNL     1      -1.698  -4.548   0.471  0.00  0.00     0.098 A 
ATOM      4  C   UNL     1      -1.537  -3.322   1.278  0.00  0.00     0.197 A 
ATOM      5  C   UNL     1      -0.545  -2.350   0.791  0.00  0.00     0.105 A 
ATOM      6  C   UNL     1      -0.314  -1.158   1.481  0.00  0.00     0.135 A 
ATOM      7  C   UNL     1       0.632  -0.255   0.997  0.00  0.00     0.091 A 
ATOM      8  C   UNL     1       1.342  -0.541  -0.171  0.00  0.00     0.124 A 
ATOM      9  C   UNL     1       1.108  -1.733  -0.858  0.00  0.00     0.092 A 
ATOM     10  O   UNL     1      -2.195  -3.133   2.290  0.00  0.00    -0.287 OA
ATOM     11  C   UNL     1       0.163  -2.638  -0.374  0.00  0.00     0.146 A 
ENDROOT
BRANCH   2  12
ATOM     12  C   UNL     1      -1.075  -5.915  -1.482  0.00  0.00     0.018 A 
ATOM     13  C   UNL     1      -1.933  -5.910  -2.584  0.00  0.00     0.015 A 
ATOM     14  C   UNL     1      -2.051  -7.045  -3.386  0.00  0.00     0.046 A 
ATOM     15  C   UNL     1      -1.311  -8.189  -3.089  0.00  0.00     0.117 A 
ATOM     16  C   UNL     1      -0.453  -8.198  -1.989  0.00  0.00     0.046 A 
ATOM     17  C   UNL     1      -0.335  -7.063  -1.186  0.00  0.00     0.015 A 
BRANCH  15  18
ATOM     18  O   UNL     1      -1.426  -9.296  -3.871  0.00  0.00    -0.507 OA
ATOM     19  H   UNL     1      -1.299 -10.087  -3.318  0.00  0.00     0.292 HD
ENDBRANCH  15  18
ENDBRANCH   2  12
BRANCH   6  20
ATOM     20  O   UNL     1      -0.980  -0.831   2.624  0.00  0.00    -0.506 OA
ATOM     21  H   UNL     1      -1.545  -0.056   2.478  0.00  0.00     0.292 HD
ENDBRANCH   6  20
BRANCH   8  22
ATOM     22  O   UNL     1       2.263   0.344  -0.641  0.00  0.00    -0.507 OA
ATOM     23  H   UNL     1       2.004   0.625  -1.536  0.00  0.00     0.292 HD
ENDBRANCH   8  22
TORSDOF 4
ENDMDL
MODEL 2
REMARK VINA RESULT:      -6.0      1.861      2.044
REMARK  4 active torsions:
REMARK  status: ('A' for Active; 'I' for Inactive)
REMARK    1  A    between atoms: C_2  and  C_12 
REMARK    2  A    between atoms: C_6  and  O_22 
REMARK    3  A    between atoms: C_8  and  O_20 
REMARK    4  A    between atoms: C_15  and  O_18 
ROOT
ATOM      1  O   UNL     1      -0.332  -4.464  -0.400  0.00  0.00    -0.454 OA
ATOM      2  C   UNL     1      -0.278  -5.786   0.014  0.00  0.00     0.139 A 
ATOM      3  C   UNL     1       0.056  -6.177   1.254  0.00  0.00     0.098 A 
ATOM      4  C   UNL     1       0.409  -5.158   2.265  0.00  0.00     0.197 A 
ATOM      5  C   UNL     1       0.360  -3.757   1.818  0.00  0.00     0.105 A 
ATOM      6  C   UNL     1       0.677  -2.717   2.694  0.00  0.00     0.135 A 
ATOM      7  C   UNL     1       0.622  -1.398   2.245  0.00  0.00     0.091 A 
ATOM      8  C   UNL     1       0.251  -1.121   0.927  0.00  0.00     0.124 A 
ATOM      9  C   UNL     1      -0.065  -2.163   0.055  0.00  0.00     0.092 A 
ATOM     10  O   UNL     1       0.722  -5.472   3.404  0.00  0.00    -0.287 OA
ATOM     11  C   UNL     1      -0.009  -3.483   0.503  0.00  0.00     0.146 A 
ENDROOT
BRANCH   2  12
ATOM     12  C   UNL     1      -0.649  -6.758  -1.034  0.00  0.00     0.018 A 
ATOM     13  C   UNL     1       0.162  -6.920  -2.159  0.00  0.00     0.015 A 
ATOM     14  C   UNL     1      -0.190  -7.838  -3.149  0.00  0.00     0.046 A 
ATOM     15  C   UNL     1      -1.352  -8.597  -3.016  0.00  0.00     0.117 A 
ATOM     16  C   UNL     1      -2.165  -8.437  -1.894  0.00  0.00     0.046 A 
ATOM     17  C   UNL     1      -1.814  -7.520  -0.904  0.00  0.00     0.015 A 
BRANCH  15  18
ATOM     18  O   UNL     1      -1.695  -9.492  -3.983  0.00  0.00    -0.507 OA
ATOM     19  H   UNL     1      -2.648  -9.411  -4.163  0.00  0.00     0.292 HD
ENDBRANCH  15  18
ENDBRANCH   2  12
BRANCH   6  20
ATOM     20  O   UNL     1       1.044  -2.933   3.989  0.00  0.00    -0.506 OA
ATOM     21  H   UNL     1       0.260  -3.033   4.551  0.00  0.00     0.292 HD
ENDBRANCH   6  20
BRANCH   8  22
ATOM     22  O   UNL     1       0.198   0.169   0.493  0.00  0.00    -0.507 OA
ATOM     23  H   UNL     1      -0.033   0.175  -0.452  0.00  0.00     0.292 HD
ENDBRANCH   8  22
TORSDOF 4
ENDMDL
MODEL 3
REMARK VINA RESULT:      -5.8      2.407      3.055
REMARK  4 active torsions:
REMARK  status: ('A' for Active; 'I' for Inactive)
REMARK    1  A    between atoms: C_2  and  C_12 
REMARK    2  A    between atoms: C_6  and  O_22 
REMARK    3  A    between atoms: C_8  and  O_20 
REMARK    4  A    between atoms: C_15  and  O_18 
ROOT
ATOM      1  O   UNL     1       0.102  -6.043   0.869  0.00  0.00    -0.454 OA
ATOM      2  C   UNL     1      -0.861  -5.733  -0.080  0.00  0.00     0.139 A 
ATOM      3  C   UNL     1      -1.555  -4.584  -0.105  0.00  0.00     0.098 A 
ATOM      4  C   UNL     1      -1.313  -3.568   0.940  0.00  0.00     0.197 A 
ATOM      5  C   UNL     1      -0.298  -3.905   1.950  0.00  0.00     0.105 A 
ATOM      6  C   UNL     1       0.006  -3.014   2.982  0.00  0.00     0.135 A 
ATOM      7  C   UNL     1       0.974  -3.359   3.926  0.00  0.00     0.091 A 
ATOM      8  C   UNL     1       1.634  -4.587   3.837  0.00  0.00     0.124 A 
ATOM      9  C   UNL     1       1.327  -5.473   2.805  0.00  0.00     0.092 A 
ATOM     10  O   UNL     1      -1.926  -2.511   0.956  0.00  0.00    -0.287 OA
ATOM     11  C   UNL     1       0.359  -5.130   1.861  0.00  0.00     0.146 A 
ENDROOT
BRANCH   2  12
ATOM     12  C   UNL     1      -1.054  -6.780  -1.102  0.00  0.00     0.018 A 
ATOM     13  C   UNL     1      -0.198  -6.853  -2.203  0.00  0.00     0.015 A 
ATOM     14  C   UNL     1      -0.381  -7.842  -3.169  0.00  0.00     0.046 A 
ATOM     15  C   UNL     1      -1.422  -8.762  -3.038  0.00  0.00     0.117 A 
ATOM     16  C   UNL     1      -2.279  -8.692  -1.940  0.00  0.00     0.046 A 
ATOM     17  C   UNL     1      -2.096  -7.703  -0.973  0.00  0.00     0.015 A 
BRANCH  15  18
ATOM     18  O   UNL     1      -1.600  -9.726  -3.981  0.00  0.00    -0.507 OA
ATOM     19  H   UNL     1      -0.758 -10.193  -4.117  0.00  0.00     0.292 HD
ENDBRANCH  15  18
ENDBRANCH   2  12
BRANCH   6  20
ATOM     20  O   UNL     1      -0.608  -1.805   3.113  0.00  0.00    -0.506 OA
ATOM     21  H   UNL     1      -1.572  -1.912   3.121  0.00  0.00     0.292 HD
ENDBRANCH   6  20
BRANCH   8  22
ATOM     22  O   UNL     1       2.578  -4.918   4.761  0.00  0.00    -0.507 OA
ATOM     23  H   UNL     1       3.203  -5.548   4.361  0.00  0.00     0.292 HD
ENDBRANCH   8  22
TORSDOF 4
ENDMDL
MODEL 4
REMARK VINA RESULT:      -5.7      1.391      3.180
REMARK  4 active torsions:
REMARK  status: ('A' for Active; 'I' for Inactive)
REMARK    1  A    between atoms: C_2  and  C_12 
REMARK    2  A    between atoms: C_6  and  O_22 
REMARK    3  A    between atoms: C_8  and  O_20 
REMARK    4  A    between atoms: C_15  and  O_18 
ROOT
ATOM      1  O   UNL     1      -1.954  -4.257   0.294  0.00  0.00    -0.454 OA
ATOM      2  C   UNL     1      -0.987  -4.384  -0.692  0.00  0.00     0.139 A 
ATOM      3  C   UNL     1      -0.065  -3.449  -0.970  0.00  0.00     0.098 A 
ATOM      4  C   UNL     1      -0.061  -2.184  -0.206  0.00  0.00     0.197 A 
ATOM      5  C   UNL     1      -1.096  -2.050   0.831  0.00  0.00     0.105 A 
ATOM      6  C   UNL     1      -1.181  -0.893   1.609  0.00  0.00     0.135 A 
ATOM      7  C   UNL     1      -2.171  -0.793   2.587  0.00  0.00     0.091 A 
ATOM      8  C   UNL     1      -3.070  -1.843   2.785  0.00  0.00     0.124 A 
ATOM      9  C   UNL     1      -2.980  -2.997   2.006  0.00  0.00     0.092 A 
ATOM     10  O   UNL     1       0.758  -1.305  -0.431  0.00  0.00    -0.287 OA
ATOM     11  C   UNL     1      -1.992  -3.098   1.027  0.00  0.00     0.146 A 
ENDROOT
BRANCH   2  12
ATOM     12  C   UNL     1      -1.033  -5.670  -1.415  0.00  0.00     0.018 A 
ATOM     13  C   UNL     1      -0.223  -6.733  -1.010  0.00  0.00     0.015 A 
ATOM     14  C   UNL     1      -0.266  -7.947  -1.695  0.00  0.00     0.046 A 
ATOM     15  C   UNL     1      -1.120  -8.103  -2.787  0.00  0.00     0.117 A 
ATOM     16  C   UNL     1      -1.929  -7.043  -3.195  0.00  0.00     0.046 A 
ATOM     17  C   UNL     1      -1.887  -5.828  -2.510  0.00  0.00     0.015 A 
BRANCH  15  18
ATOM     18  O   UNL     1      -1.161  -9.287  -3.455  0.00  0.00    -0.507 OA
ATOM     19  H   UNL     1      -0.390  -9.342  -4.046  0.00  0.00     0.292 HD
ENDBRANCH  15  18
ENDBRANCH   2  12
BRANCH   6  20
ATOM     20  O   UNL     1      -0.329   0.159   1.456  0.00  0.00    -0.506 OA
ATOM     21  H   UNL     1       0.005   0.454   2.317  0.00  0.00     0.292 HD
ENDBRANCH   6  20
BRANCH   8  22
ATOM     22  O   UNL     1      -4.034  -1.741   3.741  0.00  0.00    -0.507 OA
ATOM     23  H   UNL     1      -3.879  -2.421   4.420  0.00  0.00     0.292 HD
ENDBRANCH   8  22
TORSDOF 4
ENDMDL
MODEL 5
REMARK VINA RESULT:      -5.4      2.687      6.906
REMARK  4 active torsions:
REMARK  status: ('A' for Active; 'I' for Inactive)
REMARK    1  A    between atoms: C_2  and  C_12 
REMARK    2  A    between atoms: C_6  and  O_22 
REMARK    3  A    between atoms: C_8  and  O_20 
REMARK    4  A    between atoms: C_15  and  O_18 
ROOT
ATOM      1  O   UNL     1      -1.332  -2.535   0.652  0.00  0.00    -0.454 OA
ATOM      2  C   UNL     1      -1.373  -1.994   1.928  0.00  0.00     0.139 A 
ATOM      3  C   UNL     1      -0.970  -2.638   3.035  0.00  0.00     0.098 A 
ATOM      4  C   UNL     1      -0.459  -4.019   2.925  0.00  0.00     0.197 A 
ATOM      5  C   UNL     1      -0.427  -4.594   1.571  0.00  0.00     0.105 A 
ATOM      6  C   UNL     1       0.037  -5.893   1.357  0.00  0.00     0.135 A 
ATOM      7  C   UNL     1       0.058  -6.412   0.062  0.00  0.00     0.091 A 
ATOM      8  C   UNL     1      -0.382  -5.635  -1.012  0.00  0.00     0.124 A 
ATOM      9  C   UNL     1      -0.845  -4.337  -0.794  0.00  0.00     0.092 A 
ATOM     10  O   UNL     1      -0.086  -4.642   3.909  0.00  0.00    -0.287 OA
ATOM     11  C   UNL     1      -0.867  -3.818   0.501  0.00  0.00     0.146 A 
ENDROOT
BRANCH   2  12
ATOM     12  C   UNL     1      -1.884  -0.610   1.976  0.00  0.00     0.018 A 
ATOM     13  C   UNL     1      -3.030  -0.310   2.714  0.00  0.00     0.015 A 
ATOM     14  C   UNL     1      -3.513   0.998   2.758  0.00  0.00     0.046 A 
ATOM     15  C   UNL     1      -2.850   2.010   2.065  0.00  0.00     0.117 A 
ATOM     16  C   UNL     1      -1.705   1.714   1.326  0.00  0.00     0.046 A 
ATOM     17  C   UNL     1      -1.222   0.407   1.281  0.00  0.00     0.015 A 
BRANCH  15  18
ATOM     18  O   UNL     1      -3.322   3.286   2.107  0.00  0.00    -0.507 OA
ATOM     19  H   UNL     1      -3.032   3.756   1.307  0.00  0.00     0.292 HD
ENDBRANCH  15  18
ENDBRANCH   2  12
BRANCH   6  20
ATOM     20  O   UNL     1       0.478  -6.691   2.369  0.00  0.00    -0.506 OA
ATOM     21  H   UNL     1      -0.250  -7.226   2.722  0.00  0.00     0.292 HD
ENDBRANCH   6  20
BRANCH   8  22
ATOM     22  O   UNL     1      -0.359  -6.146  -2.274  0.00  0.00    -0.507 OA
ATOM     23  H   UNL     1      -0.708  -5.479  -2.891  0.00  0.00     0.292 HD
ENDBRANCH   8  22
TORSDOF 4
ENDMDL
MODEL 6
REMARK VINA RESULT:      -5.4      3.704      6.706
REMARK  4 active torsions:
REMARK  status: ('A' for Active; 'I' for Inactive)
REMARK    1  A    between atoms: C_2  and  C_12 
REMARK    2  A    between atoms: C_6  and  O_22 
REMARK    3  A    between atoms: C_8  and  O_20 
REMARK    4  A    between atoms: C_15  and  O_18 
ROOT
ATOM      1  O   UNL     1       0.682  -6.553   0.985  0.00  0.00    -0.454 OA
ATOM      2  C   UNL     1       0.698  -5.394   1.746  0.00  0.00     0.139 A 
ATOM      3  C   UNL     1       0.082  -4.252   1.398  0.00  0.00     0.098 A 
ATOM      4  C   UNL     1      -0.656  -4.188   0.120  0.00  0.00     0.197 A 
ATOM      5  C   UNL     1      -0.661  -5.417  -0.690  0.00  0.00     0.105 A 
ATOM      6  C   UNL     1      -1.328  -5.461  -1.916  0.00  0.00     0.135 A 
ATOM      7  C   UNL     1      -1.317  -6.640  -2.662  0.00  0.00     0.091 A 
ATOM      8  C   UNL     1      -0.645  -7.767  -2.185  0.00  0.00     0.124 A 
ATOM      9  C   UNL     1       0.021  -7.717  -0.959  0.00  0.00     0.092 A 
ATOM     10  O   UNL     1      -1.226  -3.167  -0.237  0.00  0.00    -0.287 OA
ATOM     11  C   UNL     1       0.012  -6.539  -0.212  0.00  0.00     0.146 A 
ENDROOT
BRANCH   2  12
ATOM     12  C   UNL     1       1.442  -5.520   3.015  0.00  0.00     0.018 A 
ATOM     13  C   UNL     1       2.697  -6.130   3.035  0.00  0.00     0.015 A 
ATOM     14  C   UNL     1       3.399  -6.250   4.234  0.00  0.00     0.046 A 
ATOM     15  C   UNL     1       2.848  -5.759   5.418  0.00  0.00     0.117 A 
ATOM     16  C   UNL     1       1.594  -5.149   5.402  0.00  0.00     0.046 A 
ATOM     17  C   UNL     1       0.891  -5.029   4.203  0.00  0.00     0.015 A 
BRANCH  15  18
ATOM     18  O   UNL     1       3.533  -5.876   6.587  0.00  0.00    -0.507 OA
ATOM     19  H   UNL     1       4.459  -5.616   6.437  0.00  0.00     0.292 HD
ENDBRANCH  15  18
ENDBRANCH   2  12
BRANCH   6  20
ATOM     20  O   UNL     1      -2.000  -4.391  -2.426  0.00  0.00    -0.506 OA
ATOM     21  H   UNL     1      -2.954  -4.493  -2.290  0.00  0.00     0.292 HD
ENDBRANCH   6  20
BRANCH   8  22
ATOM     22  O   UNL     1      -0.638  -8.915  -2.916  0.00  0.00    -0.507 OA
ATOM     23  H   UNL     1      -0.658  -8.687  -3.862  0.00  0.00     0.292 HD
ENDBRANCH   8  22
TORSDOF 4
ENDMDL
MODEL 7
REMARK VINA RESULT:      -5.2      3.745      4.284
REMARK  4 active torsions:
REMARK  status: ('A' for Active; 'I' for Inactive)
REMARK    1  A    between atoms: C_2  and  C_12 
REMARK    2  A    between atoms: C_6  and  O_22 
REMARK    3  A    between atoms: C_8  and  O_20 
REMARK    4  A    between atoms: C_15  and  O_18 
ROOT
ATOM      1  O   UNL     1       1.222  -6.279   1.325  0.00  0.00    -0.454 OA
ATOM      2  C   UNL     1       0.047  -5.682   0.893  0.00  0.00     0.139 A 
ATOM      3  C   UNL     1      -0.608  -4.726   1.571  0.00  0.00     0.098 A 
ATOM      4  C   UNL     1      -0.079  -4.267   2.872  0.00  0.00     0.197 A 
ATOM      5  C   UNL     1       1.162  -4.910   3.331  0.00  0.00     0.105 A 
ATOM      6  C   UNL     1       1.746  -4.550   4.547  0.00  0.00     0.135 A 
ATOM      7  C   UNL     1       2.923  -5.175   4.958  0.00  0.00     0.091 A 
ATOM      8  C   UNL     1       3.515  -6.154   4.155  0.00  0.00     0.124 A 
ATOM      9  C   UNL     1       2.928  -6.510   2.940  0.00  0.00     0.092 A 
ATOM     10  O   UNL     1      -0.647  -3.402   3.522  0.00  0.00    -0.287 OA
ATOM     11  C   UNL     1       1.750  -5.887   2.529  0.00  0.00     0.146 A 
ENDROOT
BRANCH   2  12
ATOM     12  C   UNL     1      -0.429  -6.173  -0.415  0.00  0.00     0.018 A 
ATOM     13  C   UNL     1      -0.030  -7.428  -0.881  0.00  0.00     0.015 A 
ATOM     14  C   UNL     1      -0.480  -7.891  -2.118  0.00  0.00     0.046 A 
ATOM     15  C   UNL     1      -1.331  -7.101  -2.892  0.00  0.00     0.117 A 
ATOM     16  C   UNL     1      -1.730  -5.847  -2.429  0.00  0.00     0.046 A 
ATOM     17  C   UNL     1      -1.281  -5.384  -1.192  0.00  0.00     0.015 A 
BRANCH  15  18
ATOM     18  O   UNL     1      -1.769  -7.553  -4.098  0.00  0.00    -0.507 OA
ATOM     19  H   UNL     1      -2.125  -6.803  -4.605  0.00  0.00     0.292 HD
ENDBRANCH  15  18
ENDBRANCH   2  12
BRANCH   6  20
ATOM     20  O   UNL     1       1.210  -3.602   5.366  0.00  0.00    -0.506 OA
ATOM     21  H   UNL     1       0.593  -4.006   5.996  0.00  0.00     0.292 HD
ENDBRANCH   6  20
BRANCH   8  22
ATOM     22  O   UNL     1       4.665  -6.760   4.559  0.00  0.00    -0.507 OA
ATOM     23  H   UNL     1       4.481  -7.699   4.736  0.00  0.00     0.292 HD
ENDBRANCH   8  22
TORSDOF 4
ENDMDL
MODEL 8
REMARK VINA RESULT:      -5.1      3.662      6.786
REMARK  4 active torsions:
REMARK  status: ('A' for Active; 'I' for Inactive)
REMARK    1  A    between atoms: C_2  and  C_12 
REMARK    2  A    between atoms: C_6  and  O_22 
REMARK    3  A    between atoms: C_8  and  O_20 
REMARK    4  A    between atoms: C_15  and  O_18 
ROOT
ATOM      1  O   UNL     1       0.434  -6.114   1.710  0.00  0.00    -0.454 OA
ATOM      2  C   UNL     1       0.350  -4.925   2.418  0.00  0.00     0.139 A 
ATOM      3  C   UNL     1      -0.210  -3.801   1.943  0.00  0.00     0.098 A 
ATOM      4  C   UNL     1      -0.770  -3.791   0.575  0.00  0.00     0.197 A 
ATOM      5  C   UNL     1      -0.669  -5.053  -0.175  0.00  0.00     0.105 A 
ATOM      6  C   UNL     1      -1.166  -5.150  -1.477  0.00  0.00     0.135 A 
ATOM      7  C   UNL     1      -1.058  -6.359  -2.166  0.00  0.00     0.091 A 
ATOM      8  C   UNL     1      -0.458  -7.463  -1.556  0.00  0.00     0.124 A 
ATOM      9  C   UNL     1       0.036  -7.361  -0.255  0.00  0.00     0.092 A 
ATOM     10  O   UNL     1      -1.285  -2.788   0.104  0.00  0.00    -0.287 OA
ATOM     11  C   UNL     1      -0.070  -6.153   0.434  0.00  0.00     0.146 A 
ENDROOT
BRANCH   2  12
ATOM     12  C   UNL     1       0.916  -4.995   3.779  0.00  0.00     0.018 A 
ATOM     13  C   UNL     1       0.251  -4.392   4.849  0.00  0.00     0.015 A 
ATOM     14  C   UNL     1       0.787  -4.459   6.135  0.00  0.00     0.046 A 
ATOM     15  C   UNL     1       1.990  -5.129   6.355  0.00  0.00     0.117 A 
ATOM     16  C   UNL     1       2.658  -5.732   5.289  0.00  0.00     0.046 A 
ATOM     17  C   UNL     1       2.122  -5.666   4.003  0.00  0.00     0.015 A 
BRANCH  15  18
ATOM     18  O   UNL     1       2.513  -5.193   7.610  0.00  0.00    -0.507 OA
ATOM     19  H   UNL     1       3.450  -5.447   7.548  0.00  0.00     0.292 HD
ENDBRANCH  15  18
ENDBRANCH   2  12
BRANCH   6  20
ATOM     20  O   UNL     1      -1.760  -4.105  -2.117  0.00  0.00    -0.506 OA
ATOM     21  H   UNL     1      -2.698  -4.048  -1.877  0.00  0.00     0.292 HD
ENDBRANCH   6  20
BRANCH   8  22
ATOM     22  O   UNL     1      -0.356  -8.640  -2.231  0.00  0.00    -0.507 OA
ATOM     23  H   UNL     1       0.189  -8.502  -3.026  0.00  0.00     0.292 HD
ENDBRANCH   8  22
TORSDOF 4
ENDMDL
MODEL 9
REMARK VINA RESULT:      -5.0      4.705      6.437
REMARK  4 active torsions:
REMARK  status: ('A' for Active; 'I' for Inactive)
REMARK    1  A    between atoms: C_2  and  C_12 
REMARK    2  A    between atoms: C_6  and  O_22 
REMARK    3  A    between atoms: C_8  and  O_20 
REMARK    4  A    between atoms: C_15  and  O_18 
ROOT
ATOM      1  O   UNL     1       1.226  -6.378   1.620  0.00  0.00    -0.454 OA
ATOM      2  C   UNL     1       1.379  -5.743   2.843  0.00  0.00     0.139 A 
ATOM      3  C   UNL     1       0.658  -4.682   3.238  0.00  0.00     0.098 A 
ATOM      4  C   UNL     1      -0.362  -4.119   2.330  0.00  0.00     0.197 A 
ATOM      5  C   UNL     1      -0.514  -4.790   1.029  0.00  0.00     0.105 A 
ATOM      6  C   UNL     1      -1.449  -4.337   0.097  0.00  0.00     0.135 A 
ATOM      7  C   UNL     1      -1.573  -4.992  -1.129  0.00  0.00     0.091 A 
ATOM      8  C   UNL     1      -0.766  -6.095  -1.418  0.00  0.00     0.124 A 
ATOM      9  C   UNL     1       0.167  -6.545  -0.483  0.00  0.00     0.092 A 
ATOM     10  O   UNL     1      -1.037  -3.152   2.650  0.00  0.00    -0.287 OA
ATOM     11  C   UNL     1       0.292  -5.889   0.742  0.00  0.00     0.146 A 
ENDROOT
BRANCH   2  12
ATOM     12  C   UNL     1       2.405  -6.353   3.711  0.00  0.00     0.018 A 
ATOM     13  C   UNL     1       2.113  -6.643   5.046  0.00  0.00     0.015 A 
ATOM     14  C   UNL     1       3.084  -7.218   5.866  0.00  0.00     0.046 A 
ATOM     15  C   UNL     1       4.349  -7.506   5.355  0.00  0.00     0.117 A 
ATOM     16  C   UNL     1       4.644  -7.217   4.022  0.00  0.00     0.046 A 
ATOM     17  C   UNL     1       3.674  -6.642   3.201  0.00  0.00     0.015 A 
BRANCH  15  18
ATOM     18  O   UNL     1       5.295  -8.066   6.155  0.00  0.00    -0.507 OA
ATOM     19  H   UNL     1       6.172  -7.907   5.765  0.00  0.00     0.292 HD
ENDBRANCH  15  18
ENDBRANCH   2  12
BRANCH   6  20
ATOM     20  O   UNL     1      -2.260  -3.267   0.331  0.00  0.00    -0.506 OA
ATOM     21  H   UNL     1      -1.805  -2.609   0.879  0.00  0.00     0.292 HD
ENDBRANCH   6  20
BRANCH   8  22
ATOM     22  O   UNL     1      -0.891  -6.732  -2.615  0.00  0.00    -0.507 OA
ATOM     23  H   UNL     1      -1.829  -6.940  -2.766  0.00  0.00     0.292 HD
ENDBRANCH   8  22
TORSDOF 4
ENDMDL
MODEL 10
REMARK VINA RESULT:      -5.0      3.315      7.463
REMARK  4 active torsions:
REMARK  status: ('A' for Active; 'I' for Inactive)
REMARK    1  A    between atoms: C_2  and  C_12 
REMARK    2  A    between atoms: C_6  and  O_22 
REMARK    3  A    between atoms: C_8  and  O_20 
REMARK    4  A    between atoms: C_15  and  O_18 
ROOT
ATOM      1  O   UNL     1      -1.217  -3.022   2.309  0.00  0.00    -0.454 OA
ATOM      2  C   UNL     1      -0.693  -3.233   3.576  0.00  0.00     0.139 A 
ATOM      3  C   UNL     1       0.095  -4.269   3.904  0.00  0.00     0.098 A 
ATOM      4  C   UNL     1       0.434  -5.277   2.878  0.00  0.00     0.197 A 
ATOM      5  C   UNL     1      -0.134  -5.055   1.539  0.00  0.00     0.105 A 
ATOM      6  C   UNL     1       0.124  -5.949   0.498  0.00  0.00     0.135 A 
ATOM      7  C   UNL     1      -0.426  -5.714  -0.763  0.00  0.00     0.091 A 
ATOM      8  C   UNL     1      -1.226  -4.590  -0.980  0.00  0.00     0.124 A 
ATOM      9  C   UNL     1      -1.480  -3.699   0.063  0.00  0.00     0.092 A 
ATOM     10  O   UNL     1       1.145  -6.237   3.137  0.00  0.00    -0.287 OA
ATOM     11  C   UNL     1      -0.932  -3.934   1.324  0.00  0.00     0.146 A 
ENDROOT
BRANCH   2  12
ATOM     12  C   UNL     1      -1.056  -2.191   4.556  0.00  0.00     0.018 A 
ATOM     13  C   UNL     1      -0.712  -2.342   5.901  0.00  0.00     0.015 A 
ATOM     14  C   UNL     1      -1.057  -1.358   6.827  0.00  0.00     0.046 A 
ATOM     15  C   UNL     1      -1.747  -0.219   6.411  0.00  0.00     0.117 A 
ATOM     16  C   UNL     1      -2.093  -0.065   5.069  0.00  0.00     0.046 A 
ATOM     17  C   UNL     1      -1.748  -1.049   4.142  0.00  0.00     0.015 A 
BRANCH  15  18
ATOM     18  O   UNL     1      -2.084   0.740   7.315  0.00  0.00    -0.507 OA
ATOM     19  H   UNL     1      -2.913   0.482   7.755  0.00  0.00     0.292 HD
ENDBRANCH  15  18
ENDBRANCH   2  12
BRANCH   6  20
ATOM     20  O   UNL     1       0.899  -7.058   0.657  0.00  0.00    -0.506 OA
ATOM     21  H   UNL     1       1.124  -7.184   1.592  0.00  0.00     0.292 HD
ENDBRANCH   6  20
BRANCH   8  22
ATOM     22  O   UNL     1      -1.760  -4.364  -2.213  0.00  0.00    -0.507 OA
ATOM     23  H   UNL     1      -2.039  -5.214  -2.596  0.00  0.00     0.292 HD
ENDBRANCH   8  22
TORSDOF 4
ENDMDL
