REMARK VINA RESULT:      -7.6     12.015     14.705
REMARK  11 active torsions:
REMARK  status: ('A' for Active; 'I' for Inactive)
REMARK    1  A    between atoms: O_1  and  C_9 
REMARK    2  A    between atoms: O_2  and  C_19 
REMARK    3  A    between atoms: O_3  and  C_26 
REMARK    4  A    between atoms: O_4  and  C_27 
REMARK    5  A    between atoms: O_6  and  C_28 
REMARK    6  A    between atoms: O_7  and  C_32 
REMARK    7  A    between atoms: C_10  and  C_19 
REMARK    8  A    between atoms: C_19  and  C_27 
REMARK    9  A    between atoms: C_27  and  C_30 
REMARK   10  A    between atoms: C_30  and  C_31 
REMARK   11  A    between atoms: C_31  and  C_32 
ROOT
HETATM    1  O   UNK     0     174.332 178.062 171.250  0.00  0.00    -0.384 OA
HETATM    2  H   UNK     0     173.401 177.828 171.086  0.00  0.00     0.211 HD
ENDROOT
BRANCH   1   3
HETATM    3  C   UNK     0     175.095 177.682 170.083  0.00  0.00     0.089 C 
HETATM    4  C   UNK     0     176.609 177.804 170.395  0.00  0.00    -0.002 C 
HETATM    5  C   UNK     0     176.734 179.332 170.626  0.00  0.00     0.034 C 
HETATM    6  C   UNK     0     176.922 176.958 171.643  0.00  0.00     0.014 C 
HETATM    7  C   UNK     0     177.509 177.348 169.215  0.00  0.00     0.019 C 
HETATM    8  C   UNK     0     175.818 179.944 169.541  0.00  0.00     0.012 C 
HETATM    9  C   UNK     0     174.881 178.812 169.064  0.00  0.00     0.044 C 
HETATM   10  C   UNK     0     176.553 175.483 171.415  0.00  0.00     0.011 C 
HETATM   11  C   UNK     0     175.114 175.237 170.863  0.00  0.00     0.027 C 
HETATM   12  C   UNK     0     174.886 173.736 170.428  0.00  0.00    -0.023 C 
HETATM   13  C   UNK     0     174.699 176.251 169.786  0.00  0.00    -0.037 C 
HETATM   14  C   UNK     0     173.516 173.593 169.707  0.00  0.00     0.071 C 
HETATM   15  C   UNK     0     174.901 172.777 171.652  0.00  0.00     0.044 C 
HETATM   16  C   UNK     0     175.995 173.249 169.456  0.00  0.00     0.016 C 
HETATM   17  C   UNK     0     172.308 173.762 170.644  0.00  0.00     0.047 C 
HETATM   18  C   UNK     0     173.401 174.570 168.552  0.00  0.00     0.154 C 
HETATM   19  C   UNK     0     172.372 172.799 171.829  0.00  0.00     0.147 C 
HETATM   20  C   UNK     0     173.695 172.946 172.581  0.00  0.00     0.147 C 
HETATM   21  O   UNK     0     172.796 174.281 167.520  0.00  0.00    -0.293 OA
HETATM   22  C   UNK     0     173.961 175.930 168.712  0.00  0.00     0.057 C 
BRANCH   5  23
HETATM   23  C   UNK     0     178.143 179.911 170.604  0.00  0.00     0.084 C 
HETATM   24  C   UNK     0     178.873 179.459 169.328  0.00  0.00     0.049 C 
BRANCH  23  25
HETATM   25  O   UNK     0     178.045 181.341 170.557  0.00  0.00    -0.387 OA
HETATM   26  H   UNK     0     178.057 181.687 171.465  0.00  0.00     0.210 HD
ENDBRANCH  23  25
BRANCH  23  27
HETATM   27  C   UNK     0     178.957 179.523 171.868  0.00  0.00     0.152 C 
BRANCH  27  28
HETATM   28  O   UNK     0     179.339 180.707 172.575  0.00  0.00    -0.393 OA
HETATM   29  H   UNK     0     180.230 180.555 172.938  0.00  0.00     0.210 HD
ENDBRANCH  27  28
BRANCH  27  30
HETATM   30  C   UNK     0     180.228 178.703 171.575  0.00  0.00     0.037 C 
BRANCH  30  31
HETATM   31  C   UNK     0     180.541 177.700 172.701  0.00  0.00     0.040 C 
BRANCH  31  32
HETATM   32  C   UNK     0     180.849 176.268 172.216  0.00  0.00     0.051 C 
HETATM   33  C   UNK     0     180.016 175.264 173.019  0.00  0.00     0.045 C 
HETATM   34  C   UNK     0     180.585 176.086 170.720  0.00  0.00     0.045 C 
BRANCH  32  35
HETATM   35  O   UNK     0     182.229 175.995 172.469  0.00  0.00    -0.391 OA
HETATM   36  H   UNK     0     182.520 176.574 173.194  0.00  0.00     0.210 HD
ENDBRANCH  32  35
ENDBRANCH  31  32
ENDBRANCH  30  31
ENDBRANCH  27  30
ENDBRANCH  23  27
ENDBRANCH   5  23
BRANCH  19  37
HETATM   37  O   UNK     0     172.248 171.459 171.350  0.00  0.00    -0.393 OA
HETATM   38  H   UNK     0     172.377 171.478 170.387  0.00  0.00     0.210 HD
ENDBRANCH  19  37
BRANCH  20  39
HETATM   39  O   UNK     0     173.749 171.969 173.618  0.00  0.00    -0.393 OA
HETATM   40  H   UNK     0     172.885 171.968 174.064  0.00  0.00     0.210 HD
ENDBRANCH  20  39
ENDBRANCH   1   3
TORSDOF 11
