REMARK VINA RESULT:      -7.7      0.000      0.000
REMARK  11 active torsions:
REMARK  status: ('A' for Active; 'I' for Inactive)
REMARK    1  A    between atoms: O_1  and  C_9 
REMARK    2  A    between atoms: O_2  and  C_19 
REMARK    3  A    between atoms: O_3  and  C_26 
REMARK    4  A    between atoms: O_4  and  C_27 
REMARK    5  A    between atoms: O_6  and  C_28 
REMARK    6  A    between atoms: O_7  and  C_32 
REMARK    7  A    between atoms: C_10  and  C_19 
REMARK    8  A    between atoms: C_19  and  C_27 
REMARK    9  A    between atoms: C_27  and  C_30 
REMARK   10  A    between atoms: C_30  and  C_31 
REMARK   11  A    between atoms: C_31  and  C_32 
ROOT
HETATM    1  O   UNK     0     187.085 188.078 170.749  0.00  0.00    -0.384 OA
HETATM    2  H   UNK     0     186.743 188.968 170.555  0.00  0.00     0.211 HD
ENDROOT
BRANCH   1   3
HETATM    3  C   UNK     0     186.260 187.123 170.044  0.00  0.00     0.089 C 
HETATM    4  C   UNK     0     187.161 186.199 169.184  0.00  0.00    -0.002 C 
HETATM    5  C   UNK     0     187.749 187.223 168.179  0.00  0.00     0.034 C 
HETATM    6  C   UNK     0     188.213 185.550 170.100  0.00  0.00     0.014 C 
HETATM    7  C   UNK     0     186.361 185.094 168.442  0.00  0.00     0.019 C 
HETATM    8  C   UNK     0     186.554 188.147 167.853  0.00  0.00     0.012 C 
HETATM    9  C   UNK     0     185.513 187.935 168.974  0.00  0.00     0.044 C 
HETATM   10  C   UNK     0     187.543 184.734 171.217  0.00  0.00     0.011 C 
HETATM   11  C   UNK     0     186.431 185.486 172.012  0.00  0.00     0.027 C 
HETATM   12  C   UNK     0     185.624 184.526 172.973  0.00  0.00    -0.023 C 
HETATM   13  C   UNK     0     185.526 186.347 171.117  0.00  0.00    -0.037 C 
HETATM   14  C   UNK     0     184.411 185.281 173.584  0.00  0.00     0.071 C 
HETATM   15  C   UNK     0     186.514 183.999 174.135  0.00  0.00     0.044 C 
HETATM   16  C   UNK     0     185.085 183.282 172.216  0.00  0.00     0.016 C 
HETATM   17  C   UNK     0     184.809 186.364 174.601  0.00  0.00     0.047 C 
HETATM   18  C   UNK     0     183.547 185.897 172.501  0.00  0.00     0.154 C 
HETATM   19  C   UNK     0     185.683 185.797 175.719  0.00  0.00     0.147 C 
HETATM   20  C   UNK     0     186.907 185.081 175.147  0.00  0.00     0.147 C 
HETATM   21  O   UNK     0     182.324 185.977 172.616  0.00  0.00    -0.293 OA
HETATM   22  C   UNK     0     184.207 186.490 171.317  0.00  0.00     0.057 C 
BRANCH   5  23
HETATM   23  C   UNK     0     188.410 186.650 166.932  0.00  0.00     0.084 C 
HETATM   24  C   UNK     0     187.341 186.341 165.871  0.00  0.00     0.049 C 
BRANCH  23  25
HETATM   25  O   UNK     0     189.282 187.647 166.383  0.00  0.00    -0.387 OA
HETATM   26  H   UNK     0     189.839 187.237 165.700  0.00  0.00     0.210 HD
ENDBRANCH  23  25
BRANCH  23  27
HETATM   27  C   UNK     0     189.256 185.385 167.243  0.00  0.00     0.152 C 
BRANCH  27  28
HETATM   28  O   UNK     0     190.580 185.775 167.622  0.00  0.00    -0.393 OA
HETATM   29  H   UNK     0     191.025 186.107 166.823  0.00  0.00     0.210 HD
ENDBRANCH  27  28
BRANCH  27  30
HETATM   30  C   UNK     0     189.361 184.390 166.071  0.00  0.00     0.037 C 
BRANCH  30  31
HETATM   31  C   UNK     0     188.885 182.980 166.467  0.00  0.00     0.040 C 
BRANCH  31  32
HETATM   32  C   UNK     0     189.944 182.130 167.200  0.00  0.00     0.051 C 
HETATM   33  C   UNK     0     189.568 182.009 168.681  0.00  0.00     0.045 C 
HETATM   34  C   UNK     0     190.105 180.737 166.588  0.00  0.00     0.045 C 
BRANCH  32  35
HETATM   35  O   UNK     0     191.199 182.808 167.120  0.00  0.00    -0.391 OA
HETATM   36  H   UNK     0     191.903 182.143 167.196  0.00  0.00     0.210 HD
ENDBRANCH  32  35
ENDBRANCH  31  32
ENDBRANCH  30  31
ENDBRANCH  27  30
ENDBRANCH  23  27
ENDBRANCH   5  23
BRANCH  19  37
HETATM   37  O   UNK     0     184.914 184.872 176.490  0.00  0.00    -0.393 OA
HETATM   38  H   UNK     0     184.835 185.234 177.389  0.00  0.00     0.210 HD
ENDBRANCH  19  37
BRANCH  20  39
HETATM   39  O   UNK     0     187.641 184.491 176.217  0.00  0.00    -0.393 OA
HETATM   40  H   UNK     0     187.177 183.677 176.476  0.00  0.00     0.210 HD
ENDBRANCH  20  39
ENDBRANCH   1   3
TORSDOF 11
