# created with PyMOL 2.5.5
@<TRIPOS>MOLECULE
3035727
43 45 1                 
SMALL
USER_CHARGES
@<TRIPOS>ATOM
1	   O	1.480	-0.543	-0.015	O.3	1	UNK0	0.000	
2	   O	0.626	1.364	1.023	O.3	1	UNK0	0.000	
3	   O	5.345	0.605	0.765	O.3	1	UNK0	0.000	
4	   O	4.823	-1.423	-1.227	O.3	1	UNK0	0.000	
5	   O	3.168	2.590	0.813	O.3	1	UNK0	0.000	
6	   O	0.795	-2.656	-1.635	O.3	1	UNK0	0.000	
7	   O	-4.946	0.682	-1.085	O.2	1	UNK0	0.000	
8	   O	-1.100	-2.873	1.479	O.3	1	UNK0	0.000	
9	   O	-3.165	-3.614	0.834	O.co2	1	UNK0	0.000	
10	   N	-1.480	-0.474	0.661	N.pl3	1	UNK0	0.000	
11	   C	4.141	0.537	-0.000	C.3	1	UNK0	0.000	
12	   C	3.855	-0.934	-0.301	C.3	1	UNK0	0.000	
13	   C	2.998	1.173	0.791	C.3	1	UNK0	0.000	
14	   C	2.455	-1.105	-0.895	C.3	1	UNK0	0.000	
15	   C	1.643	0.863	0.156	C.3	1	UNK0	0.000	
16	   C	2.102	-2.575	-1.095	C.3	1	UNK0	0.000	
17	   C	-0.541	1.764	0.432	C.2	1	UNK0	0.000	
18	   C	-1.589	0.860	0.249	C.2	1	UNK0	0.000	
19	   C	-2.774	1.309	-0.363	C.2	1	UNK0	0.000	
20	   C	-0.666	3.088	0.016	C.2	1	UNK0	0.000	
21	   C	-2.905	2.636	-0.781	C.2	1	UNK0	0.000	
22	   C	-1.846	3.523	-0.589	C.2	1	UNK0	0.000	
23	   C	-3.893	0.347	-0.558	C.2	1	UNK0	0.000	
24	   C	-2.512	-1.356	0.479	C.2	1	UNK0	0.000	
25	   C	-3.686	-1.052	-0.089	C.2	1	UNK0	0.000	
26	   C	-2.328	-2.736	0.936	C.2	1	UNK0	0.000	
27	   H	4.330	1.098	-0.924	 H	1	UNK0	0.000	
28	   H	3.957	-1.521	0.620	 H	1	UNK0	0.000	
29	   H	3.023	0.834	1.833	 H	1	UNK0	0.000	
30	   H	2.376	-0.602	-1.869	 H	1	UNK0	0.000	
31	   H	1.565	1.359	-0.823	 H	1	UNK0	0.000	
32	   H	2.104	-3.121	-0.145	 H	1	UNK0	0.000	
33	   H	2.791	-3.068	-1.786	 H	1	UNK0	0.000	
34	   H	6.048	0.182	0.242	 H	1	UNK0	0.000	
35	   H	4.735	-0.913	-2.050	 H	1	UNK0	0.000	
36	   H	3.142	2.911	-0.104	 H	1	UNK0	0.000	
37	   H	0.192	-2.211	-1.015	 H	1	UNK0	0.000	
38	   H	0.152	3.789	0.160	 H	1	UNK0	0.000	
39	   H	-0.628	-0.795	1.100	 H	1	UNK0	0.000	
40	   H	-3.815	2.993	-1.254	 H	1	UNK0	0.000	
41	   H	-1.940	4.556	-0.912	 H	1	UNK0	0.000	
42	   H	-4.500	-1.753	-0.231	 H	1	UNK0	0.000	
43	   H	-0.937	-3.786	1.798	 H	1	UNK0	0.000	
@<TRIPOS>BOND
1 1 14 1
2 1 15 1
3 2 15 1
4 2 17 1
5 3 11 1
6 3 34 1
7 4 12 1
8 4 35 1
9 5 13 1
10 5 36 1
11 6 16 1
12 6 37 1
13 7 23 2
14 8 26 1
15 8 43 1
16 9 26 2
17 10 18 1
18 10 24 1
19 10 39 1
20 11 12 1
21 11 13 1
22 11 27 1
23 12 14 1
24 12 28 1
25 13 15 1
26 13 29 1
27 14 16 1
28 14 30 1
29 15 31 1
30 16 32 1
31 16 33 1
32 17 18 1
33 17 20 2
34 18 19 2
35 19 21 1
36 19 23 1
37 20 22 1
38 20 38 1
39 21 22 2
40 21 40 1
41 22 41 1
42 23 25 1
43 24 25 2
44 24 26 1
45 25 42 1
@<TRIPOS>SUBSTRUCTURE
1	UNK0	1	GROUP	1 ****	UNK
