MODEL 1
REMARK VINA RESULT:      -9.2      0.000      0.000
REMARK  11 active torsions:
REMARK  status: ('A' for Active; 'I' for Inactive)
REMARK    1  A    between atoms: O_2  and  C_16 
REMARK    2  A    between atoms: O_2  and  C_18 
REMARK    3  A    between atoms: O_3  and  C_12 
REMARK    4  A    between atoms: O_4  and  C_13 
REMARK    5  A    between atoms: O_5  and  C_14 
REMARK    6  A    between atoms: O_6  and  C_17 
REMARK    7  A    between atoms: O_8  and  C_23 
REMARK    8  A    between atoms: O_10  and  C_30 
REMARK    9  A    between atoms: O_11  and  C_32 
REMARK   10  A    between atoms: C_15  and  C_17 
REMARK   11  A    between atoms: C_25  and  C_27 
ROOT
HETATM    1  O   UNK     0       6.981  45.519  21.311  0.00  0.00    -0.348 OA
HETATM    2  C   UNK     0       7.364  45.084  18.498  0.00  0.00     0.183 C 
HETATM    3  C   UNK     0       8.430  45.732  19.381  0.00  0.00     0.180 C 
HETATM    4  C   UNK     0       5.974  45.217  19.123  0.00  0.00     0.205 C 
HETATM    5  C   UNK     0       8.300  45.256  20.829  0.00  0.00     0.179 C 
HETATM    6  C   UNK     0       5.982  44.799  20.593  0.00  0.00     0.298 C 
ENDROOT
BRANCH   5   7
HETATM    7  C   UNK     0       9.279  45.977  21.750  0.00  0.00     0.198 C 
BRANCH   7   8
HETATM    8  O   UNK     0       9.848  47.063  21.042  0.00  0.00    -0.398 OA
HETATM    9  H   UNK     0       9.382  47.137  20.191  0.00  0.00     0.209 HD
ENDBRANCH   7   8
ENDBRANCH   5   7
BRANCH   6  10
HETATM   10  O   UNK     0       4.695  45.085  21.139  0.00  0.00    -0.318 OA
BRANCH  10  11
HETATM   11  C   UNK     0       4.097  44.086  21.848  0.00  0.00     0.077 A 
HETATM   12  C   UNK     0       4.312  43.984  23.223  0.00  0.00     0.075 A 
HETATM   13  C   UNK     0       3.700  42.961  23.947  0.00  0.00     0.095 A 
HETATM   14  O   UNK     0       3.949  42.911  25.295  0.00  0.00    -0.309 OA
HETATM   15  C   UNK     0       2.876  42.043  23.296  0.00  0.00     0.081 A 
HETATM   16  C   UNK     0       3.348  41.909  26.041  0.00  0.00     0.090 A 
HETATM   17  C   UNK     0       2.542  40.966  25.529  0.00  0.00     0.094 A 
HETATM   18  C   UNK     0       2.244  40.974  24.083  0.00  0.00     0.190 A 
HETATM   19  O   UNK     0       1.513  40.134  23.576  0.00  0.00    -0.287 OA
HETATM   20  C   UNK     0       2.658  42.142  21.919  0.00  0.00     0.085 A 
HETATM   21  C   UNK     0       3.272  43.168  21.198  0.00  0.00     0.074 A 
BRANCH  16  22
HETATM   22  C   UNK     0       3.688  41.945  27.478  0.00  0.00     0.001 A 
HETATM   23  C   UNK     0       4.891  42.516  27.899  0.00  0.00     0.053 A 
HETATM   24  C   UNK     0       5.211  42.551  29.257  0.00  0.00     0.099 A 
HETATM   25  C   UNK     0       4.331  42.015  30.196  0.00  0.00     0.098 A 
HETATM   26  C   UNK     0       3.128  41.445  29.778  0.00  0.00     0.040 A 
HETATM   27  C   UNK     0       2.807  41.410  28.421  0.00  0.00     0.017 A 
BRANCH  24  28
HETATM   28  O   UNK     0       6.390  43.108  29.654  0.00  0.00    -0.358 OA
HETATM   29  H   UNK     0       6.272  43.466  30.551  0.00  0.00     0.217 HD
ENDBRANCH  24  28
BRANCH  25  30
HETATM   30  O   UNK     0       4.632  42.044  31.524  0.00  0.00    -0.358 OA
HETATM   31  H   UNK     0       5.233  42.790  31.696  0.00  0.00     0.217 HD
ENDBRANCH  25  30
ENDBRANCH  16  22
BRANCH  20  32
HETATM   32  O   UNK     0       1.863  41.271  21.239  0.00  0.00    -0.360 OA
HETATM   33  H   UNK     0       2.399  40.646  20.728  0.00  0.00     0.217 HD
ENDBRANCH  20  32
ENDBRANCH  10  11
ENDBRANCH   6  10
BRANCH   3  34
HETATM   34  O   UNK     0       9.723  45.388  18.886  0.00  0.00    -0.390 OA
HETATM   35  H   UNK     0       9.609  44.970  18.016  0.00  0.00     0.210 HD
ENDBRANCH   3  34
BRANCH   4  36
HETATM   36  O   UNK     0       5.058  44.375  18.423  0.00  0.00    -0.388 OA
HETATM   37  H   UNK     0       5.556  43.622  18.062  0.00  0.00     0.210 HD
ENDBRANCH   4  36
BRANCH   2  38
HETATM   38  O   UNK     0       7.380  45.740  17.230  0.00  0.00    -0.390 OA
HETATM   39  H   UNK     0       7.299  46.696  17.396  0.00  0.00     0.210 HD
ENDBRANCH   2  38
TORSDOF 11
ENDMDL
MODEL 2
REMARK VINA RESULT:      -9.0      1.955      8.288
REMARK  11 active torsions:
REMARK  status: ('A' for Active; 'I' for Inactive)
REMARK    1  A    between atoms: O_2  and  C_16 
REMARK    2  A    between atoms: O_2  and  C_18 
REMARK    3  A    between atoms: O_3  and  C_12 
REMARK    4  A    between atoms: O_4  and  C_13 
REMARK    5  A    between atoms: O_5  and  C_14 
REMARK    6  A    between atoms: O_6  and  C_17 
REMARK    7  A    between atoms: O_8  and  C_23 
REMARK    8  A    between atoms: O_10  and  C_30 
REMARK    9  A    between atoms: O_11  and  C_32 
REMARK   10  A    between atoms: C_15  and  C_17 
REMARK   11  A    between atoms: C_25  and  C_27 
ROOT
HETATM    1  O   UNK     0       5.156  41.523  27.306  0.00  0.00    -0.348 OA
HETATM    2  C   UNK     0       4.819  42.647  29.928  0.00  0.00     0.183 C 
HETATM    3  C   UNK     0       6.195  42.336  29.338  0.00  0.00     0.180 C 
HETATM    4  C   UNK     0       3.727  41.822  29.246  0.00  0.00     0.205 C 
HETATM    5  C   UNK     0       6.160  42.405  27.810  0.00  0.00     0.179 C 
HETATM    6  C   UNK     0       3.843  41.893  27.724  0.00  0.00     0.298 C 
ENDROOT
BRANCH   5   7
HETATM    7  C   UNK     0       7.492  41.985  27.196  0.00  0.00     0.198 C 
BRANCH   7   8
HETATM    8  O   UNK     0       8.308  43.134  27.060  0.00  0.00    -0.398 OA
HETATM    9  H   UNK     0       9.234  42.853  27.166  0.00  0.00     0.209 HD
ENDBRANCH   7   8
ENDBRANCH   5   7
BRANCH   6  10
HETATM   10  O   UNK     0       2.888  40.991  27.167  0.00  0.00    -0.318 OA
BRANCH  10  11
HETATM   11  C   UNK     0       2.727  41.032  25.814  0.00  0.00     0.077 A 
HETATM   12  C   UNK     0       3.294  42.072  25.076  0.00  0.00     0.075 A 
HETATM   13  C   UNK     0       3.128  42.112  23.692  0.00  0.00     0.095 A 
HETATM   14  O   UNK     0       3.708  43.158  23.021  0.00  0.00    -0.309 OA
HETATM   15  C   UNK     0       2.395  41.115  23.049  0.00  0.00     0.081 A 
HETATM   16  C   UNK     0       3.564  43.220  21.644  0.00  0.00     0.090 A 
HETATM   17  C   UNK     0       2.879  42.326  20.914  0.00  0.00     0.094 A 
HETATM   18  C   UNK     0       2.233  41.183  21.589  0.00  0.00     0.190 A 
HETATM   19  O   UNK     0       1.600  40.344  20.962  0.00  0.00    -0.287 OA
HETATM   20  C   UNK     0       1.824  40.072  23.784  0.00  0.00     0.085 A 
HETATM   21  C   UNK     0       1.994  40.035  25.169  0.00  0.00     0.074 A 
BRANCH  16  22
HETATM   22  C   UNK     0       4.223  44.388  21.024  0.00  0.00     0.001 A 
HETATM   23  C   UNK     0       4.845  44.263  19.779  0.00  0.00     0.053 A 
HETATM   24  C   UNK     0       5.466  45.367  19.194  0.00  0.00     0.099 A 
HETATM   25  C   UNK     0       5.468  46.597  19.850  0.00  0.00     0.098 A 
HETATM   26  C   UNK     0       4.846  46.724  21.093  0.00  0.00     0.040 A 
HETATM   27  C   UNK     0       4.225  45.622  21.679  0.00  0.00     0.017 A 
BRANCH  24  28
HETATM   28  O   UNK     0       6.072  45.230  17.980  0.00  0.00    -0.358 OA
HETATM   29  H   UNK     0       6.690  44.481  18.030  0.00  0.00     0.217 HD
ENDBRANCH  24  28
BRANCH  25  30
HETATM   30  O   UNK     0       6.070  47.681  19.288  0.00  0.00    -0.358 OA
HETATM   31  H   UNK     0       6.600  47.390  18.526  0.00  0.00     0.217 HD
ENDBRANCH  25  30
ENDBRANCH  16  22
BRANCH  20  32
HETATM   32  O   UNK     0       1.101  39.076  23.203  0.00  0.00    -0.360 OA
HETATM   33  H   UNK     0       1.670  38.517  22.653  0.00  0.00     0.217 HD
ENDBRANCH  20  32
ENDBRANCH  10  11
ENDBRANCH   6  10
BRANCH   3  34
HETATM   34  O   UNK     0       7.143  43.280  29.831  0.00  0.00    -0.390 OA
HETATM   35  H   UNK     0       7.119  43.250  30.803  0.00  0.00     0.210 HD
ENDBRANCH   3  34
BRANCH   4  36
HETATM   36  O   UNK     0       2.447  42.330  29.622  0.00  0.00    -0.388 OA
HETATM   37  H   UNK     0       2.505  42.644  30.540  0.00  0.00     0.210 HD
ENDBRANCH   4  36
BRANCH   2  38
HETATM   38  O   UNK     0       4.853  42.333  31.321  0.00  0.00    -0.390 OA
HETATM   39  H   UNK     0       5.158  43.129  31.790  0.00  0.00     0.210 HD
ENDBRANCH   2  38
TORSDOF 11
ENDMDL
MODEL 3
REMARK VINA RESULT:      -8.7      3.561      9.541
REMARK  11 active torsions:
REMARK  status: ('A' for Active; 'I' for Inactive)
REMARK    1  A    between atoms: O_2  and  C_16 
REMARK    2  A    between atoms: O_2  and  C_18 
REMARK    3  A    between atoms: O_3  and  C_12 
REMARK    4  A    between atoms: O_4  and  C_13 
REMARK    5  A    between atoms: O_5  and  C_14 
REMARK    6  A    between atoms: O_6  and  C_17 
REMARK    7  A    between atoms: O_8  and  C_23 
REMARK    8  A    between atoms: O_10  and  C_30 
REMARK    9  A    between atoms: O_11  and  C_32 
REMARK   10  A    between atoms: C_15  and  C_17 
REMARK   11  A    between atoms: C_25  and  C_27 
ROOT
HETATM    1  O   UNK     0       1.928  36.616  23.251  0.00  0.00    -0.348 OA
HETATM    2  C   UNK     0      -0.704  35.465  23.251  0.00  0.00     0.183 C 
HETATM    3  C   UNK     0       0.555  34.636  23.509  0.00  0.00     0.180 C 
HETATM    4  C   UNK     0      -0.373  36.748  22.488  0.00  0.00     0.205 C 
HETATM    5  C   UNK     0       1.664  35.503  24.108  0.00  0.00     0.179 C 
HETATM    6  C   UNK     0       0.805  37.486  23.122  0.00  0.00     0.298 C 
ENDROOT
BRANCH   5   7
HETATM    7  C   UNK     0       2.966  34.724  24.265  0.00  0.00     0.198 C 
BRANCH   7   8
HETATM    8  O   UNK     0       3.076  33.809  23.191  0.00  0.00    -0.398 OA
HETATM    9  H   UNK     0       3.402  34.301  22.417  0.00  0.00     0.209 HD
ENDBRANCH   7   8
ENDBRANCH   5   7
BRANCH   6  10
HETATM   10  O   UNK     0       1.142  38.586  22.278  0.00  0.00    -0.318 OA
BRANCH  10  11
HETATM   11  C   UNK     0       1.791  39.631  22.867  0.00  0.00     0.077 A 
HETATM   12  C   UNK     0       2.472  40.559  22.078  0.00  0.00     0.075 A 
HETATM   13  C   UNK     0       3.135  41.627  22.682  0.00  0.00     0.095 A 
HETATM   14  O   UNK     0       3.788  42.508  21.856  0.00  0.00    -0.309 OA
HETATM   15  C   UNK     0       3.116  41.765  24.070  0.00  0.00     0.081 A 
HETATM   16  C   UNK     0       4.450  43.582  22.429  0.00  0.00     0.090 A 
HETATM   17  C   UNK     0       4.509  43.818  23.748  0.00  0.00     0.094 A 
HETATM   18  C   UNK     0       3.825  42.899  24.680  0.00  0.00     0.190 A 
HETATM   19  O   UNK     0       3.853  43.079  25.890  0.00  0.00    -0.287 OA
HETATM   20  C   UNK     0       2.435  40.837  24.862  0.00  0.00     0.085 A 
HETATM   21  C   UNK     0       1.772  39.770  24.255  0.00  0.00     0.074 A 
BRANCH  16  22
HETATM   22  C   UNK     0       5.123  44.462  21.450  0.00  0.00     0.001 A 
HETATM   23  C   UNK     0       4.810  45.823  21.402  0.00  0.00     0.053 A 
HETATM   24  C   UNK     0       5.446  46.654  20.478  0.00  0.00     0.099 A 
HETATM   25  C   UNK     0       6.394  46.127  19.602  0.00  0.00     0.098 A 
HETATM   26  C   UNK     0       6.708  44.768  19.650  0.00  0.00     0.040 A 
HETATM   27  C   UNK     0       6.074  43.937  20.572  0.00  0.00     0.017 A 
BRANCH  24  28
HETATM   28  O   UNK     0       5.130  47.979  20.440  0.00  0.00    -0.358 OA
HETATM   29  H   UNK     0       5.894  48.465  20.085  0.00  0.00     0.217 HD
ENDBRANCH  24  28
BRANCH  25  30
HETATM   30  O   UNK     0       7.022  46.928  18.698  0.00  0.00    -0.358 OA
HETATM   31  H   UNK     0       6.779  46.644  17.800  0.00  0.00     0.217 HD
ENDBRANCH  25  30
ENDBRANCH  16  22
BRANCH  20  32
HETATM   32  O   UNK     0       2.388  40.928  26.220  0.00  0.00    -0.360 OA
HETATM   33  H   UNK     0       2.825  41.738  26.523  0.00  0.00     0.217 HD
ENDBRANCH  20  32
ENDBRANCH  10  11
ENDBRANCH   6  10
BRANCH   3  34
HETATM   34  O   UNK     0       0.244  33.578  24.413  0.00  0.00    -0.390 OA
HETATM   35  H   UNK     0       0.371  33.910  25.318  0.00  0.00     0.210 HD
ENDBRANCH   3  34
BRANCH   4  36
HETATM   36  O   UNK     0      -1.507  37.616  22.507  0.00  0.00    -0.388 OA
HETATM   37  H   UNK     0      -1.219  38.481  22.846  0.00  0.00     0.210 HD
ENDBRANCH   4  36
BRANCH   2  38
HETATM   38  O   UNK     0      -1.607  34.672  22.479  0.00  0.00    -0.390 OA
HETATM   39  H   UNK     0      -1.220  33.782  22.403  0.00  0.00     0.210 HD
ENDBRANCH   2  38
TORSDOF 11
ENDMDL
MODEL 4
REMARK VINA RESULT:      -8.5      1.872      9.529
REMARK  11 active torsions:
REMARK  status: ('A' for Active; 'I' for Inactive)
REMARK    1  A    between atoms: O_2  and  C_16 
REMARK    2  A    between atoms: O_2  and  C_18 
REMARK    3  A    between atoms: O_3  and  C_12 
REMARK    4  A    between atoms: O_4  and  C_13 
REMARK    5  A    between atoms: O_5  and  C_14 
REMARK    6  A    between atoms: O_6  and  C_17 
REMARK    7  A    between atoms: O_8  and  C_23 
REMARK    8  A    between atoms: O_10  and  C_30 
REMARK    9  A    between atoms: O_11  and  C_32 
REMARK   10  A    between atoms: C_15  and  C_17 
REMARK   11  A    between atoms: C_25  and  C_27 
ROOT
HETATM    1  O   UNK     0       2.549  41.922  29.200  0.00  0.00    -0.348 OA
HETATM    2  C   UNK     0       4.829  41.645  30.925  0.00  0.00     0.183 C 
HETATM    3  C   UNK     0       3.422  41.225  31.350  0.00  0.00     0.180 C 
HETATM    4  C   UNK     0       4.781  42.673  29.794  0.00  0.00     0.205 C 
HETATM    5  C   UNK     0       2.578  40.841  30.133  0.00  0.00     0.179 C 
HETATM    6  C   UNK     0       3.840  42.226  28.675  0.00  0.00     0.298 C 
ENDROOT
BRANCH   5   7
HETATM    7  C   UNK     0       1.136  40.530  30.522  0.00  0.00     0.198 C 
BRANCH   7   8
HETATM    8  O   UNK     0       0.555  41.700  31.067  0.00  0.00    -0.398 OA
HETATM    9  H   UNK     0      -0.145  41.423  31.683  0.00  0.00     0.209 HD
ENDBRANCH   7   8
ENDBRANCH   5   7
BRANCH   6  10
HETATM   10  O   UNK     0       3.738  43.293  27.733  0.00  0.00    -0.318 OA
BRANCH  10  11
HETATM   11  C   UNK     0       3.878  42.963  26.418  0.00  0.00     0.077 A 
HETATM   12  C   UNK     0       4.382  43.900  25.515  0.00  0.00     0.075 A 
HETATM   13  C   UNK     0       4.524  43.560  24.170  0.00  0.00     0.095 A 
HETATM   14  O   UNK     0       5.023  44.522  23.329  0.00  0.00    -0.309 OA
HETATM   15  C   UNK     0       4.163  42.286  23.731  0.00  0.00     0.081 A 
HETATM   16  C   UNK     0       5.181  44.210  21.988  0.00  0.00     0.090 A 
HETATM   17  C   UNK     0       4.865  43.024  21.446  0.00  0.00     0.094 A 
HETATM   18  C   UNK     0       4.321  41.955  22.307  0.00  0.00     0.190 A 
HETATM   19  O   UNK     0       4.021  40.859  21.854  0.00  0.00    -0.287 OA
HETATM   20  C   UNK     0       3.658  41.345  24.632  0.00  0.00     0.085 A 
HETATM   21  C   UNK     0       3.518  41.689  25.978  0.00  0.00     0.074 A 
BRANCH  16  22
HETATM   22  C   UNK     0       5.720  45.319  21.173  0.00  0.00     0.001 A 
HETATM   23  C   UNK     0       7.034  45.267  20.702  0.00  0.00     0.053 A 
HETATM   24  C   UNK     0       7.542  46.314  19.932  0.00  0.00     0.099 A 
HETATM   25  C   UNK     0       6.739  47.414  19.632  0.00  0.00     0.098 A 
HETATM   26  C   UNK     0       5.426  47.467  20.101  0.00  0.00     0.040 A 
HETATM   27  C   UNK     0       4.917  46.421  20.871  0.00  0.00     0.017 A 
BRANCH  24  28
HETATM   28  O   UNK     0       8.827  46.252  19.481  0.00  0.00    -0.358 OA
HETATM   29  H   UNK     0       8.982  47.012  18.894  0.00  0.00     0.217 HD
ENDBRANCH  24  28
BRANCH  25  30
HETATM   30  O   UNK     0       7.224  48.441  18.880  0.00  0.00    -0.358 OA
HETATM   31  H   UNK     0       7.296  48.150  17.955  0.00  0.00     0.217 HD
ENDBRANCH  25  30
ENDBRANCH  16  22
BRANCH  20  32
HETATM   32  O   UNK     0       3.292  40.090  24.253  0.00  0.00    -0.360 OA
HETATM   33  H   UNK     0       3.635  39.887  23.370  0.00  0.00     0.217 HD
ENDBRANCH  20  32
ENDBRANCH  10  11
ENDBRANCH   6  10
BRANCH   3  34
HETATM   34  O   UNK     0       3.511  40.109  32.233  0.00  0.00    -0.390 OA
HETATM   35  H   UNK     0       4.444  39.998  32.483  0.00  0.00     0.210 HD
ENDBRANCH   3  34
BRANCH   4  36
HETATM   36  O   UNK     0       6.088  42.832  29.243  0.00  0.00    -0.388 OA
HETATM   37  H   UNK     0       6.000  42.916  28.278  0.00  0.00     0.210 HD
ENDBRANCH   4  36
BRANCH   2  38
HETATM   38  O   UNK     0       5.483  42.216  32.059  0.00  0.00    -0.390 OA
HETATM   39  H   UNK     0       6.361  42.517  31.767  0.00  0.00     0.210 HD
ENDBRANCH   2  38
TORSDOF 11
ENDMDL
MODEL 5
REMARK VINA RESULT:      -8.4      2.428      5.050
REMARK  11 active torsions:
REMARK  status: ('A' for Active; 'I' for Inactive)
REMARK    1  A    between atoms: O_2  and  C_16 
REMARK    2  A    between atoms: O_2  and  C_18 
REMARK    3  A    between atoms: O_3  and  C_12 
REMARK    4  A    between atoms: O_4  and  C_13 
REMARK    5  A    between atoms: O_5  and  C_14 
REMARK    6  A    between atoms: O_6  and  C_17 
REMARK    7  A    between atoms: O_8  and  C_23 
REMARK    8  A    between atoms: O_10  and  C_30 
REMARK    9  A    between atoms: O_11  and  C_32 
REMARK   10  A    between atoms: C_15  and  C_17 
REMARK   11  A    between atoms: C_25  and  C_27 
ROOT
HETATM    1  O   UNK     0       6.412  44.865  21.666  0.00  0.00    -0.348 OA
HETATM    2  C   UNK     0       7.282  46.132  19.239  0.00  0.00     0.183 C 
HETATM    3  C   UNK     0       8.125  46.135  20.515  0.00  0.00     0.180 C 
HETATM    4  C   UNK     0       5.804  45.899  19.554  0.00  0.00     0.205 C 
HETATM    5  C   UNK     0       7.811  44.911  21.377  0.00  0.00     0.179 C 
HETATM    6  C   UNK     0       5.616  44.707  20.493  0.00  0.00     0.298 C 
ENDROOT
BRANCH   5   7
HETATM    7  C   UNK     0       8.554  44.953  22.709  0.00  0.00     0.198 C 
BRANCH   7   8
HETATM    8  O   UNK     0       9.863  44.453  22.509  0.00  0.00    -0.398 OA
HETATM    9  H   UNK     0      10.484  45.191  22.637  0.00  0.00     0.209 HD
ENDBRANCH   7   8
ENDBRANCH   5   7
BRANCH   6  10
HETATM   10  O   UNK     0       4.237  44.643  20.851  0.00  0.00    -0.318 OA
BRANCH  10  11
HETATM   11  C   UNK     0       3.929  43.922  21.967  0.00  0.00     0.077 A 
HETATM   12  C   UNK     0       3.245  42.711  21.845  0.00  0.00     0.075 A 
HETATM   13  C   UNK     0       2.931  41.975  22.987  0.00  0.00     0.095 A 
HETATM   14  O   UNK     0       2.257  40.793  22.806  0.00  0.00    -0.309 OA
HETATM   15  C   UNK     0       3.298  42.450  24.246  0.00  0.00     0.081 A 
HETATM   16  C   UNK     0       1.937  40.038  23.923  0.00  0.00     0.090 A 
HETATM   17  C   UNK     0       2.230  40.391  25.184  0.00  0.00     0.094 A 
HETATM   18  C   UNK     0       2.952  41.655  25.434  0.00  0.00     0.190 A 
HETATM   19  O   UNK     0       3.241  42.013  26.567  0.00  0.00    -0.287 OA
HETATM   20  C   UNK     0       3.982  43.662  24.371  0.00  0.00     0.085 A 
HETATM   21  C   UNK     0       4.296  44.396  23.226  0.00  0.00     0.074 A 
BRANCH  16  22
HETATM   22  C   UNK     0       1.209  38.789  23.615  0.00  0.00     0.001 A 
HETATM   23  C   UNK     0       1.630  37.976  22.560  0.00  0.00     0.053 A 
HETATM   24  C   UNK     0       0.943  36.796  22.270  0.00  0.00     0.099 A 
HETATM   25  C   UNK     0      -0.165  36.428  23.032  0.00  0.00     0.098 A 
HETATM   26  C   UNK     0      -0.586  37.239  24.086  0.00  0.00     0.040 A 
HETATM   27  C   UNK     0       0.099  38.418  24.377  0.00  0.00     0.017 A 
BRANCH  24  28
HETATM   28  O   UNK     0       1.363  36.013  21.237  0.00  0.00    -0.358 OA
HETATM   29  H   UNK     0       1.462  35.103  21.564  0.00  0.00     0.217 HD
ENDBRANCH  24  28
BRANCH  25  30
HETATM   30  O   UNK     0      -0.842  35.279  22.759  0.00  0.00    -0.358 OA
HETATM   31  H   UNK     0      -1.153  35.305  21.837  0.00  0.00     0.217 HD
ENDBRANCH  25  30
ENDBRANCH  16  22
BRANCH  20  32
HETATM   32  O   UNK     0       4.362  44.168  25.577  0.00  0.00    -0.360 OA
HETATM   33  H   UNK     0       4.451  45.132  25.530  0.00  0.00     0.217 HD
ENDBRANCH  20  32
ENDBRANCH  10  11
ENDBRANCH   6  10
BRANCH   3  34
HETATM   34  O   UNK     0       9.508  46.123  20.166  0.00  0.00    -0.390 OA
HETATM   35  H   UNK     0       9.678  45.320  19.644  0.00  0.00     0.210 HD
ENDBRANCH   3  34
BRANCH   4  36
HETATM   36  O   UNK     0       5.099  45.630  18.342  0.00  0.00    -0.388 OA
HETATM   37  H   UNK     0       4.216  45.296  18.576  0.00  0.00     0.210 HD
ENDBRANCH   4  36
BRANCH   2  38
HETATM   38  O   UNK     0       7.438  47.401  18.602  0.00  0.00    -0.390 OA
HETATM   39  H   UNK     0       8.034  47.934  19.157  0.00  0.00     0.210 HD
ENDBRANCH   2  38
TORSDOF 11
ENDMDL
MODEL 6
REMARK VINA RESULT:      -7.8      1.525      2.060
REMARK  11 active torsions:
REMARK  status: ('A' for Active; 'I' for Inactive)
REMARK    1  A    between atoms: O_2  and  C_16 
REMARK    2  A    between atoms: O_2  and  C_18 
REMARK    3  A    between atoms: O_3  and  C_12 
REMARK    4  A    between atoms: O_4  and  C_13 
REMARK    5  A    between atoms: O_5  and  C_14 
REMARK    6  A    between atoms: O_6  and  C_17 
REMARK    7  A    between atoms: O_8  and  C_23 
REMARK    8  A    between atoms: O_10  and  C_30 
REMARK    9  A    between atoms: O_11  and  C_32 
REMARK   10  A    between atoms: C_15  and  C_17 
REMARK   11  A    between atoms: C_25  and  C_27 
ROOT
HETATM    1  O   UNK     0       7.318  44.567  21.173  0.00  0.00    -0.348 OA
HETATM    2  C   UNK     0       5.842  46.532  19.687  0.00  0.00     0.183 C 
HETATM    3  C   UNK     0       7.300  46.192  19.376  0.00  0.00     0.180 C 
HETATM    4  C   UNK     0       5.480  46.154  21.124  0.00  0.00     0.205 C 
HETATM    5  C   UNK     0       7.623  44.755  19.790  0.00  0.00     0.179 C 
HETATM    6  C   UNK     0       5.930  44.730  21.455  0.00  0.00     0.298 C 
ENDROOT
BRANCH   5   7
HETATM    7  C   UNK     0       9.102  44.432  19.597  0.00  0.00     0.198 C 
BRANCH   7   8
HETATM    8  O   UNK     0       9.797  45.639  19.344  0.00  0.00    -0.398 OA
HETATM    9  H   UNK     0      10.446  45.464  18.640  0.00  0.00     0.209 HD
ENDBRANCH   7   8
ENDBRANCH   5   7
BRANCH   6  10
HETATM   10  O   UNK     0       5.689  44.504  22.842  0.00  0.00    -0.318 OA
BRANCH  10  11
HETATM   11  C   UNK     0       4.801  43.518  23.155  0.00  0.00     0.077 A 
HETATM   12  C   UNK     0       4.600  43.161  24.490  0.00  0.00     0.075 A 
HETATM   13  C   UNK     0       3.691  42.152  24.807  0.00  0.00     0.095 A 
HETATM   14  O   UNK     0       3.536  41.844  26.136  0.00  0.00    -0.309 OA
HETATM   15  C   UNK     0       2.988  41.502  23.794  0.00  0.00     0.081 A 
HETATM   16  C   UNK     0       2.635  40.849  26.482  0.00  0.00     0.090 A 
HETATM   17  C   UNK     0       1.906  40.149  25.599  0.00  0.00     0.094 A 
HETATM   18  C   UNK     0       2.038  40.440  24.157  0.00  0.00     0.190 A 
HETATM   19  O   UNK     0       1.391  39.827  23.320  0.00  0.00    -0.287 OA
HETATM   20  C   UNK     0       3.187  41.856  22.457  0.00  0.00     0.085 A 
HETATM   21  C   UNK     0       4.097  42.867  22.142  0.00  0.00     0.074 A 
BRANCH  16  22
HETATM   22  C   UNK     0       2.550  40.595  27.935  0.00  0.00     0.001 A 
HETATM   23  C   UNK     0       3.081  41.518  28.839  0.00  0.00     0.053 A 
HETATM   24  C   UNK     0       2.999  41.279  30.212  0.00  0.00     0.099 A 
HETATM   25  C   UNK     0       2.389  40.117  30.682  0.00  0.00     0.098 A 
HETATM   26  C   UNK     0       1.858  39.194  29.781  0.00  0.00     0.040 A 
HETATM   27  C   UNK     0       1.939  39.432  28.410  0.00  0.00     0.017 A 
BRANCH  24  28
HETATM   28  O   UNK     0       3.523  42.187  31.083  0.00  0.00    -0.358 OA
HETATM   29  H   UNK     0       3.468  43.068  30.675  0.00  0.00     0.217 HD
ENDBRANCH  24  28
BRANCH  25  30
HETATM   30  O   UNK     0       2.303  39.873  32.019  0.00  0.00    -0.358 OA
HETATM   31  H   UNK     0       1.464  39.416  32.205  0.00  0.00     0.217 HD
ENDBRANCH  25  30
ENDBRANCH  16  22
BRANCH  20  32
HETATM   32  O   UNK     0       2.525  41.252  21.432  0.00  0.00    -0.360 OA
HETATM   33  H   UNK     0       2.649  40.291  21.465  0.00  0.00     0.217 HD
ENDBRANCH  20  32
ENDBRANCH  10  11
ENDBRANCH   6  10
BRANCH   3  34
HETATM   34  O   UNK     0       7.530  46.343  17.977  0.00  0.00    -0.390 OA
HETATM   35  H   UNK     0       8.461  46.595  17.852  0.00  0.00     0.210 HD
ENDBRANCH   3  34
BRANCH   4  36
HETATM   36  O   UNK     0       4.065  46.226  21.291  0.00  0.00    -0.388 OA
HETATM   37  H   UNK     0       3.797  45.522  21.906  0.00  0.00     0.210 HD
ENDBRANCH   4  36
BRANCH   2  38
HETATM   38  O   UNK     0       5.667  47.938  19.507  0.00  0.00    -0.390 OA
HETATM   39  H   UNK     0       5.977  48.376  20.319  0.00  0.00     0.210 HD
ENDBRANCH   2  38
TORSDOF 11
ENDMDL
MODEL 7
REMARK VINA RESULT:      -7.6      3.940     10.060
REMARK  11 active torsions:
REMARK  status: ('A' for Active; 'I' for Inactive)
REMARK    1  A    between atoms: O_2  and  C_16 
REMARK    2  A    between atoms: O_2  and  C_18 
REMARK    3  A    between atoms: O_3  and  C_12 
REMARK    4  A    between atoms: O_4  and  C_13 
REMARK    5  A    between atoms: O_5  and  C_14 
REMARK    6  A    between atoms: O_6  and  C_17 
REMARK    7  A    between atoms: O_8  and  C_23 
REMARK    8  A    between atoms: O_10  and  C_30 
REMARK    9  A    between atoms: O_11  and  C_32 
REMARK   10  A    between atoms: C_15  and  C_17 
REMARK   11  A    between atoms: C_25  and  C_27 
ROOT
HETATM    1  O   UNK     0       0.928  35.889  23.224  0.00  0.00    -0.348 OA
HETATM    2  C   UNK     0      -0.630  34.760  25.356  0.00  0.00     0.183 C 
HETATM    3  C   UNK     0      -0.001  33.904  24.256  0.00  0.00     0.180 C 
HETATM    4  C   UNK     0      -0.801  36.209  24.898  0.00  0.00     0.205 C 
HETATM    5  C   UNK     0       1.251  34.578  23.692  0.00  0.00     0.179 C 
HETATM    6  C   UNK     0       0.484  36.750  24.270  0.00  0.00     0.298 C 
ENDROOT
BRANCH   5   7
HETATM    7  C   UNK     0       1.828  33.798  22.514  0.00  0.00     0.198 C 
BRANCH   7   8
HETATM    8  O   UNK     0       1.439  34.441  21.314  0.00  0.00    -0.398 OA
HETATM    9  H   UNK     0       0.585  34.063  21.040  0.00  0.00     0.209 HD
ENDBRANCH   7   8
ENDBRANCH   5   7
BRANCH   6  10
HETATM   10  O   UNK     0       0.205  38.046  23.743  0.00  0.00    -0.318 OA
BRANCH  10  11
HETATM   11  C   UNK     0       1.013  39.061  24.159  0.00  0.00     0.077 A 
HETATM   12  C   UNK     0       1.532  39.963  23.229  0.00  0.00     0.075 A 
HETATM   13  C   UNK     0       2.359  41.001  23.656  0.00  0.00     0.095 A 
HETATM   14  O   UNK     0       2.839  41.856  22.696  0.00  0.00    -0.309 OA
HETATM   15  C   UNK     0       2.667  41.135  25.010  0.00  0.00     0.081 A 
HETATM   16  C   UNK     0       3.659  42.901  23.093  0.00  0.00     0.090 A 
HETATM   17  C   UNK     0       4.031  43.131  24.362  0.00  0.00     0.094 A 
HETATM   18  C   UNK     0       3.543  42.238  25.433  0.00  0.00     0.190 A 
HETATM   19  O   UNK     0       3.855  42.413  26.602  0.00  0.00    -0.287 OA
HETATM   20  C   UNK     0       2.149  40.234  25.944  0.00  0.00     0.085 A 
HETATM   21  C   UNK     0       1.321  39.197  25.513  0.00  0.00     0.074 A 
BRANCH  16  22
HETATM   22  C   UNK     0       4.123  43.755  21.980  0.00  0.00     0.001 A 
HETATM   23  C   UNK     0       4.475  43.182  20.757  0.00  0.00     0.053 A 
HETATM   24  C   UNK     0       4.912  43.989  19.706  0.00  0.00     0.099 A 
HETATM   25  C   UNK     0       4.999  45.370  19.876  0.00  0.00     0.098 A 
HETATM   26  C   UNK     0       4.647  45.945  21.097  0.00  0.00     0.040 A 
HETATM   27  C   UNK     0       4.210  45.140  22.148  0.00  0.00     0.017 A 
BRANCH  24  28
HETATM   28  O   UNK     0       5.255  43.416  18.517  0.00  0.00    -0.358 OA
HETATM   29  H   UNK     0       4.456  43.022  18.127  0.00  0.00     0.217 HD
ENDBRANCH  24  28
BRANCH  25  30
HETATM   30  O   UNK     0       5.423  46.168  18.857  0.00  0.00    -0.358 OA
HETATM   31  H   UNK     0       4.692  46.295  18.228  0.00  0.00     0.217 HD
ENDBRANCH  25  30
ENDBRANCH  16  22
BRANCH  20  32
HETATM   32  O   UNK     0       2.420  40.323  27.275  0.00  0.00    -0.360 OA
HETATM   33  H   UNK     0       1.705  39.927  27.796  0.00  0.00     0.217 HD
ENDBRANCH  20  32
ENDBRANCH  10  11
ENDBRANCH   6  10
BRANCH   3  34
HETATM   34  O   UNK     0       0.351  32.631  24.795  0.00  0.00    -0.390 OA
HETATM   35  H   UNK     0       0.175  31.959  24.114  0.00  0.00     0.210 HD
ENDBRANCH   3  34
BRANCH   4  36
HETATM   36  O   UNK     0      -1.127  37.026  26.023  0.00  0.00    -0.388 OA
HETATM   37  H   UNK     0      -1.489  36.450  26.718  0.00  0.00     0.210 HD
ENDBRANCH   4  36
BRANCH   2  38
HETATM   38  O   UNK     0      -1.909  34.207  25.671  0.00  0.00    -0.390 OA
HETATM   39  H   UNK     0      -1.763  33.470  26.289  0.00  0.00     0.210 HD
ENDBRANCH   2  38
TORSDOF 11
ENDMDL
MODEL 8
REMARK VINA RESULT:      -7.6      4.313      8.054
REMARK  11 active torsions:
REMARK  status: ('A' for Active; 'I' for Inactive)
REMARK    1  A    between atoms: O_2  and  C_16 
REMARK    2  A    between atoms: O_2  and  C_18 
REMARK    3  A    between atoms: O_3  and  C_12 
REMARK    4  A    between atoms: O_4  and  C_13 
REMARK    5  A    between atoms: O_5  and  C_14 
REMARK    6  A    between atoms: O_6  and  C_17 
REMARK    7  A    between atoms: O_8  and  C_23 
REMARK    8  A    between atoms: O_10  and  C_30 
REMARK    9  A    between atoms: O_11  and  C_32 
REMARK   10  A    between atoms: C_15  and  C_17 
REMARK   11  A    between atoms: C_25  and  C_27 
ROOT
HETATM    1  O   UNK     0      14.448  42.741  21.332  0.00  0.00    -0.348 OA
HETATM    2  C   UNK     0      14.017  44.559  23.513  0.00  0.00     0.183 C 
HETATM    3  C   UNK     0      15.391  43.971  23.195  0.00  0.00     0.180 C 
HETATM    4  C   UNK     0      12.897  43.688  22.942  0.00  0.00     0.205 C 
HETATM    5  C   UNK     0      15.504  43.627  21.708  0.00  0.00     0.179 C 
HETATM    6  C   UNK     0      13.159  43.333  21.479  0.00  0.00     0.298 C 
ENDROOT
BRANCH   5   7
HETATM    7  C   UNK     0      16.824  42.931  21.389  0.00  0.00     0.198 C 
BRANCH   7   8
HETATM    8  O   UNK     0      17.745  43.903  20.928  0.00  0.00    -0.398 OA
HETATM    9  H   UNK     0      17.251  44.550  20.395  0.00  0.00     0.209 HD
ENDBRANCH   7   8
ENDBRANCH   5   7
BRANCH   6  10
HETATM   10  O   UNK     0      12.154  42.410  21.063  0.00  0.00    -0.318 OA
BRANCH  10  11
HETATM   11  C   UNK     0      11.024  42.942  20.516  0.00  0.00     0.077 A 
HETATM   12  C   UNK     0       9.771  42.491  20.932  0.00  0.00     0.075 A 
HETATM   13  C   UNK     0       8.616  43.036  20.372  0.00  0.00     0.095 A 
HETATM   14  O   UNK     0       7.413  42.553  20.820  0.00  0.00    -0.309 OA
HETATM   15  C   UNK     0       8.716  44.029  19.397  0.00  0.00     0.081 A 
HETATM   16  C   UNK     0       6.249  43.081  20.284  0.00  0.00     0.090 A 
HETATM   17  C   UNK     0       6.215  44.033  19.339  0.00  0.00     0.094 A 
HETATM   18  C   UNK     0       7.483  44.585  18.821  0.00  0.00     0.190 A 
HETATM   19  O   UNK     0       7.497  45.454  17.961  0.00  0.00    -0.287 OA
HETATM   20  C   UNK     0       9.970  44.483  18.978  0.00  0.00     0.085 A 
HETATM   21  C   UNK     0      11.123  43.935  19.542  0.00  0.00     0.074 A 
BRANCH  16  22
HETATM   22  C   UNK     0       5.012  42.486  20.833  0.00  0.00     0.001 A 
HETATM   23  C   UNK     0       3.767  43.021  20.495  0.00  0.00     0.053 A 
HETATM   24  C   UNK     0       2.600  42.458  21.013  0.00  0.00     0.099 A 
HETATM   25  C   UNK     0       2.675  41.360  21.869  0.00  0.00     0.098 A 
HETATM   26  C   UNK     0       3.918  40.823  22.207  0.00  0.00     0.040 A 
HETATM   27  C   UNK     0       5.084  41.385  21.690  0.00  0.00     0.017 A 
BRANCH  24  28
HETATM   28  O   UNK     0       1.392  42.992  20.677  0.00  0.00    -0.358 OA
HETATM   29  H   UNK     0       0.984  43.355  21.482  0.00  0.00     0.217 HD
ENDBRANCH  24  28
BRANCH  25  30
HETATM   30  O   UNK     0       1.543  40.801  22.379  0.00  0.00    -0.358 OA
HETATM   31  H   UNK     0       1.249  40.086  21.790  0.00  0.00     0.217 HD
ENDBRANCH  25  30
ENDBRANCH  16  22
BRANCH  20  32
HETATM   32  O   UNK     0      10.119  45.449  18.030  0.00  0.00    -0.360 OA
HETATM   33  H   UNK     0      10.415  46.279  18.433  0.00  0.00     0.217 HD
ENDBRANCH  20  32
ENDBRANCH  10  11
ENDBRANCH   6  10
BRANCH   3  34
HETATM   34  O   UNK     0      16.400  44.919  23.537  0.00  0.00    -0.390 OA
HETATM   35  H   UNK     0      16.795  44.645  24.383  0.00  0.00     0.210 HD
ENDBRANCH   3  34
BRANCH   4  36
HETATM   36  O   UNK     0      11.661  44.398  23.016  0.00  0.00    -0.388 OA
HETATM   37  H   UNK     0      11.541  44.882  22.181  0.00  0.00     0.210 HD
ENDBRANCH   4  36
BRANCH   2  38
HETATM   38  O   UNK     0      13.884  44.633  24.934  0.00  0.00    -0.390 OA
HETATM   39  H   UNK     0      14.744  44.915  25.291  0.00  0.00     0.210 HD
ENDBRANCH   2  38
TORSDOF 11
ENDMDL
MODEL 9
REMARK VINA RESULT:      -7.5      3.948     10.318
REMARK  11 active torsions:
REMARK  status: ('A' for Active; 'I' for Inactive)
REMARK    1  A    between atoms: O_2  and  C_16 
REMARK    2  A    between atoms: O_2  and  C_18 
REMARK    3  A    between atoms: O_3  and  C_12 
REMARK    4  A    between atoms: O_4  and  C_13 
REMARK    5  A    between atoms: O_5  and  C_14 
REMARK    6  A    between atoms: O_6  and  C_17 
REMARK    7  A    between atoms: O_8  and  C_23 
REMARK    8  A    between atoms: O_10  and  C_30 
REMARK    9  A    between atoms: O_11  and  C_32 
REMARK   10  A    between atoms: C_15  and  C_17 
REMARK   11  A    between atoms: C_25  and  C_27 
ROOT
HETATM    1  O   UNK     0      -0.085  36.482  25.607  0.00  0.00    -0.348 OA
HETATM    2  C   UNK     0      -2.415  35.849  24.051  0.00  0.00     0.183 C 
HETATM    3  C   UNK     0      -2.152  35.231  25.425  0.00  0.00     0.180 C 
HETATM    4  C   UNK     0      -1.118  36.350  23.414  0.00  0.00     0.205 C 
HETATM    5  C   UNK     0      -1.301  36.165  26.288  0.00  0.00     0.179 C 
HETATM    6  C   UNK     0      -0.307  37.197  24.394  0.00  0.00     0.298 C 
ENDROOT
BRANCH   5   7
HETATM    7  C   UNK     0      -0.929  35.519  27.619  0.00  0.00     0.198 C 
BRANCH   7   8
HETATM    8  O   UNK     0      -1.987  35.734  28.535  0.00  0.00    -0.398 OA
HETATM    9  H   UNK     0      -1.753  35.287  29.366  0.00  0.00     0.209 HD
ENDBRANCH   7   8
ENDBRANCH   5   7
BRANCH   6  10
HETATM   10  O   UNK     0       0.943  37.505  23.780  0.00  0.00    -0.318 OA
BRANCH  10  11
HETATM   11  C   UNK     0       1.532  38.678  24.148  0.00  0.00     0.077 A 
HETATM   12  C   UNK     0       2.010  39.553  23.172  0.00  0.00     0.075 A 
HETATM   13  C   UNK     0       2.613  40.752  23.551  0.00  0.00     0.095 A 
HETATM   14  O   UNK     0       3.063  41.572  22.547  0.00  0.00    -0.309 OA
HETATM   15  C   UNK     0       2.738  41.073  24.902  0.00  0.00     0.081 A 
HETATM   16  C   UNK     0       3.662  42.774  22.894  0.00  0.00     0.090 A 
HETATM   17  C   UNK     0       3.844  43.190  24.157  0.00  0.00     0.094 A 
HETATM   18  C   UNK     0       3.379  42.344  25.274  0.00  0.00     0.190 A 
HETATM   19  O   UNK     0       3.524  42.686  26.439  0.00  0.00    -0.287 OA
HETATM   20  C   UNK     0       2.261  40.199  25.883  0.00  0.00     0.085 A 
HETATM   21  C   UNK     0       1.657  39.001  25.500  0.00  0.00     0.074 A 
BRANCH  16  22
HETATM   22  C   UNK     0       4.114  43.575  21.738  0.00  0.00     0.001 A 
HETATM   23  C   UNK     0       4.313  44.950  21.874  0.00  0.00     0.053 A 
HETATM   24  C   UNK     0       4.742  45.706  20.782  0.00  0.00     0.099 A 
HETATM   25  C   UNK     0       4.971  45.089  19.553  0.00  0.00     0.098 A 
HETATM   26  C   UNK     0       4.773  43.715  19.415  0.00  0.00     0.040 A 
HETATM   27  C   UNK     0       4.345  42.959  20.505  0.00  0.00     0.017 A 
BRANCH  24  28
HETATM   28  O   UNK     0       4.929  47.048  20.927  0.00  0.00    -0.358 OA
HETATM   29  H   UNK     0       4.872  47.462  20.049  0.00  0.00     0.217 HD
ENDBRANCH  24  28
BRANCH  25  30
HETATM   30  O   UNK     0       5.390  45.816  18.480  0.00  0.00    -0.358 OA
HETATM   31  H   UNK     0       6.294  45.544  18.246  0.00  0.00     0.217 HD
ENDBRANCH  25  30
ENDBRANCH  16  22
BRANCH  20  32
HETATM   32  O   UNK     0       2.359  40.468  27.214  0.00  0.00    -0.360 OA
HETATM   33  H   UNK     0       1.742  41.171  27.467  0.00  0.00     0.217 HD
ENDBRANCH  20  32
ENDBRANCH  10  11
ENDBRANCH   6  10
BRANCH   3  34
HETATM   34  O   UNK     0      -3.397  34.990  26.078  0.00  0.00    -0.390 OA
HETATM   35  H   UNK     0      -3.207  34.704  26.988  0.00  0.00     0.210 HD
ENDBRANCH   3  34
BRANCH   4  36
HETATM   36  O   UNK     0      -1.430  37.156  22.278  0.00  0.00    -0.388 OA
HETATM   37  H   UNK     0      -0.732  37.826  22.182  0.00  0.00     0.210 HD
ENDBRANCH   4  36
BRANCH   2  38
HETATM   38  O   UNK     0      -2.998  34.846  23.218  0.00  0.00    -0.390 OA
HETATM   39  H   UNK     0      -2.402  34.077  23.229  0.00  0.00     0.210 HD
ENDBRANCH   2  38
TORSDOF 11
ENDMDL
