MODEL 1
REMARK VINA RESULT:    -9.112      0.000      0.000
REMARK INTER + INTRA:         -14.070
REMARK INTER:                 -13.009
REMARK INTRA:                  -1.060
REMARK UNBOUND:                -0.962
REMARK  11 active torsions:
REMARK  status: ('A' for Active; 'I' for Inactive)
REMARK    1  A    between atoms: O_2  and  C_16 
REMARK    2  A    between atoms: O_2  and  C_18 
REMARK    3  A    between atoms: O_3  and  C_12 
REMARK    4  A    between atoms: O_4  and  C_13 
REMARK    5  A    between atoms: O_5  and  C_14 
REMARK    6  A    between atoms: O_6  and  C_17 
REMARK    7  A    between atoms: O_8  and  C_23 
REMARK    8  A    between atoms: O_10  and  C_30 
REMARK    9  A    between atoms: O_11  and  C_32 
REMARK   10  A    between atoms: C_15  and  C_17 
REMARK   11  A    between atoms: C_25  and  C_27 
ROOT
HETATM    1  O   UNK     0       7.055  45.419  21.291  0.00  0.00    -0.348 OA
HETATM    2  C   UNK     0       7.453  45.066  18.468  0.00  0.00     0.183 C 
HETATM    3  C   UNK     0       8.528  45.655  19.381  0.00  0.00     0.180 C 
HETATM    4  C   UNK     0       6.061  45.216  19.084  0.00  0.00     0.205 C 
HETATM    5  C   UNK     0       8.371  45.136  20.812  0.00  0.00     0.179 C 
HETATM    6  C   UNK     0       6.044  44.750  20.540  0.00  0.00     0.298 C 
ENDROOT
BRANCH   5   7
HETATM    7  C   UNK     0       9.360  45.800  21.765  0.00  0.00     0.198 C 
BRANCH   7   8
HETATM    8  O   UNK     0       9.823  46.998  21.170  0.00  0.00    -0.398 OA
HETATM    9  H   UNK     0       9.367  47.740  21.605  0.00  0.00     0.209 HD
ENDBRANCH   7   8
ENDBRANCH   5   7
BRANCH   6  10
HETATM   10  O   UNK     0       4.760  45.053  21.084  0.00  0.00    -0.318 OA
BRANCH  10  11
HETATM   11  C   UNK     0       4.144  44.060  21.786  0.00  0.00     0.077 A 
HETATM   12  C   UNK     0       4.346  43.954  23.163  0.00  0.00     0.075 A 
HETATM   13  C   UNK     0       3.715  42.937  23.879  0.00  0.00     0.095 A 
HETATM   14  O   UNK     0       3.952  42.882  25.230  0.00  0.00    -0.309 OA
HETATM   15  C   UNK     0       2.887  42.030  23.220  0.00  0.00     0.081 A 
HETATM   16  C   UNK     0       3.334  41.885  25.969  0.00  0.00     0.090 A 
HETATM   17  C   UNK     0       2.521  40.953  25.448  0.00  0.00     0.094 A 
HETATM   18  C   UNK     0       2.236  40.966  24.000  0.00  0.00     0.190 A 
HETATM   19  O   UNK     0       1.500  40.135  23.485  0.00  0.00    -0.287 OA
HETATM   20  C   UNK     0       2.683  42.133  21.842  0.00  0.00     0.085 A 
HETATM   21  C   UNK     0       3.315  43.152  21.128  0.00  0.00     0.074 A 
BRANCH  16  22
HETATM   22  C   UNK     0       3.662  41.916  27.409  0.00  0.00     0.001 A 
HETATM   23  C   UNK     0       4.842  42.520  27.846  0.00  0.00     0.053 A 
HETATM   24  C   UNK     0       5.151  42.550  29.207  0.00  0.00     0.099 A 
HETATM   25  C   UNK     0       4.281  41.974  30.132  0.00  0.00     0.098 A 
HETATM   26  C   UNK     0       3.100  41.371  29.698  0.00  0.00     0.040 A 
HETATM   27  C   UNK     0       2.791  41.341  28.339  0.00  0.00     0.017 A 
BRANCH  24  28
HETATM   28  O   UNK     0       6.308  43.140  29.620  0.00  0.00    -0.358 OA
HETATM   29  H   UNK     0       6.152  43.539  30.493  0.00  0.00     0.217 HD
ENDBRANCH  24  28
BRANCH  25  30
HETATM   30  O   UNK     0       4.570  41.998  31.463  0.00  0.00    -0.358 OA
HETATM   31  H   UNK     0       3.751  41.858  31.968  0.00  0.00     0.217 HD
ENDBRANCH  25  30
ENDBRANCH  16  22
BRANCH  20  32
HETATM   32  O   UNK     0       1.884  41.272  21.153  0.00  0.00    -0.360 OA
HETATM   33  H   UNK     0       1.014  41.669  20.991  0.00  0.00     0.217 HD
ENDBRANCH  20  32
ENDBRANCH  10  11
ENDBRANCH   6  10
BRANCH   3  34
HETATM   34  O   UNK     0       9.816  45.293  18.887  0.00  0.00    -0.390 OA
HETATM   35  H   UNK     0       9.744  45.173  17.925  0.00  0.00     0.210 HD
ENDBRANCH   3  34
BRANCH   4  36
HETATM   36  O   UNK     0       5.130  44.423  18.349  0.00  0.00    -0.388 OA
HETATM   37  H   UNK     0       4.264  44.864  18.385  0.00  0.00     0.210 HD
ENDBRANCH   4  36
BRANCH   2  38
HETATM   38  O   UNK     0       7.499  45.763  17.222  0.00  0.00    -0.390 OA
HETATM   39  H   UNK     0       8.436  45.870  16.984  0.00  0.00     0.210 HD
ENDBRANCH   2  38
TORSDOF 11
ENDMDL
MODEL 2
REMARK VINA RESULT:    -8.926      2.131      4.920
REMARK INTER + INTRA:         -13.802
REMARK INTER:                 -12.952
REMARK INTRA:                  -0.850
REMARK UNBOUND:                -0.962
REMARK  11 active torsions:
REMARK  status: ('A' for Active; 'I' for Inactive)
REMARK    1  A    between atoms: O_2  and  C_16 
REMARK    2  A    between atoms: O_2  and  C_18 
REMARK    3  A    between atoms: O_3  and  C_12 
REMARK    4  A    between atoms: O_4  and  C_13 
REMARK    5  A    between atoms: O_5  and  C_14 
REMARK    6  A    between atoms: O_6  and  C_17 
REMARK    7  A    between atoms: O_8  and  C_23 
REMARK    8  A    between atoms: O_10  and  C_30 
REMARK    9  A    between atoms: O_11  and  C_32 
REMARK   10  A    between atoms: C_15  and  C_17 
REMARK   11  A    between atoms: C_25  and  C_27 
ROOT
HETATM    1  O   UNK     0       6.934  45.394  21.233  0.00  0.00    -0.348 OA
HETATM    2  C   UNK     0       7.445  45.072  18.425  0.00  0.00     0.183 C 
HETATM    3  C   UNK     0       8.455  45.716  19.375  0.00  0.00     0.180 C 
HETATM    4  C   UNK     0       6.027  45.144  18.995  0.00  0.00     0.205 C 
HETATM    5  C   UNK     0       8.279  45.184  20.798  0.00  0.00     0.179 C 
HETATM    6  C   UNK     0       5.986  44.674  20.448  0.00  0.00     0.298 C 
ENDROOT
BRANCH   5   7
HETATM    7  C   UNK     0       9.198  45.897  21.785  0.00  0.00     0.198 C 
BRANCH   7   8
HETATM    8  O   UNK     0       9.766  47.022  21.139  0.00  0.00    -0.398 OA
HETATM    9  H   UNK     0      10.657  47.155  21.506  0.00  0.00     0.209 HD
ENDBRANCH   7   8
ENDBRANCH   5   7
BRANCH   6  10
HETATM   10  O   UNK     0       4.671  44.905  20.949  0.00  0.00    -0.318 OA
BRANCH  10  11
HETATM   11  C   UNK     0       4.293  44.172  22.035  0.00  0.00     0.077 A 
HETATM   12  C   UNK     0       3.590  42.979  21.860  0.00  0.00     0.075 A 
HETATM   13  C   UNK     0       3.205  42.232  22.972  0.00  0.00     0.095 A 
HETATM   14  O   UNK     0       2.516  41.069  22.737  0.00  0.00    -0.309 OA
HETATM   15  C   UNK     0       3.521  42.677  24.255  0.00  0.00     0.081 A 
HETATM   16  C   UNK     0       2.125  40.302  23.824  0.00  0.00     0.090 A 
HETATM   17  C   UNK     0       2.365  40.627  25.104  0.00  0.00     0.094 A 
HETATM   18  C   UNK     0       3.100  41.871  25.410  0.00  0.00     0.190 A 
HETATM   19  O   UNK     0       3.341  42.203  26.562  0.00  0.00    -0.287 OA
HETATM   20  C   UNK     0       4.224  43.871  24.435  0.00  0.00     0.085 A 
HETATM   21  C   UNK     0       4.609  44.617  23.319  0.00  0.00     0.074 A 
BRANCH  16  22
HETATM   22  C   UNK     0       1.386  39.075  23.459  0.00  0.00     0.001 A 
HETATM   23  C   UNK     0       1.766  38.338  22.335  0.00  0.00     0.053 A 
HETATM   24  C   UNK     0       1.069  37.179  21.991  0.00  0.00     0.099 A 
HETATM   25  C   UNK     0      -0.008  36.756  22.768  0.00  0.00     0.098 A 
HETATM   26  C   UNK     0      -0.388  37.490  23.892  0.00  0.00     0.040 A 
HETATM   27  C   UNK     0       0.307  38.648  24.237  0.00  0.00     0.017 A 
BRANCH  24  28
HETATM   28  O   UNK     0       1.448  36.471  20.889  0.00  0.00    -0.358 OA
HETATM   29  H   UNK     0       2.030  37.033  20.351  0.00  0.00     0.217 HD
ENDBRANCH  24  28
BRANCH  25  30
HETATM   30  O   UNK     0      -0.695  35.626  22.443  0.00  0.00    -0.358 OA
HETATM   31  H   UNK     0      -0.320  35.250  21.628  0.00  0.00     0.217 HD
ENDBRANCH  25  30
ENDBRANCH  16  22
BRANCH  20  32
HETATM   32  O   UNK     0       4.556  44.348  25.666  0.00  0.00    -0.360 OA
HETATM   33  H   UNK     0       4.107  43.843  26.360  0.00  0.00     0.217 HD
ENDBRANCH  20  32
ENDBRANCH  10  11
ENDBRANCH   6  10
BRANCH   3  34
HETATM   34  O   UNK     0       9.777  45.425  18.923  0.00  0.00    -0.390 OA
HETATM   35  H   UNK     0      10.236  44.941  19.631  0.00  0.00     0.210 HD
ENDBRANCH   3  34
BRANCH   4  36
HETATM   36  O   UNK     0       5.165  44.304  18.228  0.00  0.00    -0.388 OA
HETATM   37  H   UNK     0       4.291  44.302  18.653  0.00  0.00     0.210 HD
ENDBRANCH   4  36
BRANCH   2  38
HETATM   38  O   UNK     0       7.495  45.774  17.182  0.00  0.00    -0.390 OA
HETATM   39  H   UNK     0       7.968  46.609  17.339  0.00  0.00     0.210 HD
ENDBRANCH   2  38
TORSDOF 11
ENDMDL
MODEL 3
REMARK VINA RESULT:    -8.760      3.584      9.558
REMARK INTER + INTRA:         -13.563
REMARK INTER:                 -12.653
REMARK INTRA:                  -0.910
REMARK UNBOUND:                -0.962
REMARK  11 active torsions:
REMARK  status: ('A' for Active; 'I' for Inactive)
REMARK    1  A    between atoms: O_2  and  C_16 
REMARK    2  A    between atoms: O_2  and  C_18 
REMARK    3  A    between atoms: O_3  and  C_12 
REMARK    4  A    between atoms: O_4  and  C_13 
REMARK    5  A    between atoms: O_5  and  C_14 
REMARK    6  A    between atoms: O_6  and  C_17 
REMARK    7  A    between atoms: O_8  and  C_23 
REMARK    8  A    between atoms: O_10  and  C_30 
REMARK    9  A    between atoms: O_11  and  C_32 
REMARK   10  A    between atoms: C_15  and  C_17 
REMARK   11  A    between atoms: C_25  and  C_27 
ROOT
HETATM    1  O   UNK     0       1.903  36.557  23.200  0.00  0.00    -0.348 OA
HETATM    2  C   UNK     0      -0.734  35.418  23.189  0.00  0.00     0.183 C 
HETATM    3  C   UNK     0       0.519  34.585  23.462  0.00  0.00     0.180 C 
HETATM    4  C   UNK     0      -0.393  36.694  22.419  0.00  0.00     0.205 C 
HETATM    5  C   UNK     0       1.628  35.452  24.062  0.00  0.00     0.179 C 
HETATM    6  C   UNK     0       0.785  37.431  23.057  0.00  0.00     0.298 C 
ENDROOT
BRANCH   5   7
HETATM    7  C   UNK     0       2.925  34.669  24.234  0.00  0.00     0.198 C 
BRANCH   7   8
HETATM    8  O   UNK     0       3.050  33.762  23.154  0.00  0.00    -0.398 OA
HETATM    9  H   UNK     0       3.998  33.584  23.025  0.00  0.00     0.209 HD
ENDBRANCH   7   8
ENDBRANCH   5   7
BRANCH   6  10
HETATM   10  O   UNK     0       1.132  38.524  22.208  0.00  0.00    -0.318 OA
BRANCH  10  11
HETATM   11  C   UNK     0       1.769  39.576  22.796  0.00  0.00     0.077 A 
HETATM   12  C   UNK     0       2.459  40.500  22.009  0.00  0.00     0.075 A 
HETATM   13  C   UNK     0       3.109  41.575  22.613  0.00  0.00     0.095 A 
HETATM   14  O   UNK     0       3.772  42.450  21.789  0.00  0.00    -0.309 OA
HETATM   15  C   UNK     0       3.070  41.725  23.999  0.00  0.00     0.081 A 
HETATM   16  C   UNK     0       4.423  43.532  22.361  0.00  0.00     0.090 A 
HETATM   17  C   UNK     0       4.461  43.780  23.680  0.00  0.00     0.094 A 
HETATM   18  C   UNK     0       3.766  42.868  24.610  0.00  0.00     0.190 A 
HETATM   19  O   UNK     0       3.775  43.058  25.818  0.00  0.00    -0.287 OA
HETATM   20  C   UNK     0       2.380  40.803  24.790  0.00  0.00     0.085 A 
HETATM   21  C   UNK     0       1.729  39.728  24.182  0.00  0.00     0.074 A 
BRANCH  16  22
HETATM   22  C   UNK     0       5.107  44.405  21.385  0.00  0.00     0.001 A 
HETATM   23  C   UNK     0       4.825  45.772  21.350  0.00  0.00     0.053 A 
HETATM   24  C   UNK     0       5.473  46.596  20.429  0.00  0.00     0.099 A 
HETATM   25  C   UNK     0       6.401  46.056  19.541  0.00  0.00     0.098 A 
HETATM   26  C   UNK     0       6.685  44.690  19.575  0.00  0.00     0.040 A 
HETATM   27  C   UNK     0       6.039  43.866  20.495  0.00  0.00     0.017 A 
BRANCH  24  28
HETATM   28  O   UNK     0       5.186  47.929  20.404  0.00  0.00    -0.358 OA
HETATM   29  H   UNK     0       5.731  48.371  21.076  0.00  0.00     0.217 HD
ENDBRANCH  24  28
BRANCH  25  30
HETATM   30  O   UNK     0       7.040  46.851  18.638  0.00  0.00    -0.358 OA
HETATM   31  H   UNK     0       6.525  46.872  17.814  0.00  0.00     0.217 HD
ENDBRANCH  25  30
ENDBRANCH  16  22
BRANCH  20  32
HETATM   32  O   UNK     0       2.312  40.906  26.146  0.00  0.00    -0.360 OA
HETATM   33  H   UNK     0       3.176  41.145  26.514  0.00  0.00     0.217 HD
ENDBRANCH  20  32
ENDBRANCH  10  11
ENDBRANCH   6  10
BRANCH   3  34
HETATM   34  O   UNK     0       0.197  33.535  24.371  0.00  0.00    -0.390 OA
HETATM   35  H   UNK     0       0.571  32.709  24.019  0.00  0.00     0.210 HD
ENDBRANCH   3  34
BRANCH   4  36
HETATM   36  O   UNK     0      -1.523  37.566  22.425  0.00  0.00    -0.388 OA
HETATM   37  H   UNK     0      -1.573  37.990  23.299  0.00  0.00     0.210 HD
ENDBRANCH   4  36
BRANCH   2  38
HETATM   38  O   UNK     0      -1.635  34.623  22.417  0.00  0.00    -0.390 OA
HETATM   39  H   UNK     0      -2.330  35.215  22.081  0.00  0.00     0.210 HD
ENDBRANCH   2  38
TORSDOF 11
ENDMDL
MODEL 4
REMARK VINA RESULT:    -8.447      2.168      9.604
REMARK INTER + INTRA:         -13.113
REMARK INTER:                 -12.188
REMARK INTRA:                  -0.925
REMARK UNBOUND:                -0.962
REMARK  11 active torsions:
REMARK  status: ('A' for Active; 'I' for Inactive)
REMARK    1  A    between atoms: O_2  and  C_16 
REMARK    2  A    between atoms: O_2  and  C_18 
REMARK    3  A    between atoms: O_3  and  C_12 
REMARK    4  A    between atoms: O_4  and  C_13 
REMARK    5  A    between atoms: O_5  and  C_14 
REMARK    6  A    between atoms: O_6  and  C_17 
REMARK    7  A    between atoms: O_8  and  C_23 
REMARK    8  A    between atoms: O_10  and  C_30 
REMARK    9  A    between atoms: O_11  and  C_32 
REMARK   10  A    between atoms: C_15  and  C_17 
REMARK   11  A    between atoms: C_25  and  C_27 
ROOT
HETATM    1  O   UNK     0       2.247  41.649  29.232  0.00  0.00    -0.348 OA
HETATM    2  C   UNK     0       3.435  39.092  29.784  0.00  0.00     0.183 C 
HETATM    3  C   UNK     0       2.536  39.814  30.789  0.00  0.00     0.180 C 
HETATM    4  C   UNK     0       4.039  40.073  28.779  0.00  0.00     0.205 C 
HETATM    5  C   UNK     0       1.543  40.729  30.069  0.00  0.00     0.179 C 
HETATM    6  C   UNK     0       2.972  40.996  28.191  0.00  0.00     0.298 C 
ENDROOT
BRANCH   5   7
HETATM    7  C   UNK     0       0.714  41.547  31.055  0.00  0.00     0.198 C 
BRANCH   7   8
HETATM    8  O   UNK     0      -0.354  40.743  31.520  0.00  0.00    -0.398 OA
HETATM    9  H   UNK     0      -0.969  40.610  30.778  0.00  0.00     0.209 HD
ENDBRANCH   7   8
ENDBRANCH   5   7
BRANCH   6  10
HETATM   10  O   UNK     0       3.628  41.968  27.378  0.00  0.00    -0.318 OA
BRANCH  10  11
HETATM   11  C   UNK     0       3.376  41.915  26.040  0.00  0.00     0.077 A 
HETATM   12  C   UNK     0       4.050  42.774  25.171  0.00  0.00     0.075 A 
HETATM   13  C   UNK     0       3.791  42.719  23.802  0.00  0.00     0.095 A 
HETATM   14  O   UNK     0       4.484  43.588  22.997  0.00  0.00    -0.309 OA
HETATM   15  C   UNK     0       2.859  41.808  23.305  0.00  0.00     0.081 A 
HETATM   16  C   UNK     0       4.250  43.552  21.631  0.00  0.00     0.090 A 
HETATM   17  C   UNK     0       3.376  42.726  21.035  0.00  0.00     0.094 A 
HETATM   18  C   UNK     0       2.603  41.773  21.857  0.00  0.00     0.190 A 
HETATM   19  O   UNK     0       1.798  41.002  21.354  0.00  0.00    -0.287 OA
HETATM   20  C   UNK     0       2.182  40.947  24.172  0.00  0.00     0.085 A 
HETATM   21  C   UNK     0       2.445  41.004  25.541  0.00  0.00     0.074 A 
BRANCH  16  22
HETATM   22  C   UNK     0       5.044  44.532  20.860  0.00  0.00     0.001 A 
HETATM   23  C   UNK     0       4.756  45.895  20.954  0.00  0.00     0.053 A 
HETATM   24  C   UNK     0       5.506  46.820  20.227  0.00  0.00     0.099 A 
HETATM   25  C   UNK     0       6.545  46.384  19.405  0.00  0.00     0.098 A 
HETATM   26  C   UNK     0       6.835  45.023  19.311  0.00  0.00     0.040 A 
HETATM   27  C   UNK     0       6.086  44.098  20.037  0.00  0.00     0.017 A 
BRANCH  24  28
HETATM   28  O   UNK     0       5.212  48.147  20.326  0.00  0.00    -0.358 OA
HETATM   29  H   UNK     0       4.246  48.244  20.370  0.00  0.00     0.217 HD
ENDBRANCH  24  28
BRANCH  25  30
HETATM   30  O   UNK     0       7.285  47.278  18.692  0.00  0.00    -0.358 OA
HETATM   31  H   UNK     0       7.573  46.860  17.862  0.00  0.00     0.217 HD
ENDBRANCH  25  30
ENDBRANCH  16  22
BRANCH  20  32
HETATM   32  O   UNK     0       1.264  40.041  23.735  0.00  0.00    -0.360 OA
HETATM   33  H   UNK     0       1.097  40.154  22.788  0.00  0.00     0.217 HD
ENDBRANCH  20  32
ENDBRANCH  10  11
ENDBRANCH   6  10
BRANCH   3  34
HETATM   34  O   UNK     0       1.818  38.849  31.555  0.00  0.00    -0.390 OA
HETATM   35  H   UNK     0       1.336  39.321  32.255  0.00  0.00     0.210 HD
ENDBRANCH   3  34
BRANCH   4  36
HETATM   36  O   UNK     0       4.639  39.345  27.708  0.00  0.00    -0.388 OA
HETATM   37  H   UNK     0       3.937  39.090  27.086  0.00  0.00     0.210 HD
ENDBRANCH   4  36
BRANCH   2  38
HETATM   38  O   UNK     0       4.484  38.450  30.511  0.00  0.00    -0.390 OA
HETATM   39  H   UNK     0       4.650  38.978  31.310  0.00  0.00     0.210 HD
ENDBRANCH   2  38
TORSDOF 11
ENDMDL
MODEL 5
REMARK VINA RESULT:    -8.330      2.898      5.347
REMARK INTER + INTRA:         -12.944
REMARK INTER:                 -12.060
REMARK INTRA:                  -0.884
REMARK UNBOUND:                -0.962
REMARK  11 active torsions:
REMARK  status: ('A' for Active; 'I' for Inactive)
REMARK    1  A    between atoms: O_2  and  C_16 
REMARK    2  A    between atoms: O_2  and  C_18 
REMARK    3  A    between atoms: O_3  and  C_12 
REMARK    4  A    between atoms: O_4  and  C_13 
REMARK    5  A    between atoms: O_5  and  C_14 
REMARK    6  A    between atoms: O_6  and  C_17 
REMARK    7  A    between atoms: O_8  and  C_23 
REMARK    8  A    between atoms: O_10  and  C_30 
REMARK    9  A    between atoms: O_11  and  C_32 
REMARK   10  A    between atoms: C_15  and  C_17 
REMARK   11  A    between atoms: C_25  and  C_27 
ROOT
HETATM    1  O   UNK     0       5.858  44.534  21.280  0.00  0.00    -0.348 OA
HETATM    2  C   UNK     0       6.150  43.975  18.478  0.00  0.00     0.183 C 
HETATM    3  C   UNK     0       7.192  44.766  19.270  0.00  0.00     0.180 C 
HETATM    4  C   UNK     0       4.784  44.017  19.164  0.00  0.00     0.205 C 
HETATM    5  C   UNK     0       7.172  44.363  20.746  0.00  0.00     0.179 C 
HETATM    6  C   UNK     0       4.898  43.686  20.651  0.00  0.00     0.298 C 
ENDROOT
BRANCH   5   7
HETATM    7  C   UNK     0       8.121  45.221  21.577  0.00  0.00     0.198 C 
BRANCH   7   8
HETATM    8  O   UNK     0       8.209  46.502  20.981  0.00  0.00    -0.398 OA
HETATM    9  H   UNK     0       8.089  47.164  21.683  0.00  0.00     0.209 HD
ENDBRANCH   7   8
ENDBRANCH   5   7
BRANCH   6  10
HETATM   10  O   UNK     0       3.617  43.885  21.246  0.00  0.00    -0.318 OA
BRANCH  10  11
HETATM   11  C   UNK     0       3.328  43.129  22.343  0.00  0.00     0.077 A 
HETATM   12  C   UNK     0       2.520  41.999  22.216  0.00  0.00     0.075 A 
HETATM   13  C   UNK     0       2.226  41.227  23.340  0.00  0.00     0.095 A 
HETATM   14  O   UNK     0       1.426  40.128  23.154  0.00  0.00    -0.309 OA
HETATM   15  C   UNK     0       2.738  41.586  24.586  0.00  0.00     0.081 A 
HETATM   16  C   UNK     0       1.122  39.339  24.252  0.00  0.00     0.090 A 
HETATM   17  C   UNK     0       1.549  39.584  25.501  0.00  0.00     0.094 A 
HETATM   18  C   UNK     0       2.411  40.756  25.755  0.00  0.00     0.190 A 
HETATM   19  O   UNK     0       2.823  41.014  26.877  0.00  0.00    -0.287 OA
HETATM   20  C   UNK     0       3.548  42.718  24.717  0.00  0.00     0.085 A 
HETATM   21  C   UNK     0       3.841  43.487  23.590  0.00  0.00     0.074 A 
BRANCH  16  22
HETATM   22  C   UNK     0       0.251  38.186  23.941  0.00  0.00     0.001 A 
HETATM   23  C   UNK     0      -0.814  37.865  24.785  0.00  0.00     0.053 A 
HETATM   24  C   UNK     0      -1.637  36.778  24.489  0.00  0.00     0.099 A 
HETATM   25  C   UNK     0      -1.396  36.009  23.351  0.00  0.00     0.098 A 
HETATM   26  C   UNK     0      -0.333  36.329  22.506  0.00  0.00     0.040 A 
HETATM   27  C   UNK     0       0.489  37.415  22.800  0.00  0.00     0.017 A 
BRANCH  24  28
HETATM   28  O   UNK     0      -2.672  36.474  25.322  0.00  0.00    -0.358 OA
HETATM   29  H   UNK     0      -3.023  37.303  25.688  0.00  0.00     0.217 HD
ENDBRANCH  24  28
BRANCH  25  30
HETATM   30  O   UNK     0      -2.193  34.946  23.051  0.00  0.00    -0.358 OA
HETATM   31  H   UNK     0      -1.795  34.448  22.316  0.00  0.00     0.217 HD
ENDBRANCH  25  30
ENDBRANCH  16  22
BRANCH  20  32
HETATM   32  O   UNK     0       4.072  43.110  25.911  0.00  0.00    -0.360 OA
HETATM   33  H   UNK     0       3.367  43.283  26.553  0.00  0.00     0.217 HD
ENDBRANCH  20  32
ENDBRANCH  10  11
ENDBRANCH   6  10
BRANCH   3  34
HETATM   34  O   UNK     0       8.487  44.513  18.729  0.00  0.00    -0.390 OA
HETATM   35  H   UNK     0       8.552  44.978  17.878  0.00  0.00     0.210 HD
ENDBRANCH   3  34
BRANCH   4  36
HETATM   36  O   UNK     0       3.920  43.058  18.556  0.00  0.00    -0.388 OA
HETATM   37  H   UNK     0       3.969  42.237  19.075  0.00  0.00     0.210 HD
ENDBRANCH   4  36
BRANCH   2  38
HETATM   38  O   UNK     0       6.048  44.557  17.177  0.00  0.00    -0.390 OA
HETATM   39  H   UNK     0       5.696  45.457  17.289  0.00  0.00     0.210 HD
ENDBRANCH   2  38
TORSDOF 11
ENDMDL
MODEL 6
REMARK VINA RESULT:    -7.822     29.463     32.938
REMARK INTER + INTRA:         -12.213
REMARK INTER:                 -11.182
REMARK INTRA:                  -1.031
REMARK UNBOUND:                -0.962
REMARK  11 active torsions:
REMARK  status: ('A' for Active; 'I' for Inactive)
REMARK    1  A    between atoms: O_2  and  C_16 
REMARK    2  A    between atoms: O_2  and  C_18 
REMARK    3  A    between atoms: O_3  and  C_12 
REMARK    4  A    between atoms: O_4  and  C_13 
REMARK    5  A    between atoms: O_5  and  C_14 
REMARK    6  A    between atoms: O_6  and  C_17 
REMARK    7  A    between atoms: O_8  and  C_23 
REMARK    8  A    between atoms: O_10  and  C_30 
REMARK    9  A    between atoms: O_11  and  C_32 
REMARK   10  A    between atoms: C_15  and  C_17 
REMARK   11  A    between atoms: C_25  and  C_27 
ROOT
HETATM    1  O   UNK     0      19.128  67.942  10.288  0.00  0.00    -0.348 OA
HETATM    2  C   UNK     0      18.001  68.944  12.732  0.00  0.00     0.183 C 
HETATM    3  C   UNK     0      17.186  68.133  11.724  0.00  0.00     0.180 C 
HETATM    4  C   UNK     0      19.216  69.593  12.066  0.00  0.00     0.205 C 
HETATM    5  C   UNK     0      18.091  67.193  10.924  0.00  0.00     0.179 C 
HETATM    6  C   UNK     0      19.993  68.583  11.223  0.00  0.00     0.298 C 
ENDROOT
BRANCH   5   7
HETATM    7  C   UNK     0      17.318  66.459   9.833  0.00  0.00     0.198 C 
BRANCH   7   8
HETATM    8  O   UNK     0      16.836  65.239  10.366  0.00  0.00    -0.398 OA
HETATM    9  H   UNK     0      16.369  65.442  11.194  0.00  0.00     0.209 HD
ENDBRANCH   7   8
ENDBRANCH   5   7
BRANCH   6  10
HETATM   10  O   UNK     0      21.019  69.288  10.526  0.00  0.00    -0.318 OA
BRANCH  10  11
HETATM   11  C   UNK     0      22.231  68.671  10.433  0.00  0.00     0.077 A 
HETATM   12  C   UNK     0      22.996  68.464  11.582  0.00  0.00     0.075 A 
HETATM   13  C   UNK     0      24.235  67.832  11.485  0.00  0.00     0.095 A 
HETATM   14  O   UNK     0      24.942  67.656  12.648  0.00  0.00    -0.309 OA
HETATM   15  C   UNK     0      24.707  67.410  10.242  0.00  0.00     0.081 A 
HETATM   16  C   UNK     0      26.175  67.026  12.582  0.00  0.00     0.090 A 
HETATM   17  C   UNK     0      26.737  66.581  11.448  0.00  0.00     0.094 A 
HETATM   18  C   UNK     0      26.019  66.748  10.169  0.00  0.00     0.190 A 
HETATM   19  O   UNK     0      26.494  66.356   9.112  0.00  0.00    -0.287 OA
HETATM   20  C   UNK     0      23.944  67.616   9.090  0.00  0.00     0.085 A 
HETATM   21  C   UNK     0      22.704  68.248   9.191  0.00  0.00     0.074 A 
BRANCH  16  22
HETATM   22  C   UNK     0      26.851  66.894  13.889  0.00  0.00     0.001 A 
HETATM   23  C   UNK     0      27.329  65.650  14.308  0.00  0.00     0.053 A 
HETATM   24  C   UNK     0      27.969  65.526  15.542  0.00  0.00     0.099 A 
HETATM   25  C   UNK     0      28.132  66.644  16.359  0.00  0.00     0.098 A 
HETATM   26  C   UNK     0      27.656  67.888  15.942  0.00  0.00     0.040 A 
HETATM   27  C   UNK     0      27.017  68.013  14.710  0.00  0.00     0.017 A 
BRANCH  24  28
HETATM   28  O   UNK     0      28.428  64.306  15.940  0.00  0.00    -0.358 OA
HETATM   29  H   UNK     0      27.663  63.726  16.090  0.00  0.00     0.217 HD
ENDBRANCH  24  28
BRANCH  25  30
HETATM   30  O   UNK     0      28.756  66.536  17.565  0.00  0.00    -0.358 OA
HETATM   31  H   UNK     0      28.111  66.709  18.272  0.00  0.00     0.217 HD
ENDBRANCH  25  30
ENDBRANCH  16  22
BRANCH  20  32
HETATM   32  O   UNK     0      24.361  67.222   7.855  0.00  0.00    -0.360 OA
HETATM   33  H   UNK     0      24.259  66.264   7.749  0.00  0.00     0.217 HD
ENDBRANCH  20  32
ENDBRANCH  10  11
ENDBRANCH   6  10
BRANCH   3  34
HETATM   34  O   UNK     0      16.207  67.365  12.420  0.00  0.00    -0.390 OA
HETATM   35  H   UNK     0      15.670  66.894  11.759  0.00  0.00     0.210 HD
ENDBRANCH   3  34
BRANCH   4  36
HETATM   36  O   UNK     0      20.090  70.103  13.073  0.00  0.00    -0.388 OA
HETATM   37  H   UNK     0      19.659  69.981  13.936  0.00  0.00     0.210 HD
ENDBRANCH   4  36
BRANCH   2  38
HETATM   38  O   UNK     0      17.154  69.961  13.270  0.00  0.00    -0.390 OA
HETATM   39  H   UNK     0      16.979  70.600  12.558  0.00  0.00     0.210 HD
ENDBRANCH   2  38
TORSDOF 11
ENDMDL
MODEL 7
REMARK VINA RESULT:    -7.814      3.568      9.909
REMARK INTER + INTRA:         -12.203
REMARK INTER:                 -12.246
REMARK INTRA:                   0.044
REMARK UNBOUND:                -0.962
REMARK  11 active torsions:
REMARK  status: ('A' for Active; 'I' for Inactive)
REMARK    1  A    between atoms: O_2  and  C_16 
REMARK    2  A    between atoms: O_2  and  C_18 
REMARK    3  A    between atoms: O_3  and  C_12 
REMARK    4  A    between atoms: O_4  and  C_13 
REMARK    5  A    between atoms: O_5  and  C_14 
REMARK    6  A    between atoms: O_6  and  C_17 
REMARK    7  A    between atoms: O_8  and  C_23 
REMARK    8  A    between atoms: O_10  and  C_30 
REMARK    9  A    between atoms: O_11  and  C_32 
REMARK   10  A    between atoms: C_15  and  C_17 
REMARK   11  A    between atoms: C_25  and  C_27 
ROOT
HETATM    1  O   UNK     0      -0.741  37.829  22.897  0.00  0.00    -0.348 OA
HETATM    2  C   UNK     0      -0.349  35.277  24.155  0.00  0.00     0.183 C 
HETATM    3  C   UNK     0      -1.403  36.275  24.634  0.00  0.00     0.180 C 
HETATM    4  C   UNK     0       0.760  35.979  23.368  0.00  0.00     0.205 C 
HETATM    5  C   UNK     0      -1.866  37.171  23.484  0.00  0.00     0.179 C 
HETATM    6  C   UNK     0       0.181  36.915  22.308  0.00  0.00     0.298 C 
ENDROOT
BRANCH   5   7
HETATM    7  C   UNK     0      -2.831  38.251  23.963  0.00  0.00     0.198 C 
BRANCH   7   8
HETATM    8  O   UNK     0      -4.104  37.661  24.159  0.00  0.00    -0.398 OA
HETATM    9  H   UNK     0      -4.749  38.381  24.271  0.00  0.00     0.209 HD
ENDBRANCH   7   8
ENDBRANCH   5   7
BRANCH   6  10
HETATM   10  O   UNK     0       1.264  37.635  21.719  0.00  0.00    -0.318 OA
BRANCH  10  11
HETATM   11  C   UNK     0       1.729  38.713  22.411  0.00  0.00     0.077 A 
HETATM   12  C   UNK     0       2.248  39.810  21.723  0.00  0.00     0.075 A 
HETATM   13  C   UNK     0       2.724  40.912  22.433  0.00  0.00     0.095 A 
HETATM   14  O   UNK     0       3.223  41.961  21.703  0.00  0.00    -0.309 OA
HETATM   15  C   UNK     0       2.680  40.915  23.827  0.00  0.00     0.081 A 
HETATM   16  C   UNK     0       3.697  43.072  22.382  0.00  0.00     0.090 A 
HETATM   17  C   UNK     0       3.714  43.191  23.719  0.00  0.00     0.094 A 
HETATM   18  C   UNK     0       3.190  42.090  24.551  0.00  0.00     0.190 A 
HETATM   19  O   UNK     0       3.184  42.158  25.772  0.00  0.00    -0.287 OA
HETATM   20  C   UNK     0       2.160  39.818  24.520  0.00  0.00     0.085 A 
HETATM   21  C   UNK     0       1.685  38.718  23.806  0.00  0.00     0.074 A 
BRANCH  16  22
HETATM   22  C   UNK     0       4.216  44.138  21.500  0.00  0.00     0.001 A 
HETATM   23  C   UNK     0       4.552  43.850  20.176  0.00  0.00     0.053 A 
HETATM   24  C   UNK     0       5.041  44.857  19.343  0.00  0.00     0.099 A 
HETATM   25  C   UNK     0       5.196  46.153  19.832  0.00  0.00     0.098 A 
HETATM   26  C   UNK     0       4.861  46.444  21.155  0.00  0.00     0.040 A 
HETATM   27  C   UNK     0       4.372  45.438  21.988  0.00  0.00     0.017 A 
BRANCH  24  28
HETATM   28  O   UNK     0       5.368  44.561  18.053  0.00  0.00    -0.358 OA
HETATM   29  H   UNK     0       6.092  45.148  17.779  0.00  0.00     0.217 HD
ENDBRANCH  24  28
BRANCH  25  30
HETATM   30  O   UNK     0       5.672  47.145  19.028  0.00  0.00    -0.358 OA
HETATM   31  H   UNK     0       5.835  47.938  19.567  0.00  0.00     0.217 HD
ENDBRANCH  25  30
ENDBRANCH  16  22
BRANCH  20  32
HETATM   32  O   UNK     0       2.096  39.774  25.879  0.00  0.00    -0.360 OA
HETATM   33  H   UNK     0       2.693  40.428  26.271  0.00  0.00     0.217 HD
ENDBRANCH  20  32
ENDBRANCH  10  11
ENDBRANCH   6  10
BRANCH   3  34
HETATM   34  O   UNK     0      -2.523  35.562  25.155  0.00  0.00    -0.390 OA
HETATM   35  H   UNK     0      -3.325  36.075  24.955  0.00  0.00     0.210 HD
ENDBRANCH   3  34
BRANCH   4  36
HETATM   36  O   UNK     0       1.566  35.001  22.711  0.00  0.00    -0.388 OA
HETATM   37  H   UNK     0       2.451  35.381  22.577  0.00  0.00     0.210 HD
ENDBRANCH   4  36
BRANCH   2  38
HETATM   38  O   UNK     0       0.214  34.641  25.304  0.00  0.00    -0.390 OA
HETATM   39  H   UNK     0       0.191  33.681  25.145  0.00  0.00     0.210 HD
ENDBRANCH   2  38
TORSDOF 11
ENDMDL
MODEL 8
REMARK VINA RESULT:    -7.793      3.656     10.256
REMARK INTER + INTRA:         -12.172
REMARK INTER:                 -11.419
REMARK INTRA:                  -0.753
REMARK UNBOUND:                -0.962
REMARK  11 active torsions:
REMARK  status: ('A' for Active; 'I' for Inactive)
REMARK    1  A    between atoms: O_2  and  C_16 
REMARK    2  A    between atoms: O_2  and  C_18 
REMARK    3  A    between atoms: O_3  and  C_12 
REMARK    4  A    between atoms: O_4  and  C_13 
REMARK    5  A    between atoms: O_5  and  C_14 
REMARK    6  A    between atoms: O_6  and  C_17 
REMARK    7  A    between atoms: O_8  and  C_23 
REMARK    8  A    between atoms: O_10  and  C_30 
REMARK    9  A    between atoms: O_11  and  C_32 
REMARK   10  A    between atoms: C_15  and  C_17 
REMARK   11  A    between atoms: C_25  and  C_27 
ROOT
HETATM    1  O   UNK     0      -0.475  37.573  26.073  0.00  0.00    -0.348 OA
HETATM    2  C   UNK     0      -2.558  36.708  24.294  0.00  0.00     0.183 C 
HETATM    3  C   UNK     0      -2.609  36.457  25.802  0.00  0.00     0.180 C 
HETATM    4  C   UNK     0      -1.122  36.938  23.820  0.00  0.00     0.205 C 
HETATM    5  C   UNK     0      -1.818  37.527  26.558  0.00  0.00     0.179 C 
HETATM    6  C   UNK     0      -0.401  37.958  24.701  0.00  0.00     0.298 C 
ENDROOT
BRANCH   5   7
HETATM    7  C   UNK     0      -1.758  37.232  28.053  0.00  0.00     0.198 C 
BRANCH   7   8
HETATM    8  O   UNK     0      -2.976  37.646  28.644  0.00  0.00    -0.398 OA
HETATM    9  H   UNK     0      -3.502  38.089  27.956  0.00  0.00     0.209 HD
ENDBRANCH   7   8
ENDBRANCH   5   7
BRANCH   6  10
HETATM   10  O   UNK     0       0.963  38.010  24.288  0.00  0.00    -0.318 OA
BRANCH  10  11
HETATM   11  C   UNK     0       1.638  39.165  24.554  0.00  0.00     0.077 A 
HETATM   12  C   UNK     0       2.102  39.957  23.503  0.00  0.00     0.075 A 
HETATM   13  C   UNK     0       2.792  41.137  23.777  0.00  0.00     0.095 A 
HETATM   14  O   UNK     0       3.225  41.874  22.703  0.00  0.00    -0.309 OA
HETATM   15  C   UNK     0       3.018  41.522  25.098  0.00  0.00     0.081 A 
HETATM   16  C   UNK     0       3.908  43.056  22.946  0.00  0.00     0.090 A 
HETATM   17  C   UNK     0       4.191  43.528  24.170  0.00  0.00     0.094 A 
HETATM   18  C   UNK     0       3.750  42.771  25.359  0.00  0.00     0.190 A 
HETATM   19  O   UNK     0       3.986  43.166  26.492  0.00  0.00    -0.287 OA
HETATM   20  C   UNK     0       2.555  40.731  26.153  0.00  0.00     0.085 A 
HETATM   21  C   UNK     0       1.864  39.551  25.875  0.00  0.00     0.074 A 
BRANCH  16  22
HETATM   22  C   UNK     0       4.332  43.766  21.721  0.00  0.00     0.001 A 
HETATM   23  C   UNK     0       4.604  43.048  20.554  0.00  0.00     0.053 A 
HETATM   24  C   UNK     0       5.002  43.720  19.398  0.00  0.00     0.099 A 
HETATM   25  C   UNK     0       5.131  45.108  19.406  0.00  0.00     0.098 A 
HETATM   26  C   UNK     0       4.859  45.826  20.570  0.00  0.00     0.040 A 
HETATM   27  C   UNK     0       4.461  45.157  21.726  0.00  0.00     0.017 A 
BRANCH  24  28
HETATM   28  O   UNK     0       5.267  43.007  18.266  0.00  0.00    -0.358 OA
HETATM   29  H   UNK     0       5.545  43.628  17.572  0.00  0.00     0.217 HD
ENDBRANCH  24  28
BRANCH  25  30
HETATM   30  O   UNK     0       5.519  45.774  18.283  0.00  0.00    -0.358 OA
HETATM   31  H   UNK     0       5.853  45.132  17.633  0.00  0.00     0.217 HD
ENDBRANCH  25  30
ENDBRANCH  16  22
BRANCH  20  32
HETATM   32  O   UNK     0       2.750  41.064  27.459  0.00  0.00    -0.360 OA
HETATM   33  H   UNK     0       3.373  40.451  27.878  0.00  0.00     0.217 HD
ENDBRANCH  20  32
ENDBRANCH  10  11
ENDBRANCH   6  10
BRANCH   3  34
HETATM   34  O   UNK     0      -3.966  36.479  26.237  0.00  0.00    -0.390 OA
HETATM   35  H   UNK     0      -3.995  36.140  27.148  0.00  0.00     0.210 HD
ENDBRANCH   3  34
BRANCH   4  36
HETATM   36  O   UNK     0      -1.139  37.435  22.482  0.00  0.00    -0.388 OA
HETATM   37  H   UNK     0      -0.945  36.694  21.883  0.00  0.00     0.210 HD
ENDBRANCH   4  36
BRANCH   2  38
HETATM   38  O   UNK     0      -3.098  35.561  23.636  0.00  0.00    -0.390 OA
HETATM   39  H   UNK     0      -3.843  35.241  24.174  0.00  0.00     0.210 HD
ENDBRANCH   2  38
TORSDOF 11
ENDMDL
MODEL 9
REMARK VINA RESULT:    -7.500     29.903     33.623
REMARK INTER + INTRA:         -11.750
REMARK INTER:                 -10.788
REMARK INTRA:                  -0.962
REMARK UNBOUND:                -0.962
REMARK  11 active torsions:
REMARK  status: ('A' for Active; 'I' for Inactive)
REMARK    1  A    between atoms: O_2  and  C_16 
REMARK    2  A    between atoms: O_2  and  C_18 
REMARK    3  A    between atoms: O_3  and  C_12 
REMARK    4  A    between atoms: O_4  and  C_13 
REMARK    5  A    between atoms: O_5  and  C_14 
REMARK    6  A    between atoms: O_6  and  C_17 
REMARK    7  A    between atoms: O_8  and  C_23 
REMARK    8  A    between atoms: O_10  and  C_30 
REMARK    9  A    between atoms: O_11  and  C_32 
REMARK   10  A    between atoms: C_15  and  C_17 
REMARK   11  A    between atoms: C_25  and  C_27 
ROOT
HETATM    1  O   UNK     0      28.073  65.090  15.228  0.00  0.00    -0.348 OA
HETATM    2  C   UNK     0      29.296  67.009  16.979  0.00  0.00     0.183 C 
HETATM    3  C   UNK     0      29.804  65.573  16.853  0.00  0.00     0.180 C 
HETATM    4  C   UNK     0      27.836  67.120  16.538  0.00  0.00     0.205 C 
HETATM    5  C   UNK     0      29.478  65.001  15.472  0.00  0.00     0.179 C 
HETATM    6  C   UNK     0      27.608  66.437  15.190  0.00  0.00     0.298 C 
ENDROOT
BRANCH   5   7
HETATM    7  C   UNK     0      29.871  63.531  15.363  0.00  0.00     0.198 C 
BRANCH   7   8
HETATM    8  O   UNK     0      29.629  62.906  16.610  0.00  0.00    -0.398 OA
HETATM    9  H   UNK     0      29.850  61.964  16.516  0.00  0.00     0.209 HD
ENDBRANCH   7   8
ENDBRANCH   5   7
BRANCH   6  10
HETATM   10  O   UNK     0      26.208  66.457  14.917  0.00  0.00    -0.318 OA
BRANCH  10  11
HETATM   11  C   UNK     0      25.820  67.055  13.755  0.00  0.00     0.077 A 
HETATM   12  C   UNK     0      24.564  66.775  13.214  0.00  0.00     0.075 A 
HETATM   13  C   UNK     0      24.170  67.387  12.025  0.00  0.00     0.095 A 
HETATM   14  O   UNK     0      22.924  67.074  11.542  0.00  0.00    -0.309 OA
HETATM   15  C   UNK     0      25.030  68.274  11.378  0.00  0.00     0.081 A 
HETATM   16  C   UNK     0      22.503  67.671  10.364  0.00  0.00     0.090 A 
HETATM   17  C   UNK     0      23.241  68.535   9.649  0.00  0.00     0.094 A 
HETATM   18  C   UNK     0      24.589  68.903  10.124  0.00  0.00     0.190 A 
HETATM   19  O   UNK     0      25.293  69.688   9.504  0.00  0.00    -0.287 OA
HETATM   20  C   UNK     0      26.288  68.556  11.916  0.00  0.00     0.085 A 
HETATM   21  C   UNK     0      26.679  67.942  13.107  0.00  0.00     0.074 A 
BRANCH  16  22
HETATM   22  C   UNK     0      21.151  67.260   9.932  0.00  0.00     0.001 A 
HETATM   23  C   UNK     0      20.768  65.919  10.013  0.00  0.00     0.053 A 
HETATM   24  C   UNK     0      19.491  65.531   9.606  0.00  0.00     0.099 A 
HETATM   25  C   UNK     0      18.595  66.481   9.118  0.00  0.00     0.098 A 
HETATM   26  C   UNK     0      18.975  67.821   9.037  0.00  0.00     0.040 A 
HETATM   27  C   UNK     0      20.251  68.210   9.443  0.00  0.00     0.017 A 
BRANCH  24  28
HETATM   28  O   UNK     0      19.131  64.219   9.687  0.00  0.00    -0.358 OA
HETATM   29  H   UNK     0      18.412  64.139  10.336  0.00  0.00     0.217 HD
ENDBRANCH  24  28
BRANCH  25  30
HETATM   30  O   UNK     0      17.346  66.114   8.719  0.00  0.00    -0.358 OA
HETATM   31  H   UNK     0      16.892  66.890   8.345  0.00  0.00     0.217 HD
ENDBRANCH  25  30
ENDBRANCH  16  22
BRANCH  20  32
HETATM   32  O   UNK     0      27.163  69.414  11.323  0.00  0.00    -0.360 OA
HETATM   33  H   UNK     0      26.955  70.331  11.559  0.00  0.00     0.217 HD
ENDBRANCH  20  32
ENDBRANCH  10  11
ENDBRANCH   6  10
BRANCH   3  34
HETATM   34  O   UNK     0      31.217  65.555  17.048  0.00  0.00    -0.390 OA
HETATM   35  H   UNK     0      31.387  65.575  18.006  0.00  0.00     0.210 HD
ENDBRANCH   3  34
BRANCH   4  36
HETATM   36  O   UNK     0      27.484  68.497  16.408  0.00  0.00    -0.388 OA
HETATM   37  H   UNK     0      26.804  68.699  17.074  0.00  0.00     0.210 HD
ENDBRANCH   4  36
BRANCH   2  38
HETATM   38  O   UNK     0      29.410  67.401  18.348  0.00  0.00    -0.390 OA
HETATM   39  H   UNK     0      28.508  67.489  18.701  0.00  0.00     0.210 HD
ENDBRANCH   2  38
TORSDOF 11
ENDMDL
