MODEL 1
REMARK VINA RESULT:      -7.5      0.000      0.000
REMARK  6 active torsions:
REMARK  status: ('A' for Active; 'I' for Inactive)
REMARK    1  A    between atoms: O_2  and  C_9 
REMARK    2  A    between atoms: O_4  and  C_14 
REMARK    3  A    between atoms: O_5  and  C_19 
REMARK    4  A    between atoms: O_6  and  C_20 
REMARK    5  A    between atoms: O_7  and  C_22 
REMARK    6  A    between atoms: C_8  and  C_10 
ROOT
HETATM    1  O   UNK     0      22.758  36.871  22.593  0.00  0.00    -0.337 OA
HETATM    2  O   UNK     0      21.963  32.975  23.607  0.00  0.00    -0.289 OA
HETATM    3  C   UNK     0      23.816  35.953  22.909  0.00  0.00     0.198 C 
HETATM    4  C   UNK     0      23.449  34.525  22.504  0.00  0.00     0.227 C 
HETATM    5  C   UNK     0      22.188  34.121  23.235  0.00  0.00     0.196 C 
HETATM    6  C   UNK     0      21.202  35.199  23.449  0.00  0.00     0.079 A 
HETATM    7  C   UNK     0      21.539  36.509  23.100  0.00  0.00     0.089 A 
HETATM    8  C   UNK     0      19.937  34.908  23.965  0.00  0.00     0.085 A 
HETATM    9  C   UNK     0      20.593  37.526  23.237  0.00  0.00     0.074 A 
HETATM   10  C   UNK     0      19.003  35.932  24.118  0.00  0.00     0.074 A 
HETATM   11  C   UNK     0      19.327  37.238  23.750  0.00  0.00     0.071 A 
ENDROOT
BRANCH   3  12
HETATM   12  C   UNK     0      25.062  36.439  22.193  0.00  0.00    -0.023 A 
HETATM   13  C   UNK     0      26.145  36.912  22.929  0.00  0.00     0.049 A 
HETATM   14  C   UNK     0      27.292  37.359  22.271  0.00  0.00     0.099 A 
HETATM   15  C   UNK     0      27.350  37.333  20.878  0.00  0.00     0.098 A 
HETATM   16  C   UNK     0      26.264  36.858  20.142  0.00  0.00     0.040 A 
HETATM   17  C   UNK     0      25.119  36.411  20.801  0.00  0.00     0.013 A 
BRANCH  14  18
HETATM   18  O   UNK     0      28.346  37.820  23.000  0.00  0.00    -0.358 OA
HETATM   19  H   UNK     0      28.556  38.721  22.698  0.00  0.00     0.217 HD
ENDBRANCH  14  18
BRANCH  15  20
HETATM   20  O   UNK     0      28.464  37.766  20.224  0.00  0.00    -0.358 OA
HETATM   21  H   UNK     0      28.230  38.533  19.674  0.00  0.00     0.217 HD
ENDBRANCH  15  20
ENDBRANCH   3  12
BRANCH   4  22
HETATM   22  O   UNK     0      24.482  33.629  22.880  0.00  0.00    -0.385 OA
HETATM   23  H   UNK     0      25.214  33.745  22.250  0.00  0.00     0.210 HD
ENDBRANCH   4  22
BRANCH   8  24
HETATM   24  O   UNK     0      19.559  33.649  24.324  0.00  0.00    -0.360 OA
HETATM   25  H   UNK     0      19.945  32.992  23.726  0.00  0.00     0.217 HD
ENDBRANCH   8  24
BRANCH  11  26
HETATM   26  O   UNK     0      18.410  38.233  23.893  0.00  0.00    -0.361 OA
HETATM   27  H   UNK     0      18.758  38.897  24.512  0.00  0.00     0.217 HD
ENDBRANCH  11  26
TORSDOF 6
ENDMDL
MODEL 2
REMARK VINA RESULT:      -7.3     20.275     22.376
REMARK  6 active torsions:
REMARK  status: ('A' for Active; 'I' for Inactive)
REMARK    1  A    between atoms: O_2  and  C_9 
REMARK    2  A    between atoms: O_4  and  C_14 
REMARK    3  A    between atoms: O_5  and  C_19 
REMARK    4  A    between atoms: O_6  and  C_20 
REMARK    5  A    between atoms: O_7  and  C_22 
REMARK    6  A    between atoms: C_8  and  C_10 
ROOT
HETATM    1  O   UNK     0       3.697  39.884  12.248  0.00  0.00    -0.337 OA
HETATM    2  O   UNK     0       6.640  37.651  10.460  0.00  0.00    -0.289 OA
HETATM    3  C   UNK     0       4.324  38.791  12.936  0.00  0.00     0.198 C 
HETATM    4  C   UNK     0       5.779  38.621  12.496  0.00  0.00     0.227 C 
HETATM    5  C   UNK     0       5.810  38.371  11.004  0.00  0.00     0.196 C 
HETATM    6  C   UNK     0       4.786  39.085  10.217  0.00  0.00     0.079 A 
HETATM    7  C   UNK     0       3.799  39.814  10.885  0.00  0.00     0.089 A 
HETATM    8  C   UNK     0       4.821  39.058   8.820  0.00  0.00     0.085 A 
HETATM    9  C   UNK     0       2.865  40.546  10.151  0.00  0.00     0.074 A 
HETATM   10  C   UNK     0       3.873  39.776   8.093  0.00  0.00     0.074 A 
HETATM   11  C   UNK     0       2.899  40.523   8.756  0.00  0.00     0.071 A 
ENDROOT
BRANCH   3  12
HETATM   12  C   UNK     0       4.215  39.072  14.422  0.00  0.00    -0.023 A 
HETATM   13  C   UNK     0       4.633  40.301  14.928  0.00  0.00     0.049 A 
HETATM   14  C   UNK     0       4.533  40.561  16.295  0.00  0.00     0.099 A 
HETATM   15  C   UNK     0       4.016  39.591  17.153  0.00  0.00     0.098 A 
HETATM   16  C   UNK     0       3.597  38.361  16.644  0.00  0.00     0.040 A 
HETATM   17  C   UNK     0       3.697  38.102  15.278  0.00  0.00     0.013 A 
BRANCH  14  18
HETATM   18  O   UNK     0       4.944  41.765  16.781  0.00  0.00    -0.358 OA
HETATM   19  H   UNK     0       4.453  41.949  17.600  0.00  0.00     0.217 HD
ENDBRANCH  14  18
BRANCH  15  20
HETATM   20  O   UNK     0       3.911  39.833  18.490  0.00  0.00    -0.358 OA
HETATM   21  H   UNK     0       3.005  40.125  18.689  0.00  0.00     0.217 HD
ENDBRANCH  15  20
ENDBRANCH   3  12
BRANCH   4  22
HETATM   22  O   UNK     0       6.358  37.500  13.143  0.00  0.00    -0.385 OA
HETATM   23  H   UNK     0       7.323  37.615  13.123  0.00  0.00     0.210 HD
ENDBRANCH   4  22
BRANCH   8  24
HETATM   24  O   UNK     0       5.760  38.361   8.120  0.00  0.00    -0.360 OA
HETATM   25  H   UNK     0       5.960  38.804   7.282  0.00  0.00     0.217 HD
ENDBRANCH   8  24
BRANCH  11  26
HETATM   26  O   UNK     0       1.981  41.230   8.042  0.00  0.00    -0.361 OA
HETATM   27  H   UNK     0       2.075  42.175   8.253  0.00  0.00     0.217 HD
ENDBRANCH  11  26
TORSDOF 6
ENDMDL
MODEL 3
REMARK VINA RESULT:      -7.2     15.907     19.378
REMARK  6 active torsions:
REMARK  status: ('A' for Active; 'I' for Inactive)
REMARK    1  A    between atoms: O_2  and  C_9 
REMARK    2  A    between atoms: O_4  and  C_14 
REMARK    3  A    between atoms: O_5  and  C_19 
REMARK    4  A    between atoms: O_6  and  C_20 
REMARK    5  A    between atoms: O_7  and  C_22 
REMARK    6  A    between atoms: C_8  and  C_10 
ROOT
HETATM    1  O   UNK     0      14.131  21.107  21.367  0.00  0.00    -0.337 OA
HETATM    2  O   UNK     0      13.843  20.425  25.404  0.00  0.00    -0.289 OA
HETATM    3  C   UNK     0      13.459  19.946  21.881  0.00  0.00     0.198 C 
HETATM    4  C   UNK     0      12.806  20.236  23.232  0.00  0.00     0.227 C 
HETATM    5  C   UNK     0      13.877  20.679  24.205  0.00  0.00     0.196 C 
HETATM    6  C   UNK     0      14.971  21.482  23.626  0.00  0.00     0.079 A 
HETATM    7  C   UNK     0      15.025  21.663  22.242  0.00  0.00     0.089 A 
HETATM    8  C   UNK     0      15.925  22.080  24.455  0.00  0.00     0.085 A 
HETATM    9  C   UNK     0      16.018  22.474  21.689  0.00  0.00     0.074 A 
HETATM   10  C   UNK     0      16.925  22.873  23.894  0.00  0.00     0.074 A 
HETATM   11  C   UNK     0      16.969  23.074  22.514  0.00  0.00     0.071 A 
ENDROOT
BRANCH   3  12
HETATM   12  C   UNK     0      12.439  19.521  20.842  0.00  0.00    -0.023 A 
HETATM   13  C   UNK     0      11.889  18.242  20.893  0.00  0.00     0.049 A 
HETATM   14  C   UNK     0      10.951  17.849  19.937  0.00  0.00     0.099 A 
HETATM   15  C   UNK     0      10.566  18.738  18.934  0.00  0.00     0.098 A 
HETATM   16  C   UNK     0      11.117  20.019  18.885  0.00  0.00     0.040 A 
HETATM   17  C   UNK     0      12.055  20.410  19.840  0.00  0.00     0.013 A 
BRANCH  14  18
HETATM   18  O   UNK     0      10.419  16.598  19.995  0.00  0.00    -0.358 OA
HETATM   19  H   UNK     0       9.452  16.679  20.068  0.00  0.00     0.217 HD
ENDBRANCH  14  18
BRANCH  15  20
HETATM   20  O   UNK     0       9.649  18.367  17.995  0.00  0.00    -0.358 OA
HETATM   21  H   UNK     0       8.763  18.633  18.296  0.00  0.00     0.217 HD
ENDBRANCH  15  20
ENDBRANCH   3  12
BRANCH   4  22
HETATM   22  O   UNK     0      12.201  19.061  23.746  0.00  0.00    -0.385 OA
HETATM   23  H   UNK     0      12.368  18.344  23.111  0.00  0.00     0.210 HD
ENDBRANCH   4  22
BRANCH   8  24
HETATM   24  O   UNK     0      15.920  21.933  25.809  0.00  0.00    -0.360 OA
HETATM   25  H   UNK     0      15.286  22.541  26.217  0.00  0.00     0.217 HD
ENDBRANCH   8  24
BRANCH  11  26
HETATM   26  O   UNK     0      17.943  23.856  21.972  0.00  0.00    -0.361 OA
HETATM   27  H   UNK     0      18.473  24.243  22.689  0.00  0.00     0.217 HD
ENDBRANCH  11  26
TORSDOF 6
ENDMDL
MODEL 4
REMARK VINA RESULT:      -7.1      3.025      6.755
REMARK  6 active torsions:
REMARK  status: ('A' for Active; 'I' for Inactive)
REMARK    1  A    between atoms: O_2  and  C_9 
REMARK    2  A    between atoms: O_4  and  C_14 
REMARK    3  A    between atoms: O_5  and  C_19 
REMARK    4  A    between atoms: O_6  and  C_20 
REMARK    5  A    between atoms: O_7  and  C_22 
REMARK    6  A    between atoms: C_8  and  C_10 
ROOT
HETATM    1  O   UNK     0      22.254  33.503  22.974  0.00  0.00    -0.337 OA
HETATM    2  O   UNK     0      19.452  35.900  24.775  0.00  0.00    -0.289 OA
HETATM    3  C   UNK     0      21.264  32.956  23.859  0.00  0.00     0.198 C 
HETATM    4  C   UNK     0      19.961  33.754  23.794  0.00  0.00     0.227 C 
HETATM    5  C   UNK     0      20.250  35.190  24.176  0.00  0.00     0.196 C 
HETATM    6  C   UNK     0      21.562  35.711  23.745  0.00  0.00     0.079 A 
HETATM    7  C   UNK     0      22.481  34.841  23.154  0.00  0.00     0.089 A 
HETATM    8  C   UNK     0      21.870  37.066  23.899  0.00  0.00     0.085 A 
HETATM    9  C   UNK     0      23.699  35.336  22.684  0.00  0.00     0.074 A 
HETATM   10  C   UNK     0      23.096  37.550  23.445  0.00  0.00     0.074 A 
HETATM   11  C   UNK     0      24.008  36.689  22.834  0.00  0.00     0.071 A 
ENDROOT
BRANCH   3  12
HETATM   12  C   UNK     0      21.057  31.507  23.461  0.00  0.00    -0.023 A 
HETATM   13  C   UNK     0      22.139  30.629  23.452  0.00  0.00     0.049 A 
HETATM   14  C   UNK     0      21.949  29.296  23.087  0.00  0.00     0.099 A 
HETATM   15  C   UNK     0      20.679  28.845  22.730  0.00  0.00     0.098 A 
HETATM   16  C   UNK     0      19.597  29.726  22.741  0.00  0.00     0.040 A 
HETATM   17  C   UNK     0      19.787  31.058  23.106  0.00  0.00     0.013 A 
BRANCH  14  18
HETATM   18  O   UNK     0      23.012  28.445  23.081  0.00  0.00    -0.358 OA
HETATM   19  H   UNK     0      23.748  28.871  23.555  0.00  0.00     0.217 HD
ENDBRANCH  14  18
BRANCH  15  20
HETATM   20  O   UNK     0      20.480  27.545  22.372  0.00  0.00    -0.358 OA
HETATM   21  H   UNK     0      20.615  26.978  23.152  0.00  0.00     0.217 HD
ENDBRANCH  15  20
ENDBRANCH   3  12
BRANCH   4  22
HETATM   22  O   UNK     0      19.022  33.233  24.718  0.00  0.00    -0.385 OA
HETATM   23  H   UNK     0      18.390  33.942  24.926  0.00  0.00     0.210 HD
ENDBRANCH   4  22
BRANCH   8  24
HETATM   24  O   UNK     0      21.012  37.956  24.471  0.00  0.00    -0.360 OA
HETATM   25  H   UNK     0      21.479  38.765  24.729  0.00  0.00     0.217 HD
ENDBRANCH   8  24
BRANCH  11  26
HETATM   26  O   UNK     0      25.200  37.167  22.385  0.00  0.00    -0.361 OA
HETATM   27  H   UNK     0      25.797  36.418  22.214  0.00  0.00     0.217 HD
ENDBRANCH  11  26
TORSDOF 6
ENDMDL
MODEL 5
REMARK VINA RESULT:      -7.0     12.703     14.249
REMARK  6 active torsions:
REMARK  status: ('A' for Active; 'I' for Inactive)
REMARK    1  A    between atoms: O_2  and  C_9 
REMARK    2  A    between atoms: O_4  and  C_14 
REMARK    3  A    between atoms: O_5  and  C_19 
REMARK    4  A    between atoms: O_6  and  C_20 
REMARK    5  A    between atoms: O_7  and  C_22 
REMARK    6  A    between atoms: C_8  and  C_10 
ROOT
HETATM    1  O   UNK     0      18.211  45.417  13.269  0.00  0.00    -0.337 OA
HETATM    2  O   UNK     0      19.852  43.097  16.231  0.00  0.00    -0.289 OA
HETATM    3  C   UNK     0      18.977  44.242  12.958  0.00  0.00     0.198 C 
HETATM    4  C   UNK     0      18.828  43.179  14.046  0.00  0.00     0.227 C 
HETATM    5  C   UNK     0      19.298  43.760  15.362  0.00  0.00     0.196 C 
HETATM    6  C   UNK     0      19.012  45.194  15.563  0.00  0.00     0.079 A 
HETATM    7  C   UNK     0      18.470  45.935  14.510  0.00  0.00     0.089 A 
HETATM    8  C   UNK     0      19.253  45.797  16.800  0.00  0.00     0.085 A 
HETATM    9  C   UNK     0      18.136  47.276  14.708  0.00  0.00     0.074 A 
HETATM   10  C   UNK     0      18.935  47.142  16.985  0.00  0.00     0.074 A 
HETATM   11  C   UNK     0      18.373  47.880  15.944  0.00  0.00     0.071 A 
ENDROOT
BRANCH   3  12
HETATM   12  C   UNK     0      18.499  43.739  11.610  0.00  0.00    -0.023 A 
HETATM   13  C   UNK     0      17.542  42.728  11.546  0.00  0.00     0.049 A 
HETATM   14  C   UNK     0      17.101  42.264  10.306  0.00  0.00     0.099 A 
HETATM   15  C   UNK     0      17.621  42.811   9.133  0.00  0.00     0.098 A 
HETATM   16  C   UNK     0      18.579  43.823   9.199  0.00  0.00     0.040 A 
HETATM   17  C   UNK     0      19.018  44.287  10.438  0.00  0.00     0.013 A 
BRANCH  14  18
HETATM   18  O   UNK     0      16.165  41.277  10.254  0.00  0.00    -0.358 OA
HETATM   19  H   UNK     0      16.593  40.466   9.927  0.00  0.00     0.217 HD
ENDBRANCH  14  18
BRANCH  15  20
HETATM   20  O   UNK     0      17.198  42.367   7.916  0.00  0.00    -0.358 OA
HETATM   21  H   UNK     0      16.458  42.924   7.615  0.00  0.00     0.217 HD
ENDBRANCH  15  20
ENDBRANCH   3  12
BRANCH   4  22
HETATM   22  O   UNK     0      19.639  42.055  13.746  0.00  0.00    -0.385 OA
HETATM   23  H   UNK     0      20.292  41.965  14.461  0.00  0.00     0.210 HD
ENDBRANCH   4  22
BRANCH   8  24
HETATM   24  O   UNK     0      19.783  45.122  17.858  0.00  0.00    -0.360 OA
HETATM   25  H   UNK     0      20.734  44.982  17.734  0.00  0.00     0.217 HD
ENDBRANCH   8  24
BRANCH  11  26
HETATM   26  O   UNK     0      18.057  49.190  16.131  0.00  0.00    -0.361 OA
HETATM   27  H   UNK     0      18.782  49.625  16.613  0.00  0.00     0.217 HD
ENDBRANCH  11  26
TORSDOF 6
ENDMDL
MODEL 6
REMARK VINA RESULT:      -7.0      9.743     11.294
REMARK  6 active torsions:
REMARK  status: ('A' for Active; 'I' for Inactive)
REMARK    1  A    between atoms: O_2  and  C_9 
REMARK    2  A    between atoms: O_4  and  C_14 
REMARK    3  A    between atoms: O_5  and  C_19 
REMARK    4  A    between atoms: O_6  and  C_20 
REMARK    5  A    between atoms: O_7  and  C_22 
REMARK    6  A    between atoms: C_8  and  C_10 
ROOT
HETATM    1  O   UNK     0      20.255  45.436  17.747  0.00  0.00    -0.337 OA
HETATM    2  O   UNK     0      19.860  43.352  14.233  0.00  0.00    -0.289 OA
HETATM    3  C   UNK     0      20.361  44.004  17.714  0.00  0.00     0.198 C 
HETATM    4  C   UNK     0      20.942  43.522  16.384  0.00  0.00     0.227 C 
HETATM    5  C   UNK     0      20.045  43.994  15.261  0.00  0.00     0.196 C 
HETATM    6  C   UNK     0      19.418  45.315  15.459  0.00  0.00     0.079 A 
HETATM    7  C   UNK     0      19.573  45.967  16.685  0.00  0.00     0.089 A 
HETATM    8  C   UNK     0      18.703  45.921  14.422  0.00  0.00     0.085 A 
HETATM    9  C   UNK     0      19.040  47.245  16.861  0.00  0.00     0.074 A 
HETATM   10  C   UNK     0      18.156  47.190  14.612  0.00  0.00     0.074 A 
HETATM   11  C   UNK     0      18.328  47.853  15.827  0.00  0.00     0.071 A 
ENDROOT
BRANCH   3  12
HETATM   12  C   UNK     0      21.225  43.590  18.889  0.00  0.00    -0.023 A 
HETATM   13  C   UNK     0      21.147  42.290  19.383  0.00  0.00     0.049 A 
HETATM   14  C   UNK     0      21.942  41.908  20.465  0.00  0.00     0.099 A 
HETATM   15  C   UNK     0      22.811  42.828  21.050  0.00  0.00     0.098 A 
HETATM   16  C   UNK     0      22.887  44.130  20.553  0.00  0.00     0.040 A 
HETATM   17  C   UNK     0      22.093  44.511  19.473  0.00  0.00     0.013 A 
BRANCH  14  18
HETATM   18  O   UNK     0      21.860  40.634  20.940  0.00  0.00    -0.358 OA
HETATM   19  H   UNK     0      21.742  40.675  21.905  0.00  0.00     0.217 HD
ENDBRANCH  14  18
BRANCH  15  20
HETATM   20  O   UNK     0      23.593  42.467  22.106  0.00  0.00    -0.358 OA
HETATM   21  H   UNK     0      24.517  42.699  21.909  0.00  0.00     0.217 HD
ENDBRANCH  15  20
ENDBRANCH   3  12
BRANCH   4  22
HETATM   22  O   UNK     0      20.981  42.105  16.353  0.00  0.00    -0.385 OA
HETATM   23  H   UNK     0      21.873  41.843  16.068  0.00  0.00     0.210 HD
ENDBRANCH   4  22
BRANCH   8  24
HETATM   24  O   UNK     0      18.519  45.328  13.209  0.00  0.00    -0.360 OA
HETATM   25  H   UNK     0      17.582  45.339  12.962  0.00  0.00     0.217 HD
ENDBRANCH   8  24
BRANCH  11  26
HETATM   26  O   UNK     0      17.799  49.095  16.004  0.00  0.00    -0.361 OA
HETATM   27  H   UNK     0      17.519  49.189  16.931  0.00  0.00     0.217 HD
ENDBRANCH  11  26
TORSDOF 6
ENDMDL
MODEL 7
REMARK VINA RESULT:      -7.0      3.262      6.082
REMARK  6 active torsions:
REMARK  status: ('A' for Active; 'I' for Inactive)
REMARK    1  A    between atoms: O_2  and  C_9 
REMARK    2  A    between atoms: O_4  and  C_14 
REMARK    3  A    between atoms: O_5  and  C_19 
REMARK    4  A    between atoms: O_6  and  C_20 
REMARK    5  A    between atoms: O_7  and  C_22 
REMARK    6  A    between atoms: C_8  and  C_10 
ROOT
HETATM    1  O   UNK     0      19.870  33.668  23.684  0.00  0.00    -0.337 OA
HETATM    2  O   UNK     0      23.041  36.189  23.028  0.00  0.00    -0.289 OA
HETATM    3  C   UNK     0      20.924  33.318  22.775  0.00  0.00     0.198 C 
HETATM    4  C   UNK     0      22.261  33.913  23.220  0.00  0.00     0.227 C 
HETATM    5  C   UNK     0      22.124  35.418  23.287  0.00  0.00     0.196 C 
HETATM    6  C   UNK     0      20.808  35.919  23.728  0.00  0.00     0.079 A 
HETATM    7  C   UNK     0      19.762  35.013  23.917  0.00  0.00     0.089 A 
HETATM    8  C   UNK     0      20.618  37.280  23.983  0.00  0.00     0.085 A 
HETATM    9  C   UNK     0      18.531  35.467  24.396  0.00  0.00     0.074 A 
HETATM   10  C   UNK     0      19.380  37.730  24.442  0.00  0.00     0.074 A 
HETATM   11  C   UNK     0      18.340  36.825  24.654  0.00  0.00     0.071 A 
ENDROOT
BRANCH   3  12
HETATM   12  C   UNK     0      20.977  31.803  22.709  0.00  0.00    -0.023 A 
HETATM   13  C   UNK     0      21.990  31.115  23.373  0.00  0.00     0.049 A 
HETATM   14  C   UNK     0      22.039  29.722  23.314  0.00  0.00     0.099 A 
HETATM   15  C   UNK     0      21.075  29.021  22.589  0.00  0.00     0.098 A 
HETATM   16  C   UNK     0      20.061  29.712  21.926  0.00  0.00     0.040 A 
HETATM   17  C   UNK     0      20.012  31.105  21.985  0.00  0.00     0.013 A 
BRANCH  14  18
HETATM   18  O   UNK     0      23.032  29.057  23.966  0.00  0.00    -0.358 OA
HETATM   19  H   UNK     0      22.973  28.114  23.735  0.00  0.00     0.217 HD
ENDBRANCH  14  18
BRANCH  15  20
HETATM   20  O   UNK     0      21.111  27.660  22.524  0.00  0.00    -0.358 OA
HETATM   21  H   UNK     0      22.022  27.360  22.685  0.00  0.00     0.217 HD
ENDBRANCH  15  20
ENDBRANCH   3  12
BRANCH   4  22
HETATM   22  O   UNK     0      23.272  33.604  22.276  0.00  0.00    -0.385 OA
HETATM   23  H   UNK     0      23.985  33.143  22.750  0.00  0.00     0.210 HD
ENDBRANCH   4  22
BRANCH   8  24
HETATM   24  O   UNK     0      21.603  38.206  23.812  0.00  0.00    -0.360 OA
HETATM   25  H   UNK     0      22.093  38.037  22.994  0.00  0.00     0.217 HD
ENDBRANCH   8  24
BRANCH  11  26
HETATM   26  O   UNK     0      17.136  37.267  25.110  0.00  0.00    -0.361 OA
HETATM   27  H   UNK     0      17.093  38.233  25.004  0.00  0.00     0.217 HD
ENDBRANCH  11  26
TORSDOF 6
ENDMDL
MODEL 8
REMARK VINA RESULT:      -6.9     20.883     22.725
REMARK  6 active torsions:
REMARK  status: ('A' for Active; 'I' for Inactive)
REMARK    1  A    between atoms: O_2  and  C_9 
REMARK    2  A    between atoms: O_4  and  C_14 
REMARK    3  A    between atoms: O_5  and  C_19 
REMARK    4  A    between atoms: O_6  and  C_20 
REMARK    5  A    between atoms: O_7  and  C_22 
REMARK    6  A    between atoms: C_8  and  C_10 
ROOT
HETATM    1  O   UNK     0       3.490  38.469  13.119  0.00  0.00    -0.337 OA
HETATM    2  O   UNK     0       4.466  41.726  15.417  0.00  0.00    -0.289 OA
HETATM    3  C   UNK     0       3.383  39.805  12.602  0.00  0.00     0.198 C 
HETATM    4  C   UNK     0       4.436  40.725  13.221  0.00  0.00     0.227 C 
HETATM    5  C   UNK     0       4.245  40.741  14.722  0.00  0.00     0.196 C 
HETATM    6  C   UNK     0       3.805  39.467  15.322  0.00  0.00     0.079 A 
HETATM    7  C   UNK     0       3.468  38.400  14.486  0.00  0.00     0.089 A 
HETATM    8  C   UNK     0       3.753  39.320  16.711  0.00  0.00     0.085 A 
HETATM    9  C   UNK     0       3.112  37.170  15.043  0.00  0.00     0.074 A 
HETATM   10  C   UNK     0       3.378  38.095  17.261  0.00  0.00     0.074 A 
HETATM   11  C   UNK     0       3.063  37.020  16.429  0.00  0.00     0.071 A 
ENDROOT
BRANCH   3  12
HETATM   12  C   UNK     0       3.528  39.716  11.095  0.00  0.00    -0.023 A 
HETATM   13  C   UNK     0       2.708  40.485  10.272  0.00  0.00     0.049 A 
HETATM   14  C   UNK     0       2.841  40.404   8.885  0.00  0.00     0.099 A 
HETATM   15  C   UNK     0       3.794  39.554   8.326  0.00  0.00     0.098 A 
HETATM   16  C   UNK     0       4.615  38.785   9.151  0.00  0.00     0.040 A 
HETATM   17  C   UNK     0       4.481  38.866  10.537  0.00  0.00     0.013 A 
BRANCH  14  18
HETATM   18  O   UNK     0       2.035  41.160   8.090  0.00  0.00    -0.358 OA
HETATM   19  H   UNK     0       2.226  40.938   7.162  0.00  0.00     0.217 HD
ENDBRANCH  14  18
BRANCH  15  20
HETATM   20  O   UNK     0       3.935  39.467   6.973  0.00  0.00    -0.358 OA
HETATM   21  H   UNK     0       4.554  40.156   6.674  0.00  0.00     0.217 HD
ENDBRANCH  15  20
ENDBRANCH   3  12
BRANCH   4  22
HETATM   22  O   UNK     0       4.272  42.048  12.740  0.00  0.00    -0.385 OA
HETATM   23  H   UNK     0       3.721  42.527  13.383  0.00  0.00     0.210 HD
ENDBRANCH   4  22
BRANCH   8  24
HETATM   24  O   UNK     0       4.067  40.329  17.571  0.00  0.00    -0.360 OA
HETATM   25  H   UNK     0       3.424  41.050  17.502  0.00  0.00     0.217 HD
ENDBRANCH   8  24
BRANCH  11  26
HETATM   26  O   UNK     0       2.705  35.823  16.971  0.00  0.00    -0.361 OA
HETATM   27  H   UNK     0       1.848  35.923  17.421  0.00  0.00     0.217 HD
ENDBRANCH  11  26
TORSDOF 6
ENDMDL
MODEL 9
REMARK VINA RESULT:      -6.9     18.387     21.378
REMARK  6 active torsions:
REMARK  status: ('A' for Active; 'I' for Inactive)
REMARK    1  A    between atoms: O_2  and  C_9 
REMARK    2  A    between atoms: O_4  and  C_14 
REMARK    3  A    between atoms: O_5  and  C_19 
REMARK    4  A    between atoms: O_6  and  C_20 
REMARK    5  A    between atoms: O_7  and  C_22 
REMARK    6  A    between atoms: C_8  and  C_10 
ROOT
HETATM    1  O   UNK     0       5.815  38.480  10.856  0.00  0.00    -0.337 OA
HETATM    2  O   UNK     0       3.298  40.989  12.909  0.00  0.00    -0.289 OA
HETATM    3  C   UNK     0       6.229  39.118  12.074  0.00  0.00     0.198 C 
HETATM    4  C   UNK     0       5.047  39.329  13.020  0.00  0.00     0.227 C 
HETATM    5  C   UNK     0       4.011  40.183  12.323  0.00  0.00     0.196 C 
HETATM    6  C   UNK     0       3.879  39.963  10.869  0.00  0.00     0.079 A 
HETATM    7  C   UNK     0       4.778  39.112  10.224  0.00  0.00     0.089 A 
HETATM    8  C   UNK     0       2.848  40.576  10.152  0.00  0.00     0.085 A 
HETATM    9  C   UNK     0       4.623  38.846   8.862  0.00  0.00     0.074 A 
HETATM   10  C   UNK     0       2.710  40.322   8.788  0.00  0.00     0.074 A 
HETATM   11  C   UNK     0       3.592  39.454   8.145  0.00  0.00     0.071 A 
ENDROOT
BRANCH   3  12
HETATM   12  C   UNK     0       7.301  38.245  12.697  0.00  0.00    -0.023 A 
HETATM   13  C   UNK     0       6.968  36.984  13.190  0.00  0.00     0.049 A 
HETATM   14  C   UNK     0       7.953  36.179  13.764  0.00  0.00     0.099 A 
HETATM   15  C   UNK     0       9.268  36.638  13.845  0.00  0.00     0.098 A 
HETATM   16  C   UNK     0       9.599  37.901  13.351  0.00  0.00     0.040 A 
HETATM   17  C   UNK     0       8.614  38.704  12.777  0.00  0.00     0.013 A 
BRANCH  14  18
HETATM   18  O   UNK     0       7.619  34.949  14.242  0.00  0.00    -0.358 OA
HETATM   19  H   UNK     0       8.407  34.379  14.197  0.00  0.00     0.217 HD
ENDBRANCH  14  18
BRANCH  15  20
HETATM   20  O   UNK     0      10.239  35.862  14.402  0.00  0.00    -0.358 OA
HETATM   21  H   UNK     0      10.909  35.660  13.726  0.00  0.00     0.217 HD
ENDBRANCH  15  20
ENDBRANCH   3  12
BRANCH   4  22
HETATM   22  O   UNK     0       5.470  40.013  14.187  0.00  0.00    -0.385 OA
HETATM   23  H   UNK     0       4.676  40.232  14.703  0.00  0.00     0.210 HD
ENDBRANCH   4  22
BRANCH   8  24
HETATM   24  O   UNK     0       1.946  41.418  10.732  0.00  0.00    -0.360 OA
HETATM   25  H   UNK     0       1.047  41.217  10.431  0.00  0.00     0.217 HD
ENDBRANCH   8  24
BRANCH  11  26
HETATM   26  O   UNK     0       3.449  39.202   6.815  0.00  0.00    -0.361 OA
HETATM   27  H   UNK     0       3.736  39.984   6.312  0.00  0.00     0.217 HD
ENDBRANCH  11  26
TORSDOF 6
ENDMDL
MODEL 10
REMARK VINA RESULT:      -6.9      2.661      7.120
REMARK  6 active torsions:
REMARK  status: ('A' for Active; 'I' for Inactive)
REMARK    1  A    between atoms: O_2  and  C_9 
REMARK    2  A    between atoms: O_4  and  C_14 
REMARK    3  A    between atoms: O_5  and  C_19 
REMARK    4  A    between atoms: O_6  and  C_20 
REMARK    5  A    between atoms: O_7  and  C_22 
REMARK    6  A    between atoms: C_8  and  C_10 
ROOT
HETATM    1  O   UNK     0      22.698  33.739  23.198  0.00  0.00    -0.337 OA
HETATM    2  O   UNK     0      20.438  37.152  22.897  0.00  0.00    -0.289 OA
HETATM    3  C   UNK     0      21.318  33.757  23.595  0.00  0.00     0.198 C 
HETATM    4  C   UNK     0      20.511  34.744  22.751  0.00  0.00     0.227 C 
HETATM    5  C   UNK     0      21.106  36.125  22.915  0.00  0.00     0.196 C 
HETATM    6  C   UNK     0      22.574  36.172  23.064  0.00  0.00     0.079 A 
HETATM    7  C   UNK     0      23.286  34.976  23.181  0.00  0.00     0.089 A 
HETATM    8  C   UNK     0      23.247  37.397  23.059  0.00  0.00     0.085 A 
HETATM    9  C   UNK     0      24.680  35.005  23.258  0.00  0.00     0.074 A 
HETATM   10  C   UNK     0      24.638  37.420  23.156  0.00  0.00     0.074 A 
HETATM   11  C   UNK     0      25.354  36.227  23.250  0.00  0.00     0.071 A 
ENDROOT
BRANCH   3  12
HETATM   12  C   UNK     0      20.794  32.340  23.461  0.00  0.00    -0.023 A 
HETATM   13  C   UNK     0      19.768  31.898  24.293  0.00  0.00     0.049 A 
HETATM   14  C   UNK     0      19.284  30.595  24.170  0.00  0.00     0.099 A 
HETATM   15  C   UNK     0      19.830  29.737  23.215  0.00  0.00     0.098 A 
HETATM   16  C   UNK     0      20.857  30.182  22.382  0.00  0.00     0.040 A 
HETATM   17  C   UNK     0      21.340  31.484  22.506  0.00  0.00     0.013 A 
BRANCH  14  18
HETATM   18  O   UNK     0      18.281  30.172  24.987  0.00  0.00    -0.358 OA
HETATM   19  H   UNK     0      18.306  30.702  25.802  0.00  0.00     0.217 HD
ENDBRANCH  14  18
BRANCH  15  20
HETATM   20  O   UNK     0      19.366  28.462  23.084  0.00  0.00    -0.358 OA
HETATM   21  H   UNK     0      19.880  28.008  22.394  0.00  0.00     0.217 HD
ENDBRANCH  15  20
ENDBRANCH   3  12
BRANCH   4  22
HETATM   22  O   UNK     0      19.167  34.787  23.201  0.00  0.00    -0.385 OA
HETATM   23  H   UNK     0      18.610  35.016  22.438  0.00  0.00     0.210 HD
ENDBRANCH   4  22
BRANCH   8  24
HETATM   24  O   UNK     0      22.601  38.592  22.952  0.00  0.00    -0.360 OA
HETATM   25  H   UNK     0      22.403  38.954  23.828  0.00  0.00     0.217 HD
ENDBRANCH   8  24
BRANCH  11  26
HETATM   26  O   UNK     0      26.712  36.254  23.336  0.00  0.00    -0.361 OA
HETATM   27  H   UNK     0      26.970  36.214  24.273  0.00  0.00     0.217 HD
ENDBRANCH  11  26
TORSDOF 6
ENDMDL
