REMARK VINA RESULT:      -7.0      3.262      6.082
REMARK  6 active torsions:
REMARK  status: ('A' for Active; 'I' for Inactive)
REMARK    1  A    between atoms: O_2  and  C_9 
REMARK    2  A    between atoms: O_4  and  C_14 
REMARK    3  A    between atoms: O_5  and  C_19 
REMARK    4  A    between atoms: O_6  and  C_20 
REMARK    5  A    between atoms: O_7  and  C_22 
REMARK    6  A    between atoms: C_8  and  C_10 
ROOT
HETATM    1  O   UNK     0      19.870  33.668  23.684  0.00  0.00    -0.337 OA
HETATM    2  O   UNK     0      23.041  36.189  23.028  0.00  0.00    -0.289 OA
HETATM    3  C   UNK     0      20.924  33.318  22.775  0.00  0.00     0.198 C 
HETATM    4  C   UNK     0      22.261  33.913  23.220  0.00  0.00     0.227 C 
HETATM    5  C   UNK     0      22.124  35.418  23.287  0.00  0.00     0.196 C 
HETATM    6  C   UNK     0      20.808  35.919  23.728  0.00  0.00     0.079 A 
HETATM    7  C   UNK     0      19.762  35.013  23.917  0.00  0.00     0.089 A 
HETATM    8  C   UNK     0      20.618  37.280  23.983  0.00  0.00     0.085 A 
HETATM    9  C   UNK     0      18.531  35.467  24.396  0.00  0.00     0.074 A 
HETATM   10  C   UNK     0      19.380  37.730  24.442  0.00  0.00     0.074 A 
HETATM   11  C   UNK     0      18.340  36.825  24.654  0.00  0.00     0.071 A 
ENDROOT
BRANCH   3  12
HETATM   12  C   UNK     0      20.977  31.803  22.709  0.00  0.00    -0.023 A 
HETATM   13  C   UNK     0      21.990  31.115  23.373  0.00  0.00     0.049 A 
HETATM   14  C   UNK     0      22.039  29.722  23.314  0.00  0.00     0.099 A 
HETATM   15  C   UNK     0      21.075  29.021  22.589  0.00  0.00     0.098 A 
HETATM   16  C   UNK     0      20.061  29.712  21.926  0.00  0.00     0.040 A 
HETATM   17  C   UNK     0      20.012  31.105  21.985  0.00  0.00     0.013 A 
BRANCH  14  18
HETATM   18  O   UNK     0      23.032  29.057  23.966  0.00  0.00    -0.358 OA
HETATM   19  H   UNK     0      22.973  28.114  23.735  0.00  0.00     0.217 HD
ENDBRANCH  14  18
BRANCH  15  20
HETATM   20  O   UNK     0      21.111  27.660  22.524  0.00  0.00    -0.358 OA
HETATM   21  H   UNK     0      22.022  27.360  22.685  0.00  0.00     0.217 HD
ENDBRANCH  15  20
ENDBRANCH   3  12
BRANCH   4  22
HETATM   22  O   UNK     0      23.272  33.604  22.276  0.00  0.00    -0.385 OA
HETATM   23  H   UNK     0      23.985  33.143  22.750  0.00  0.00     0.210 HD
ENDBRANCH   4  22
BRANCH   8  24
HETATM   24  O   UNK     0      21.603  38.206  23.812  0.00  0.00    -0.360 OA
HETATM   25  H   UNK     0      22.093  38.037  22.994  0.00  0.00     0.217 HD
ENDBRANCH   8  24
BRANCH  11  26
HETATM   26  O   UNK     0      17.136  37.267  25.110  0.00  0.00    -0.361 OA
HETATM   27  H   UNK     0      17.093  38.233  25.004  0.00  0.00     0.217 HD
ENDBRANCH  11  26
TORSDOF 6
