REMARK VINA RESULT:      -7.0     12.703     14.249
REMARK  6 active torsions:
REMARK  status: ('A' for Active; 'I' for Inactive)
REMARK    1  A    between atoms: O_2  and  C_9 
REMARK    2  A    between atoms: O_4  and  C_14 
REMARK    3  A    between atoms: O_5  and  C_19 
REMARK    4  A    between atoms: O_6  and  C_20 
REMARK    5  A    between atoms: O_7  and  C_22 
REMARK    6  A    between atoms: C_8  and  C_10 
ROOT
HETATM    1  O   UNK     0      18.211  45.417  13.269  0.00  0.00    -0.337 OA
HETATM    2  O   UNK     0      19.852  43.097  16.231  0.00  0.00    -0.289 OA
HETATM    3  C   UNK     0      18.977  44.242  12.958  0.00  0.00     0.198 C 
HETATM    4  C   UNK     0      18.828  43.179  14.046  0.00  0.00     0.227 C 
HETATM    5  C   UNK     0      19.298  43.760  15.362  0.00  0.00     0.196 C 
HETATM    6  C   UNK     0      19.012  45.194  15.563  0.00  0.00     0.079 A 
HETATM    7  C   UNK     0      18.470  45.935  14.510  0.00  0.00     0.089 A 
HETATM    8  C   UNK     0      19.253  45.797  16.800  0.00  0.00     0.085 A 
HETATM    9  C   UNK     0      18.136  47.276  14.708  0.00  0.00     0.074 A 
HETATM   10  C   UNK     0      18.935  47.142  16.985  0.00  0.00     0.074 A 
HETATM   11  C   UNK     0      18.373  47.880  15.944  0.00  0.00     0.071 A 
ENDROOT
BRANCH   3  12
HETATM   12  C   UNK     0      18.499  43.739  11.610  0.00  0.00    -0.023 A 
HETATM   13  C   UNK     0      17.542  42.728  11.546  0.00  0.00     0.049 A 
HETATM   14  C   UNK     0      17.101  42.264  10.306  0.00  0.00     0.099 A 
HETATM   15  C   UNK     0      17.621  42.811   9.133  0.00  0.00     0.098 A 
HETATM   16  C   UNK     0      18.579  43.823   9.199  0.00  0.00     0.040 A 
HETATM   17  C   UNK     0      19.018  44.287  10.438  0.00  0.00     0.013 A 
BRANCH  14  18
HETATM   18  O   UNK     0      16.165  41.277  10.254  0.00  0.00    -0.358 OA
HETATM   19  H   UNK     0      16.593  40.466   9.927  0.00  0.00     0.217 HD
ENDBRANCH  14  18
BRANCH  15  20
HETATM   20  O   UNK     0      17.198  42.367   7.916  0.00  0.00    -0.358 OA
HETATM   21  H   UNK     0      16.458  42.924   7.615  0.00  0.00     0.217 HD
ENDBRANCH  15  20
ENDBRANCH   3  12
BRANCH   4  22
HETATM   22  O   UNK     0      19.639  42.055  13.746  0.00  0.00    -0.385 OA
HETATM   23  H   UNK     0      20.292  41.965  14.461  0.00  0.00     0.210 HD
ENDBRANCH   4  22
BRANCH   8  24
HETATM   24  O   UNK     0      19.783  45.122  17.858  0.00  0.00    -0.360 OA
HETATM   25  H   UNK     0      20.734  44.982  17.734  0.00  0.00     0.217 HD
ENDBRANCH   8  24
BRANCH  11  26
HETATM   26  O   UNK     0      18.057  49.190  16.131  0.00  0.00    -0.361 OA
HETATM   27  H   UNK     0      18.782  49.625  16.613  0.00  0.00     0.217 HD
ENDBRANCH  11  26
TORSDOF 6
