REMARK VINA RESULT:      -6.9     18.387     21.378
REMARK  6 active torsions:
REMARK  status: ('A' for Active; 'I' for Inactive)
REMARK    1  A    between atoms: O_2  and  C_9 
REMARK    2  A    between atoms: O_4  and  C_14 
REMARK    3  A    between atoms: O_5  and  C_19 
REMARK    4  A    between atoms: O_6  and  C_20 
REMARK    5  A    between atoms: O_7  and  C_22 
REMARK    6  A    between atoms: C_8  and  C_10 
ROOT
HETATM    1  O   UNK     0       5.815  38.480  10.856  0.00  0.00    -0.337 OA
HETATM    2  O   UNK     0       3.298  40.989  12.909  0.00  0.00    -0.289 OA
HETATM    3  C   UNK     0       6.229  39.118  12.074  0.00  0.00     0.198 C 
HETATM    4  C   UNK     0       5.047  39.329  13.020  0.00  0.00     0.227 C 
HETATM    5  C   UNK     0       4.011  40.183  12.323  0.00  0.00     0.196 C 
HETATM    6  C   UNK     0       3.879  39.963  10.869  0.00  0.00     0.079 A 
HETATM    7  C   UNK     0       4.778  39.112  10.224  0.00  0.00     0.089 A 
HETATM    8  C   UNK     0       2.848  40.576  10.152  0.00  0.00     0.085 A 
HETATM    9  C   UNK     0       4.623  38.846   8.862  0.00  0.00     0.074 A 
HETATM   10  C   UNK     0       2.710  40.322   8.788  0.00  0.00     0.074 A 
HETATM   11  C   UNK     0       3.592  39.454   8.145  0.00  0.00     0.071 A 
ENDROOT
BRANCH   3  12
HETATM   12  C   UNK     0       7.301  38.245  12.697  0.00  0.00    -0.023 A 
HETATM   13  C   UNK     0       6.968  36.984  13.190  0.00  0.00     0.049 A 
HETATM   14  C   UNK     0       7.953  36.179  13.764  0.00  0.00     0.099 A 
HETATM   15  C   UNK     0       9.268  36.638  13.845  0.00  0.00     0.098 A 
HETATM   16  C   UNK     0       9.599  37.901  13.351  0.00  0.00     0.040 A 
HETATM   17  C   UNK     0       8.614  38.704  12.777  0.00  0.00     0.013 A 
BRANCH  14  18
HETATM   18  O   UNK     0       7.619  34.949  14.242  0.00  0.00    -0.358 OA
HETATM   19  H   UNK     0       8.407  34.379  14.197  0.00  0.00     0.217 HD
ENDBRANCH  14  18
BRANCH  15  20
HETATM   20  O   UNK     0      10.239  35.862  14.402  0.00  0.00    -0.358 OA
HETATM   21  H   UNK     0      10.909  35.660  13.726  0.00  0.00     0.217 HD
ENDBRANCH  15  20
ENDBRANCH   3  12
BRANCH   4  22
HETATM   22  O   UNK     0       5.470  40.013  14.187  0.00  0.00    -0.385 OA
HETATM   23  H   UNK     0       4.676  40.232  14.703  0.00  0.00     0.210 HD
ENDBRANCH   4  22
BRANCH   8  24
HETATM   24  O   UNK     0       1.946  41.418  10.732  0.00  0.00    -0.360 OA
HETATM   25  H   UNK     0       1.047  41.217  10.431  0.00  0.00     0.217 HD
ENDBRANCH   8  24
BRANCH  11  26
HETATM   26  O   UNK     0       3.449  39.202   6.815  0.00  0.00    -0.361 OA
HETATM   27  H   UNK     0       3.736  39.984   6.312  0.00  0.00     0.217 HD
ENDBRANCH  11  26
TORSDOF 6
