REMARK VINA RESULT:      -7.5      0.000      0.000
REMARK  6 active torsions:
REMARK  status: ('A' for Active; 'I' for Inactive)
REMARK    1  A    between atoms: O_2  and  C_9 
REMARK    2  A    between atoms: O_4  and  C_14 
REMARK    3  A    between atoms: O_5  and  C_19 
REMARK    4  A    between atoms: O_6  and  C_20 
REMARK    5  A    between atoms: O_7  and  C_22 
REMARK    6  A    between atoms: C_8  and  C_10 
ROOT
HETATM    1  O   UNK     0      22.758  36.871  22.593  0.00  0.00    -0.337 OA
HETATM    2  O   UNK     0      21.963  32.975  23.607  0.00  0.00    -0.289 OA
HETATM    3  C   UNK     0      23.816  35.953  22.909  0.00  0.00     0.198 C 
HETATM    4  C   UNK     0      23.449  34.525  22.504  0.00  0.00     0.227 C 
HETATM    5  C   UNK     0      22.188  34.121  23.235  0.00  0.00     0.196 C 
HETATM    6  C   UNK     0      21.202  35.199  23.449  0.00  0.00     0.079 A 
HETATM    7  C   UNK     0      21.539  36.509  23.100  0.00  0.00     0.089 A 
HETATM    8  C   UNK     0      19.937  34.908  23.965  0.00  0.00     0.085 A 
HETATM    9  C   UNK     0      20.593  37.526  23.237  0.00  0.00     0.074 A 
HETATM   10  C   UNK     0      19.003  35.932  24.118  0.00  0.00     0.074 A 
HETATM   11  C   UNK     0      19.327  37.238  23.750  0.00  0.00     0.071 A 
ENDROOT
BRANCH   3  12
HETATM   12  C   UNK     0      25.062  36.439  22.193  0.00  0.00    -0.023 A 
HETATM   13  C   UNK     0      26.145  36.912  22.929  0.00  0.00     0.049 A 
HETATM   14  C   UNK     0      27.292  37.359  22.271  0.00  0.00     0.099 A 
HETATM   15  C   UNK     0      27.350  37.333  20.878  0.00  0.00     0.098 A 
HETATM   16  C   UNK     0      26.264  36.858  20.142  0.00  0.00     0.040 A 
HETATM   17  C   UNK     0      25.119  36.411  20.801  0.00  0.00     0.013 A 
BRANCH  14  18
HETATM   18  O   UNK     0      28.346  37.820  23.000  0.00  0.00    -0.358 OA
HETATM   19  H   UNK     0      28.556  38.721  22.698  0.00  0.00     0.217 HD
ENDBRANCH  14  18
BRANCH  15  20
HETATM   20  O   UNK     0      28.464  37.766  20.224  0.00  0.00    -0.358 OA
HETATM   21  H   UNK     0      28.230  38.533  19.674  0.00  0.00     0.217 HD
ENDBRANCH  15  20
ENDBRANCH   3  12
BRANCH   4  22
HETATM   22  O   UNK     0      24.482  33.629  22.880  0.00  0.00    -0.385 OA
HETATM   23  H   UNK     0      25.214  33.745  22.250  0.00  0.00     0.210 HD
ENDBRANCH   4  22
BRANCH   8  24
HETATM   24  O   UNK     0      19.559  33.649  24.324  0.00  0.00    -0.360 OA
HETATM   25  H   UNK     0      19.945  32.992  23.726  0.00  0.00     0.217 HD
ENDBRANCH   8  24
BRANCH  11  26
HETATM   26  O   UNK     0      18.410  38.233  23.893  0.00  0.00    -0.361 OA
HETATM   27  H   UNK     0      18.758  38.897  24.512  0.00  0.00     0.217 HD
ENDBRANCH  11  26
TORSDOF 6
