REMARK VINA RESULT:      -6.9      2.661      7.120
REMARK  6 active torsions:
REMARK  status: ('A' for Active; 'I' for Inactive)
REMARK    1  A    between atoms: O_2  and  C_9 
REMARK    2  A    between atoms: O_4  and  C_14 
REMARK    3  A    between atoms: O_5  and  C_19 
REMARK    4  A    between atoms: O_6  and  C_20 
REMARK    5  A    between atoms: O_7  and  C_22 
REMARK    6  A    between atoms: C_8  and  C_10 
ROOT
HETATM    1  O   UNK     0      22.698  33.739  23.198  0.00  0.00    -0.337 OA
HETATM    2  O   UNK     0      20.438  37.152  22.897  0.00  0.00    -0.289 OA
HETATM    3  C   UNK     0      21.318  33.757  23.595  0.00  0.00     0.198 C 
HETATM    4  C   UNK     0      20.511  34.744  22.751  0.00  0.00     0.227 C 
HETATM    5  C   UNK     0      21.106  36.125  22.915  0.00  0.00     0.196 C 
HETATM    6  C   UNK     0      22.574  36.172  23.064  0.00  0.00     0.079 A 
HETATM    7  C   UNK     0      23.286  34.976  23.181  0.00  0.00     0.089 A 
HETATM    8  C   UNK     0      23.247  37.397  23.059  0.00  0.00     0.085 A 
HETATM    9  C   UNK     0      24.680  35.005  23.258  0.00  0.00     0.074 A 
HETATM   10  C   UNK     0      24.638  37.420  23.156  0.00  0.00     0.074 A 
HETATM   11  C   UNK     0      25.354  36.227  23.250  0.00  0.00     0.071 A 
ENDROOT
BRANCH   3  12
HETATM   12  C   UNK     0      20.794  32.340  23.461  0.00  0.00    -0.023 A 
HETATM   13  C   UNK     0      19.768  31.898  24.293  0.00  0.00     0.049 A 
HETATM   14  C   UNK     0      19.284  30.595  24.170  0.00  0.00     0.099 A 
HETATM   15  C   UNK     0      19.830  29.737  23.215  0.00  0.00     0.098 A 
HETATM   16  C   UNK     0      20.857  30.182  22.382  0.00  0.00     0.040 A 
HETATM   17  C   UNK     0      21.340  31.484  22.506  0.00  0.00     0.013 A 
BRANCH  14  18
HETATM   18  O   UNK     0      18.281  30.172  24.987  0.00  0.00    -0.358 OA
HETATM   19  H   UNK     0      18.306  30.702  25.802  0.00  0.00     0.217 HD
ENDBRANCH  14  18
BRANCH  15  20
HETATM   20  O   UNK     0      19.366  28.462  23.084  0.00  0.00    -0.358 OA
HETATM   21  H   UNK     0      19.880  28.008  22.394  0.00  0.00     0.217 HD
ENDBRANCH  15  20
ENDBRANCH   3  12
BRANCH   4  22
HETATM   22  O   UNK     0      19.167  34.787  23.201  0.00  0.00    -0.385 OA
HETATM   23  H   UNK     0      18.610  35.016  22.438  0.00  0.00     0.210 HD
ENDBRANCH   4  22
BRANCH   8  24
HETATM   24  O   UNK     0      22.601  38.592  22.952  0.00  0.00    -0.360 OA
HETATM   25  H   UNK     0      22.403  38.954  23.828  0.00  0.00     0.217 HD
ENDBRANCH   8  24
BRANCH  11  26
HETATM   26  O   UNK     0      26.712  36.254  23.336  0.00  0.00    -0.361 OA
HETATM   27  H   UNK     0      26.970  36.214  24.273  0.00  0.00     0.217 HD
ENDBRANCH  11  26
TORSDOF 6
