REMARK VINA RESULT:      -7.1      3.025      6.755
REMARK  6 active torsions:
REMARK  status: ('A' for Active; 'I' for Inactive)
REMARK    1  A    between atoms: O_2  and  C_9 
REMARK    2  A    between atoms: O_4  and  C_14 
REMARK    3  A    between atoms: O_5  and  C_19 
REMARK    4  A    between atoms: O_6  and  C_20 
REMARK    5  A    between atoms: O_7  and  C_22 
REMARK    6  A    between atoms: C_8  and  C_10 
ROOT
HETATM    1  O   UNK     0      22.254  33.503  22.974  0.00  0.00    -0.337 OA
HETATM    2  O   UNK     0      19.452  35.900  24.775  0.00  0.00    -0.289 OA
HETATM    3  C   UNK     0      21.264  32.956  23.859  0.00  0.00     0.198 C 
HETATM    4  C   UNK     0      19.961  33.754  23.794  0.00  0.00     0.227 C 
HETATM    5  C   UNK     0      20.250  35.190  24.176  0.00  0.00     0.196 C 
HETATM    6  C   UNK     0      21.562  35.711  23.745  0.00  0.00     0.079 A 
HETATM    7  C   UNK     0      22.481  34.841  23.154  0.00  0.00     0.089 A 
HETATM    8  C   UNK     0      21.870  37.066  23.899  0.00  0.00     0.085 A 
HETATM    9  C   UNK     0      23.699  35.336  22.684  0.00  0.00     0.074 A 
HETATM   10  C   UNK     0      23.096  37.550  23.445  0.00  0.00     0.074 A 
HETATM   11  C   UNK     0      24.008  36.689  22.834  0.00  0.00     0.071 A 
ENDROOT
BRANCH   3  12
HETATM   12  C   UNK     0      21.057  31.507  23.461  0.00  0.00    -0.023 A 
HETATM   13  C   UNK     0      22.139  30.629  23.452  0.00  0.00     0.049 A 
HETATM   14  C   UNK     0      21.949  29.296  23.087  0.00  0.00     0.099 A 
HETATM   15  C   UNK     0      20.679  28.845  22.730  0.00  0.00     0.098 A 
HETATM   16  C   UNK     0      19.597  29.726  22.741  0.00  0.00     0.040 A 
HETATM   17  C   UNK     0      19.787  31.058  23.106  0.00  0.00     0.013 A 
BRANCH  14  18
HETATM   18  O   UNK     0      23.012  28.445  23.081  0.00  0.00    -0.358 OA
HETATM   19  H   UNK     0      23.748  28.871  23.555  0.00  0.00     0.217 HD
ENDBRANCH  14  18
BRANCH  15  20
HETATM   20  O   UNK     0      20.480  27.545  22.372  0.00  0.00    -0.358 OA
HETATM   21  H   UNK     0      20.615  26.978  23.152  0.00  0.00     0.217 HD
ENDBRANCH  15  20
ENDBRANCH   3  12
BRANCH   4  22
HETATM   22  O   UNK     0      19.022  33.233  24.718  0.00  0.00    -0.385 OA
HETATM   23  H   UNK     0      18.390  33.942  24.926  0.00  0.00     0.210 HD
ENDBRANCH   4  22
BRANCH   8  24
HETATM   24  O   UNK     0      21.012  37.956  24.471  0.00  0.00    -0.360 OA
HETATM   25  H   UNK     0      21.479  38.765  24.729  0.00  0.00     0.217 HD
ENDBRANCH   8  24
BRANCH  11  26
HETATM   26  O   UNK     0      25.200  37.167  22.385  0.00  0.00    -0.361 OA
HETATM   27  H   UNK     0      25.797  36.418  22.214  0.00  0.00     0.217 HD
ENDBRANCH  11  26
TORSDOF 6
