REMARK VINA RESULT:      -7.2     15.907     19.378
REMARK  6 active torsions:
REMARK  status: ('A' for Active; 'I' for Inactive)
REMARK    1  A    between atoms: O_2  and  C_9 
REMARK    2  A    between atoms: O_4  and  C_14 
REMARK    3  A    between atoms: O_5  and  C_19 
REMARK    4  A    between atoms: O_6  and  C_20 
REMARK    5  A    between atoms: O_7  and  C_22 
REMARK    6  A    between atoms: C_8  and  C_10 
ROOT
HETATM    1  O   UNK     0      14.131  21.107  21.367  0.00  0.00    -0.337 OA
HETATM    2  O   UNK     0      13.843  20.425  25.404  0.00  0.00    -0.289 OA
HETATM    3  C   UNK     0      13.459  19.946  21.881  0.00  0.00     0.198 C 
HETATM    4  C   UNK     0      12.806  20.236  23.232  0.00  0.00     0.227 C 
HETATM    5  C   UNK     0      13.877  20.679  24.205  0.00  0.00     0.196 C 
HETATM    6  C   UNK     0      14.971  21.482  23.626  0.00  0.00     0.079 A 
HETATM    7  C   UNK     0      15.025  21.663  22.242  0.00  0.00     0.089 A 
HETATM    8  C   UNK     0      15.925  22.080  24.455  0.00  0.00     0.085 A 
HETATM    9  C   UNK     0      16.018  22.474  21.689  0.00  0.00     0.074 A 
HETATM   10  C   UNK     0      16.925  22.873  23.894  0.00  0.00     0.074 A 
HETATM   11  C   UNK     0      16.969  23.074  22.514  0.00  0.00     0.071 A 
ENDROOT
BRANCH   3  12
HETATM   12  C   UNK     0      12.439  19.521  20.842  0.00  0.00    -0.023 A 
HETATM   13  C   UNK     0      11.889  18.242  20.893  0.00  0.00     0.049 A 
HETATM   14  C   UNK     0      10.951  17.849  19.937  0.00  0.00     0.099 A 
HETATM   15  C   UNK     0      10.566  18.738  18.934  0.00  0.00     0.098 A 
HETATM   16  C   UNK     0      11.117  20.019  18.885  0.00  0.00     0.040 A 
HETATM   17  C   UNK     0      12.055  20.410  19.840  0.00  0.00     0.013 A 
BRANCH  14  18
HETATM   18  O   UNK     0      10.419  16.598  19.995  0.00  0.00    -0.358 OA
HETATM   19  H   UNK     0       9.452  16.679  20.068  0.00  0.00     0.217 HD
ENDBRANCH  14  18
BRANCH  15  20
HETATM   20  O   UNK     0       9.649  18.367  17.995  0.00  0.00    -0.358 OA
HETATM   21  H   UNK     0       8.763  18.633  18.296  0.00  0.00     0.217 HD
ENDBRANCH  15  20
ENDBRANCH   3  12
BRANCH   4  22
HETATM   22  O   UNK     0      12.201  19.061  23.746  0.00  0.00    -0.385 OA
HETATM   23  H   UNK     0      12.368  18.344  23.111  0.00  0.00     0.210 HD
ENDBRANCH   4  22
BRANCH   8  24
HETATM   24  O   UNK     0      15.920  21.933  25.809  0.00  0.00    -0.360 OA
HETATM   25  H   UNK     0      15.286  22.541  26.217  0.00  0.00     0.217 HD
ENDBRANCH   8  24
BRANCH  11  26
HETATM   26  O   UNK     0      17.943  23.856  21.972  0.00  0.00    -0.361 OA
HETATM   27  H   UNK     0      18.473  24.243  22.689  0.00  0.00     0.217 HD
ENDBRANCH  11  26
TORSDOF 6
