REMARK VINA RESULT:      -6.9     20.883     22.725
REMARK  6 active torsions:
REMARK  status: ('A' for Active; 'I' for Inactive)
REMARK    1  A    between atoms: O_2  and  C_9 
REMARK    2  A    between atoms: O_4  and  C_14 
REMARK    3  A    between atoms: O_5  and  C_19 
REMARK    4  A    between atoms: O_6  and  C_20 
REMARK    5  A    between atoms: O_7  and  C_22 
REMARK    6  A    between atoms: C_8  and  C_10 
ROOT
HETATM    1  O   UNK     0       3.490  38.469  13.119  0.00  0.00    -0.337 OA
HETATM    2  O   UNK     0       4.466  41.726  15.417  0.00  0.00    -0.289 OA
HETATM    3  C   UNK     0       3.383  39.805  12.602  0.00  0.00     0.198 C 
HETATM    4  C   UNK     0       4.436  40.725  13.221  0.00  0.00     0.227 C 
HETATM    5  C   UNK     0       4.245  40.741  14.722  0.00  0.00     0.196 C 
HETATM    6  C   UNK     0       3.805  39.467  15.322  0.00  0.00     0.079 A 
HETATM    7  C   UNK     0       3.468  38.400  14.486  0.00  0.00     0.089 A 
HETATM    8  C   UNK     0       3.753  39.320  16.711  0.00  0.00     0.085 A 
HETATM    9  C   UNK     0       3.112  37.170  15.043  0.00  0.00     0.074 A 
HETATM   10  C   UNK     0       3.378  38.095  17.261  0.00  0.00     0.074 A 
HETATM   11  C   UNK     0       3.063  37.020  16.429  0.00  0.00     0.071 A 
ENDROOT
BRANCH   3  12
HETATM   12  C   UNK     0       3.528  39.716  11.095  0.00  0.00    -0.023 A 
HETATM   13  C   UNK     0       2.708  40.485  10.272  0.00  0.00     0.049 A 
HETATM   14  C   UNK     0       2.841  40.404   8.885  0.00  0.00     0.099 A 
HETATM   15  C   UNK     0       3.794  39.554   8.326  0.00  0.00     0.098 A 
HETATM   16  C   UNK     0       4.615  38.785   9.151  0.00  0.00     0.040 A 
HETATM   17  C   UNK     0       4.481  38.866  10.537  0.00  0.00     0.013 A 
BRANCH  14  18
HETATM   18  O   UNK     0       2.035  41.160   8.090  0.00  0.00    -0.358 OA
HETATM   19  H   UNK     0       2.226  40.938   7.162  0.00  0.00     0.217 HD
ENDBRANCH  14  18
BRANCH  15  20
HETATM   20  O   UNK     0       3.935  39.467   6.973  0.00  0.00    -0.358 OA
HETATM   21  H   UNK     0       4.554  40.156   6.674  0.00  0.00     0.217 HD
ENDBRANCH  15  20
ENDBRANCH   3  12
BRANCH   4  22
HETATM   22  O   UNK     0       4.272  42.048  12.740  0.00  0.00    -0.385 OA
HETATM   23  H   UNK     0       3.721  42.527  13.383  0.00  0.00     0.210 HD
ENDBRANCH   4  22
BRANCH   8  24
HETATM   24  O   UNK     0       4.067  40.329  17.571  0.00  0.00    -0.360 OA
HETATM   25  H   UNK     0       3.424  41.050  17.502  0.00  0.00     0.217 HD
ENDBRANCH   8  24
BRANCH  11  26
HETATM   26  O   UNK     0       2.705  35.823  16.971  0.00  0.00    -0.361 OA
HETATM   27  H   UNK     0       1.848  35.923  17.421  0.00  0.00     0.217 HD
ENDBRANCH  11  26
TORSDOF 6
