REMARK VINA RESULT:      -7.3     20.275     22.376
REMARK  6 active torsions:
REMARK  status: ('A' for Active; 'I' for Inactive)
REMARK    1  A    between atoms: O_2  and  C_9 
REMARK    2  A    between atoms: O_4  and  C_14 
REMARK    3  A    between atoms: O_5  and  C_19 
REMARK    4  A    between atoms: O_6  and  C_20 
REMARK    5  A    between atoms: O_7  and  C_22 
REMARK    6  A    between atoms: C_8  and  C_10 
ROOT
HETATM    1  O   UNK     0       3.697  39.884  12.248  0.00  0.00    -0.337 OA
HETATM    2  O   UNK     0       6.640  37.651  10.460  0.00  0.00    -0.289 OA
HETATM    3  C   UNK     0       4.324  38.791  12.936  0.00  0.00     0.198 C 
HETATM    4  C   UNK     0       5.779  38.621  12.496  0.00  0.00     0.227 C 
HETATM    5  C   UNK     0       5.810  38.371  11.004  0.00  0.00     0.196 C 
HETATM    6  C   UNK     0       4.786  39.085  10.217  0.00  0.00     0.079 A 
HETATM    7  C   UNK     0       3.799  39.814  10.885  0.00  0.00     0.089 A 
HETATM    8  C   UNK     0       4.821  39.058   8.820  0.00  0.00     0.085 A 
HETATM    9  C   UNK     0       2.865  40.546  10.151  0.00  0.00     0.074 A 
HETATM   10  C   UNK     0       3.873  39.776   8.093  0.00  0.00     0.074 A 
HETATM   11  C   UNK     0       2.899  40.523   8.756  0.00  0.00     0.071 A 
ENDROOT
BRANCH   3  12
HETATM   12  C   UNK     0       4.215  39.072  14.422  0.00  0.00    -0.023 A 
HETATM   13  C   UNK     0       4.633  40.301  14.928  0.00  0.00     0.049 A 
HETATM   14  C   UNK     0       4.533  40.561  16.295  0.00  0.00     0.099 A 
HETATM   15  C   UNK     0       4.016  39.591  17.153  0.00  0.00     0.098 A 
HETATM   16  C   UNK     0       3.597  38.361  16.644  0.00  0.00     0.040 A 
HETATM   17  C   UNK     0       3.697  38.102  15.278  0.00  0.00     0.013 A 
BRANCH  14  18
HETATM   18  O   UNK     0       4.944  41.765  16.781  0.00  0.00    -0.358 OA
HETATM   19  H   UNK     0       4.453  41.949  17.600  0.00  0.00     0.217 HD
ENDBRANCH  14  18
BRANCH  15  20
HETATM   20  O   UNK     0       3.911  39.833  18.490  0.00  0.00    -0.358 OA
HETATM   21  H   UNK     0       3.005  40.125  18.689  0.00  0.00     0.217 HD
ENDBRANCH  15  20
ENDBRANCH   3  12
BRANCH   4  22
HETATM   22  O   UNK     0       6.358  37.500  13.143  0.00  0.00    -0.385 OA
HETATM   23  H   UNK     0       7.323  37.615  13.123  0.00  0.00     0.210 HD
ENDBRANCH   4  22
BRANCH   8  24
HETATM   24  O   UNK     0       5.760  38.361   8.120  0.00  0.00    -0.360 OA
HETATM   25  H   UNK     0       5.960  38.804   7.282  0.00  0.00     0.217 HD
ENDBRANCH   8  24
BRANCH  11  26
HETATM   26  O   UNK     0       1.981  41.230   8.042  0.00  0.00    -0.361 OA
HETATM   27  H   UNK     0       2.075  42.175   8.253  0.00  0.00     0.217 HD
ENDBRANCH  11  26
TORSDOF 6
