MODEL 1
REMARK VINA RESULT:    -9.442      0.000      0.000
REMARK INTER + INTRA:         -15.343
REMARK INTER:                 -13.858
REMARK INTRA:                  -1.485
REMARK UNBOUND:                -1.485
REMARK  Name = 5281643
REMARK  12 active torsions:
REMARK  status: ('A' for Active; 'I' for Inactive)
REMARK    1  A    between atoms: O_2  and  C_17
REMARK    2  A    between atoms: O_2  and  C_19
REMARK    3  A    between atoms: O_3  and  C_13
REMARK    4  A    between atoms: O_4  and  C_14
REMARK    5  A    between atoms: O_5  and  C_15
REMARK    6  A    between atoms: O_6  and  C_18
REMARK    7  A    between atoms: O_9  and  C_25
REMARK    8  A    between atoms: O_10  and  C_30
REMARK    9  A    between atoms: O_11  and  C_31
REMARK   10  A    between atoms: O_12  and  C_33
REMARK   11  A    between atoms: C_16  and  C_18
REMARK   12  A    between atoms: C_20  and  C_24
REMARK                            x       y       z     vdW  Elec       q    Type
REMARK                         _______ _______ _______ _____ _____    ______ ____
ROOT
ATOM      1  O   UNL     1      77.194  93.094 112.758  0.00  0.00    +0.000 OA
ATOM      2  O   UNL     1      78.669  90.809 109.724  0.00  0.00    +0.000 OA
ATOM      3  C   UNL     1      76.790  91.837 110.733  0.00  0.00    +0.000 A 
ATOM      4  C   UNL     1      76.369  92.591 111.765  0.00  0.00    +0.000 A 
ATOM      5  C   UNL     1      78.229  91.492 110.639  0.00  0.00    +0.000 A 
ATOM      6  C   UNL     1      79.096  92.017 111.704  0.00  0.00    +0.000 A 
ATOM      7  C   UNL     1      78.531  92.794 112.712  0.00  0.00    +0.000 A 
ATOM      8  C   UNL     1      80.467  91.745 111.708  0.00  0.00    +0.000 A 
ATOM      9  C   UNL     1      79.334  93.307 113.732  0.00  0.00    +0.000 A 
ATOM     10  C   UNL     1      81.267  92.258 112.729  0.00  0.00    +0.000 A 
ATOM     11  C   UNL     1      80.702  93.037 113.739  0.00  0.00    +0.000 A 
ENDROOT
BRANCH   4  12
ATOM     12  C   UNL     1      74.959  92.988 111.932  0.00  0.00    +0.000 A 
ATOM     13  C   UNL     1      73.995  92.027 112.237  0.00  0.00    +0.000 A 
ATOM     14  C   UNL     1      74.589  94.325 111.786  0.00  0.00    +0.000 A 
ATOM     15  C   UNL     1      72.661  92.402 112.396  0.00  0.00    +0.000 A 
ATOM     16  C   UNL     1      73.255  94.701 111.944  0.00  0.00    +0.000 A 
ATOM     17  C   UNL     1      72.291  93.740 112.249  0.00  0.00    +0.000 A 
BRANCH  15  18
ATOM     18  O   UNL     1      71.729  91.455 112.693  0.00  0.00    +0.000 OA
ATOM     19  H   UNL     1      71.724  90.795 111.978  0.00  0.00    +0.000 HD
ENDBRANCH  15  18
BRANCH  17  20
ATOM     20  O   UNL     1      70.992  94.119 112.403  0.00  0.00    +0.000 OA
ATOM     21  H   UNL     1      70.905  94.621 113.232  0.00  0.00    +0.000 HD
ENDBRANCH  17  20
ENDBRANCH   4  12
BRANCH   8  22
ATOM     22  O   UNL     1      81.069  90.992 110.746  0.00  0.00    +0.000 OA
ATOM     23  H   UNL     1      81.455  91.558 110.060  0.00  0.00    +0.000 HD
ENDBRANCH   8  22
BRANCH  11  24
ATOM     24  O   UNL     1      81.488  93.538 114.731  0.00  0.00    +0.000 OA
ATOM     25  H   UNL     1      82.240  94.008 114.332  0.00  0.00    +0.000 HD
ENDBRANCH  11  24
BRANCH   3  26
ATOM     26  O   UNL     1      75.947  91.379 109.743  0.00  0.00    +0.000 OA
BRANCH  26  32
ATOM     27  O   UNL     1      74.561  92.929 108.681  0.00  0.00    +0.000 OA
ATOM     28  C   UNL     1      75.828  92.451 106.154  0.00  0.00    +0.000 C 
ATOM     29  C   UNL     1      74.480  93.163 106.266  0.00  0.00    +0.000 C 
ATOM     30  C   UNL     1      76.073  91.546 107.360  0.00  0.00    +0.000 C 
ATOM     31  C   UNL     1      74.380  93.874 107.620  0.00  0.00    +0.000 C 
ATOM     32  C   UNL     1      75.847  92.311 108.667  0.00  0.00    +0.000 C 
BRANCH  28  33
ATOM     33  O   UNL     1      75.872  91.669 104.963  0.00  0.00    +0.000 OA
ATOM     34  H   UNL     1      75.205  90.967 105.052  0.00  0.00    +0.000 HD
ENDBRANCH  28  33
BRANCH  29  35
ATOM     35  O   UNL     1      73.422  92.206 106.163  0.00  0.00    +0.000 OA
ATOM     36  H   UNL     1      73.834  91.332 106.054  0.00  0.00    +0.000 HD
ENDBRANCH  29  35
BRANCH  30  37
ATOM     37  O   UNL     1      77.424  91.083 107.334  0.00  0.00    +0.000 OA
ATOM     38  H   UNL     1      77.965  91.806 106.972  0.00  0.00    +0.000 HD
ENDBRANCH  30  37
BRANCH  31  39
ATOM     39  C   UNL     1      73.022  94.537 107.829  0.00  0.00    +0.000 C 
BRANCH  39  40
ATOM     40  O   UNL     1      72.515  94.935 106.568  0.00  0.00    +0.000 OA
ATOM     41  H   UNL     1      73.255  95.303 106.056  0.00  0.00    +0.000 HD
ENDBRANCH  39  40
ENDBRANCH  31  39
ENDBRANCH  26  32
ENDBRANCH   3  26
TORSDOF 12
ENDMDL
MODEL 2
REMARK VINA RESULT:    -9.404      2.614      5.306
REMARK INTER + INTRA:         -15.286
REMARK INTER:                 -13.931
REMARK INTRA:                  -1.356
REMARK UNBOUND:                -1.485
REMARK  Name = 5281643
REMARK  12 active torsions:
REMARK  status: ('A' for Active; 'I' for Inactive)
REMARK    1  A    between atoms: O_2  and  C_17
REMARK    2  A    between atoms: O_2  and  C_19
REMARK    3  A    between atoms: O_3  and  C_13
REMARK    4  A    between atoms: O_4  and  C_14
REMARK    5  A    between atoms: O_5  and  C_15
REMARK    6  A    between atoms: O_6  and  C_18
REMARK    7  A    between atoms: O_9  and  C_25
REMARK    8  A    between atoms: O_10  and  C_30
REMARK    9  A    between atoms: O_11  and  C_31
REMARK   10  A    between atoms: O_12  and  C_33
REMARK   11  A    between atoms: C_16  and  C_18
REMARK   12  A    between atoms: C_20  and  C_24
REMARK                            x       y       z     vdW  Elec       q    Type
REMARK                         _______ _______ _______ _____ _____    ______ ____
ROOT
ATOM      1  O   UNL     1      80.781  91.873 111.140  0.00  0.00    +0.000 OA
ATOM      2  O   UNL     1      78.129  90.933 114.087  0.00  0.00    +0.000 OA
ATOM      3  C   UNL     1      78.626  92.238 112.175  0.00  0.00    +0.000 A 
ATOM      4  C   UNL     1      79.550  92.504 111.233  0.00  0.00    +0.000 A 
ATOM      5  C   UNL     1      78.930  91.216 113.206  0.00  0.00    +0.000 A 
ATOM      6  C   UNL     1      80.243  90.562 113.110  0.00  0.00    +0.000 A 
ATOM      7  C   UNL     1      81.104  90.926 112.077  0.00  0.00    +0.000 A 
ATOM      8  C   UNL     1      80.626  89.588 114.036  0.00  0.00    +0.000 A 
ATOM      9  C   UNL     1      82.354  90.318 111.962  0.00  0.00    +0.000 A 
ATOM     10  C   UNL     1      81.877  88.981 113.919  0.00  0.00    +0.000 A 
ATOM     11  C   UNL     1      82.740  89.345 112.885  0.00  0.00    +0.000 A 
ENDROOT
BRANCH   4  12
ATOM     12  C   UNL     1      79.330  93.496 110.166  0.00  0.00    +0.000 A 
ATOM     13  C   UNL     1      78.774  93.099 108.949  0.00  0.00    +0.000 A 
ATOM     14  C   UNL     1      79.675  94.832 110.372  0.00  0.00    +0.000 A 
ATOM     15  C   UNL     1      78.564  94.038 107.939  0.00  0.00    +0.000 A 
ATOM     16  C   UNL     1      79.465  95.771 109.363  0.00  0.00    +0.000 A 
ATOM     17  C   UNL     1      78.910  95.374 108.146  0.00  0.00    +0.000 A 
BRANCH  15  18
ATOM     18  O   UNL     1      78.022  93.639 106.755  0.00  0.00    +0.000 OA
ATOM     19  H   UNL     1      77.159  93.226 106.937  0.00  0.00    +0.000 HD
ENDBRANCH  15  18
BRANCH  17  20
ATOM     20  O   UNL     1      78.709  96.300 107.168  0.00  0.00    +0.000 OA
ATOM     21  H   UNL     1      78.940  97.181 107.513  0.00  0.00    +0.000 HD
ENDBRANCH  17  20
ENDBRANCH   4  12
BRANCH   8  22
ATOM     22  O   UNL     1      79.822  89.195 115.062  0.00  0.00    +0.000 OA
ATOM     23  H   UNL     1      78.888  89.315 114.831  0.00  0.00    +0.000 HD
ENDBRANCH   8  22
BRANCH  11  24
ATOM     24  O   UNL     1      83.957  88.748 112.774  0.00  0.00    +0.000 OA
ATOM     25  H   UNL     1      83.857  87.913 112.286  0.00  0.00    +0.000 HD
ENDBRANCH  11  24
BRANCH   3  26
ATOM     26  O   UNL     1      77.397  92.859 112.220  0.00  0.00    +0.000 OA
BRANCH  26  32
ATOM     27  O   UNL     1      76.083  92.205 110.405  0.00  0.00    +0.000 OA
ATOM     28  C   UNL     1      73.908  91.493 112.134  0.00  0.00    +0.000 C 
ATOM     29  C   UNL     1      73.722  91.683 110.629  0.00  0.00    +0.000 C 
ATOM     30  C   UNL     1      75.115  92.282 112.642  0.00  0.00    +0.000 C 
ATOM     31  C   UNL     1      75.033  91.370 109.900  0.00  0.00    +0.000 C 
ATOM     32  C   UNL     1      76.352  91.988 111.790  0.00  0.00    +0.000 C 
BRANCH  28  33
ATOM     33  O   UNL     1      72.741  91.921 112.831  0.00  0.00    +0.000 OA
ATOM     34  H   UNL     1      72.144  91.156 112.895  0.00  0.00    +0.000 HD
ENDBRANCH  28  33
BRANCH  29  35
ATOM     35  O   UNL     1      73.351  93.037 110.359  0.00  0.00    +0.000 OA
ATOM     36  H   UNL     1      73.056  93.428 111.199  0.00  0.00    +0.000 HD
ENDBRANCH  29  35
BRANCH  30  37
ATOM     37  O   UNL     1      75.392  91.901 113.990  0.00  0.00    +0.000 OA
ATOM     38  H   UNL     1      75.621  92.713 114.474  0.00  0.00    +0.000 HD
ENDBRANCH  30  37
BRANCH  31  39
ATOM     39  C   UNL     1      74.937  91.620 108.399  0.00  0.00    +0.000 C 
BRANCH  39  40
ATOM     40  O   UNL     1      75.822  90.736 107.736  0.00  0.00    +0.000 OA
ATOM     41  H   UNL     1      75.778  89.878 108.193  0.00  0.00    +0.000 HD
ENDBRANCH  39  40
ENDBRANCH  31  39
ENDBRANCH  26  32
ENDBRANCH   3  26
TORSDOF 12
ENDMDL
MODEL 3
REMARK VINA RESULT:    -9.370      2.806      3.576
REMARK INTER + INTRA:         -15.237
REMARK INTER:                 -14.803
REMARK INTRA:                  -0.434
REMARK UNBOUND:                -1.485
REMARK  Name = 5281643
REMARK  12 active torsions:
REMARK  status: ('A' for Active; 'I' for Inactive)
REMARK    1  A    between atoms: O_2  and  C_17
REMARK    2  A    between atoms: O_2  and  C_19
REMARK    3  A    between atoms: O_3  and  C_13
REMARK    4  A    between atoms: O_4  and  C_14
REMARK    5  A    between atoms: O_5  and  C_15
REMARK    6  A    between atoms: O_6  and  C_18
REMARK    7  A    between atoms: O_9  and  C_25
REMARK    8  A    between atoms: O_10  and  C_30
REMARK    9  A    between atoms: O_11  and  C_31
REMARK   10  A    between atoms: O_12  and  C_33
REMARK   11  A    between atoms: C_16  and  C_18
REMARK   12  A    between atoms: C_20  and  C_24
REMARK                            x       y       z     vdW  Elec       q    Type
REMARK                         _______ _______ _______ _____ _____    ______ ____
ROOT
ATOM      1  O   UNL     1      77.377  91.223 114.088  0.00  0.00    +0.000 OA
ATOM      2  O   UNL     1      79.677  90.985 110.733  0.00  0.00    +0.000 OA
ATOM      3  C   UNL     1      77.624  91.632 111.718  0.00  0.00    +0.000 A 
ATOM      4  C   UNL     1      76.916  91.675 112.861  0.00  0.00    +0.000 A 
ATOM      5  C   UNL     1      78.988  91.051 111.741  0.00  0.00    +0.000 A 
ATOM      6  C   UNL     1      79.465  90.560 113.043  0.00  0.00    +0.000 A 
ATOM      7  C   UNL     1      78.631  90.673 114.153  0.00  0.00    +0.000 A 
ATOM      8  C   UNL     1      80.735  89.991 113.170  0.00  0.00    +0.000 A 
ATOM      9  C   UNL     1      79.062  90.218 115.399  0.00  0.00    +0.000 A 
ATOM     10  C   UNL     1      81.163  89.536 114.418  0.00  0.00    +0.000 A 
ATOM     11  C   UNL     1      80.329  89.649 115.530  0.00  0.00    +0.000 A 
ENDROOT
BRANCH   4  12
ATOM     12  C   UNL     1      75.558  92.243 112.931  0.00  0.00    +0.000 A 
ATOM     13  C   UNL     1      75.303  93.342 113.754  0.00  0.00    +0.000 A 
ATOM     14  C   UNL     1      74.527  91.685 112.175  0.00  0.00    +0.000 A 
ATOM     15  C   UNL     1      74.019  93.881 113.819  0.00  0.00    +0.000 A 
ATOM     16  C   UNL     1      73.243  92.224 112.241  0.00  0.00    +0.000 A 
ATOM     17  C   UNL     1      72.988  93.321 113.063  0.00  0.00    +0.000 A 
BRANCH  15  18
ATOM     18  O   UNL     1      73.782  94.952 114.627  0.00  0.00    +0.000 OA
ATOM     19  H   UNL     1      74.187  94.778 115.494  0.00  0.00    +0.000 HD
ENDBRANCH  15  18
BRANCH  17  20
ATOM     20  O   UNL     1      71.730  93.839 113.118  0.00  0.00    +0.000 OA
ATOM     21  H   UNL     1      71.467  93.935 114.051  0.00  0.00    +0.000 HD
ENDBRANCH  17  20
ENDBRANCH   4  12
BRANCH   8  22
ATOM     22  O   UNL     1      81.589  89.858 112.117  0.00  0.00    +0.000 OA
ATOM     23  H   UNL     1      81.550  88.959 111.757  0.00  0.00    +0.000 HD
ENDBRANCH   8  22
BRANCH  11  24
ATOM     24  O   UNL     1      80.753  89.207 116.745  0.00  0.00    +0.000 OA
ATOM     25  H   UNL     1      81.661  88.868 116.659  0.00  0.00    +0.000 HD
ENDBRANCH  11  24
BRANCH   3  26
ATOM     26  O   UNL     1      77.148  92.120 110.520  0.00  0.00    +0.000 OA
BRANCH  26  32
ATOM     27  O   UNL     1      78.371  94.104 110.384  0.00  0.00    +0.000 OA
ATOM     28  C   UNL     1      78.666  93.823 107.546  0.00  0.00    +0.000 C 
ATOM     29  C   UNL     1      78.932  95.146 108.264  0.00  0.00    +0.000 C 
ATOM     30  C   UNL     1      77.700  92.948 108.345  0.00  0.00    +0.000 C 
ATOM     31  C   UNL     1      79.371  94.874 109.706  0.00  0.00    +0.000 C 
ATOM     32  C   UNL     1      78.162  92.820 109.799  0.00  0.00    +0.000 C 
BRANCH  28  33
ATOM     33  O   UNL     1      78.117  94.067 106.253  0.00  0.00    +0.000 OA
ATOM     34  H   UNL     1      78.710  94.689 105.798  0.00  0.00    +0.000 HD
ENDBRANCH  28  33
BRANCH  29  35
ATOM     35  O   UNL     1      77.736  95.930 108.281  0.00  0.00    +0.000 OA
ATOM     36  H   UNL     1      76.988  95.314 108.358  0.00  0.00    +0.000 HD
ENDBRANCH  29  35
BRANCH  30  37
ATOM     37  O   UNL     1      77.658  91.644 107.766  0.00  0.00    +0.000 OA
ATOM     38  H   UNL     1      78.296  91.638 107.032  0.00  0.00    +0.000 HD
ENDBRANCH  30  37
BRANCH  31  39
ATOM     39  C   UNL     1      79.574  96.159 110.503  0.00  0.00    +0.000 C 
BRANCH  39  40
ATOM     40  O   UNL     1      80.120  97.142 109.643  0.00  0.00    +0.000 OA
ATOM     41  H   UNL     1      79.530  97.221 108.874  0.00  0.00    +0.000 HD
ENDBRANCH  39  40
ENDBRANCH  31  39
ENDBRANCH  26  32
ENDBRANCH   3  26
TORSDOF 12
ENDMDL
MODEL 4
REMARK VINA RESULT:    -9.237      2.651      7.378
REMARK INTER + INTRA:         -15.041
REMARK INTER:                 -14.889
REMARK INTRA:                  -0.152
REMARK UNBOUND:                -1.485
REMARK  Name = 5281643
REMARK  12 active torsions:
REMARK  status: ('A' for Active; 'I' for Inactive)
REMARK    1  A    between atoms: O_2  and  C_17
REMARK    2  A    between atoms: O_2  and  C_19
REMARK    3  A    between atoms: O_3  and  C_13
REMARK    4  A    between atoms: O_4  and  C_14
REMARK    5  A    between atoms: O_5  and  C_15
REMARK    6  A    between atoms: O_6  and  C_18
REMARK    7  A    between atoms: O_9  and  C_25
REMARK    8  A    between atoms: O_10  and  C_30
REMARK    9  A    between atoms: O_11  and  C_31
REMARK   10  A    between atoms: O_12  and  C_33
REMARK   11  A    between atoms: C_16  and  C_18
REMARK   12  A    between atoms: C_20  and  C_24
REMARK                            x       y       z     vdW  Elec       q    Type
REMARK                         _______ _______ _______ _____ _____    ______ ____
ROOT
ATOM      1  O   UNL     1      77.919  93.701 107.520  0.00  0.00    +0.000 OA
ATOM      2  O   UNL     1      75.811  90.821 109.484  0.00  0.00    +0.000 OA
ATOM      3  C   UNL     1      77.602  92.369 109.512  0.00  0.00    +0.000 A 
ATOM      4  C   UNL     1      78.258  93.307 108.804  0.00  0.00    +0.000 A 
ATOM      5  C   UNL     1      76.444  91.683 108.890  0.00  0.00    +0.000 A 
ATOM      6  C   UNL     1      76.100  92.096 107.521  0.00  0.00    +0.000 A 
ATOM      7  C   UNL     1      76.858  93.088 106.905  0.00  0.00    +0.000 A 
ATOM      8  C   UNL     1      75.028  91.507 106.846  0.00  0.00    +0.000 A 
ATOM      9  C   UNL     1      76.549  93.500 105.609  0.00  0.00    +0.000 A 
ATOM     10  C   UNL     1      74.721  91.920 105.549  0.00  0.00    +0.000 A 
ATOM     11  C   UNL     1      75.480  92.914 104.931  0.00  0.00    +0.000 A 
ENDROOT
BRANCH   4  12
ATOM     12  C   UNL     1      79.413  94.045 109.347  0.00  0.00    +0.000 A 
ATOM     13  C   UNL     1      79.482  95.432 109.208  0.00  0.00    +0.000 A 
ATOM     14  C   UNL     1      80.436  93.358 110.001  0.00  0.00    +0.000 A 
ATOM     15  C   UNL     1      80.574  96.131 109.722  0.00  0.00    +0.000 A 
ATOM     16  C   UNL     1      81.528  94.057 110.515  0.00  0.00    +0.000 A 
ATOM     17  C   UNL     1      81.597  95.443 110.376  0.00  0.00    +0.000 A 
BRANCH  15  18
ATOM     18  O   UNL     1      80.631  97.484 109.580  0.00  0.00    +0.000 OA
ATOM     19  H   UNL     1      79.838  97.775 109.096  0.00  0.00    +0.000 HD
ENDBRANCH  15  18
BRANCH  17  20
ATOM     20  O   UNL     1      82.668  96.115 110.883  0.00  0.00    +0.000 OA
ATOM     21  H   UNL     1      83.252  96.379 110.150  0.00  0.00    +0.000 HD
ENDBRANCH  17  20
ENDBRANCH   4  12
BRANCH   8  22
ATOM     22  O   UNL     1      74.254  90.534 107.403  0.00  0.00    +0.000 OA
ATOM     23  H   UNL     1      74.452  89.671 107.006  0.00  0.00    +0.000 HD
ENDBRANCH   8  22
BRANCH  11  24
ATOM     24  O   UNL     1      75.174  93.315 103.667  0.00  0.00    +0.000 OA
ATOM     25  H   UNL     1      75.661  92.761 103.033  0.00  0.00    +0.000 HD
ENDBRANCH  11  24
BRANCH   3  26
ATOM     26  O   UNL     1      77.945  92.022 110.801  0.00  0.00    +0.000 OA
BRANCH  26  32
ATOM     27  O   UNL     1      76.081  93.158 111.630  0.00  0.00    +0.000 OA
ATOM     28  C   UNL     1      76.108  91.608 114.042  0.00  0.00    +0.000 C 
ATOM     29  C   UNL     1      75.318  92.911 113.921  0.00  0.00    +0.000 C 
ATOM     30  C   UNL     1      77.274  91.579 113.053  0.00  0.00    +0.000 C 
ATOM     31  C   UNL     1      74.914  93.140 112.461  0.00  0.00    +0.000 C 
ATOM     32  C   UNL     1      76.795  91.923 111.641  0.00  0.00    +0.000 C 
BRANCH  28  33
ATOM     33  O   UNL     1      76.613  91.460 115.366  0.00  0.00    +0.000 OA
ATOM     34  H   UNL     1      76.864  92.344 115.683  0.00  0.00    +0.000 HD
ENDBRANCH  28  33
BRANCH  29  35
ATOM     35  O   UNL     1      76.130  94.005 114.358  0.00  0.00    +0.000 OA
ATOM     36  H   UNL     1      76.173  94.642 113.625  0.00  0.00    +0.000 HD
ENDBRANCH  29  35
BRANCH  30  37
ATOM     37  O   UNL     1      77.840  90.269 113.034  0.00  0.00    +0.000 OA
ATOM     38  H   UNL     1      78.437  90.228 112.267  0.00  0.00    +0.000 HD
ENDBRANCH  30  37
BRANCH  31  39
ATOM     39  C   UNL     1      74.192  94.468 112.260  0.00  0.00    +0.000 C 
BRANCH  39  40
ATOM     40  O   UNL     1      73.525  94.806 113.462  0.00  0.00    +0.000 OA
ATOM     41  H   UNL     1      72.584  94.932 113.251  0.00  0.00    +0.000 HD
ENDBRANCH  39  40
ENDBRANCH  31  39
ENDBRANCH  26  32
ENDBRANCH   3  26
TORSDOF 12
ENDMDL
MODEL 5
REMARK VINA RESULT:    -9.059      2.318      5.262
REMARK INTER + INTRA:         -14.780
REMARK INTER:                 -13.609
REMARK INTRA:                  -1.171
REMARK UNBOUND:                -1.485
REMARK  Name = 5281643
REMARK  12 active torsions:
REMARK  status: ('A' for Active; 'I' for Inactive)
REMARK    1  A    between atoms: O_2  and  C_17
REMARK    2  A    between atoms: O_2  and  C_19
REMARK    3  A    between atoms: O_3  and  C_13
REMARK    4  A    between atoms: O_4  and  C_14
REMARK    5  A    between atoms: O_5  and  C_15
REMARK    6  A    between atoms: O_6  and  C_18
REMARK    7  A    between atoms: O_9  and  C_25
REMARK    8  A    between atoms: O_10  and  C_30
REMARK    9  A    between atoms: O_11  and  C_31
REMARK   10  A    between atoms: O_12  and  C_33
REMARK   11  A    between atoms: C_16  and  C_18
REMARK   12  A    between atoms: C_20  and  C_24
REMARK                            x       y       z     vdW  Elec       q    Type
REMARK                         _______ _______ _______ _____ _____    ______ ____
ROOT
ATOM      1  O   UNL     1      78.712  91.698 111.505  0.00  0.00    +0.000 OA
ATOM      2  O   UNL     1      75.983  92.763 114.336  0.00  0.00    +0.000 OA
ATOM      3  C   UNL     1      76.696  92.900 112.083  0.00  0.00    +0.000 A 
ATOM      4  C   UNL     1      77.636  92.516 111.200  0.00  0.00    +0.000 A 
ATOM      5  C   UNL     1      76.807  92.445 113.490  0.00  0.00    +0.000 A 
ATOM      6  C   UNL     1      77.960  91.589 113.810  0.00  0.00    +0.000 A 
ATOM      7  C   UNL     1      78.856  91.259 112.796  0.00  0.00    +0.000 A 
ATOM      8  C   UNL     1      78.156  91.111 115.108  0.00  0.00    +0.000 A 
ATOM      9  C   UNL     1      79.955  90.446 113.074  0.00  0.00    +0.000 A 
ATOM     10  C   UNL     1      79.256  90.299 115.383  0.00  0.00    +0.000 A 
ATOM     11  C   UNL     1      80.155  89.967 114.369  0.00  0.00    +0.000 A 
ENDROOT
BRANCH   4  12
ATOM     12  C   UNL     1      77.600  92.913 109.781  0.00  0.00    +0.000 A 
ATOM     13  C   UNL     1      77.109  92.027 108.821  0.00  0.00    +0.000 A 
ATOM     14  C   UNL     1      78.055  94.175 109.398  0.00  0.00    +0.000 A 
ATOM     15  C   UNL     1      77.073  92.403 107.479  0.00  0.00    +0.000 A 
ATOM     16  C   UNL     1      78.019  94.551 108.055  0.00  0.00    +0.000 A 
ATOM     17  C   UNL     1      77.529  93.665 107.095  0.00  0.00    +0.000 A 
BRANCH  15  18
ATOM     18  O   UNL     1      76.593  91.530 106.550  0.00  0.00    +0.000 OA
ATOM     19  H   UNL     1      77.019  90.667 106.693  0.00  0.00    +0.000 HD
ENDBRANCH  15  18
BRANCH  17  20
ATOM     20  O   UNL     1      77.498  94.044 105.787  0.00  0.00    +0.000 OA
ATOM     21  H   UNL     1      78.381  94.364 105.530  0.00  0.00    +0.000 HD
ENDBRANCH  17  20
ENDBRANCH   4  12
BRANCH   8  22
ATOM     22  O   UNL     1      77.309  91.404 116.134  0.00  0.00    +0.000 OA
ATOM     23  H   UNL     1      77.692  92.083 116.710  0.00  0.00    +0.000 HD
ENDBRANCH   8  22
BRANCH  11  24
ATOM     24  O   UNL     1      81.224  89.172 114.642  0.00  0.00    +0.000 OA
ATOM     25  H   UNL     1      80.954  88.485 115.275  0.00  0.00    +0.000 HD
ENDBRANCH  11  24
BRANCH   3  26
ATOM     26  O   UNL     1      75.619  93.688 111.739  0.00  0.00    +0.000 OA
BRANCH  26  32
ATOM     27  O   UNL     1      74.012  92.325 110.735  0.00  0.00    +0.000 OA
ATOM     28  C   UNL     1      71.942  93.397 112.405  0.00  0.00    +0.000 C 
ATOM     29  C   UNL     1      71.633  92.604 111.135  0.00  0.00    +0.000 C 
ATOM     30  C   UNL     1      73.328  94.038 112.330  0.00  0.00    +0.000 C 
ATOM     31  C   UNL     1      72.771  91.618 110.849  0.00  0.00    +0.000 C 
ATOM     32  C   UNL     1      74.383  93.002 111.935  0.00  0.00    +0.000 C 
BRANCH  28  33
ATOM     33  O   UNL     1      70.964  94.415 112.599  0.00  0.00    +0.000 OA
ATOM     34  H   UNL     1      70.174  94.160 112.093  0.00  0.00    +0.000 HD
ENDBRANCH  28  33
BRANCH  29  35
ATOM     35  O   UNL     1      71.506  93.502 110.030  0.00  0.00    +0.000 OA
ATOM     36  H   UNL     1      70.808  94.140 110.254  0.00  0.00    +0.000 HD
ENDBRANCH  29  35
BRANCH  30  37
ATOM     37  O   UNL     1      73.670  94.568 113.610  0.00  0.00    +0.000 OA
ATOM     38  H   UNL     1      73.607  93.837 114.248  0.00  0.00    +0.000 HD
ENDBRANCH  30  37
BRANCH  31  39
ATOM     39  C   UNL     1      72.562  90.853 109.547  0.00  0.00    +0.000 C 
BRANCH  39  40
ATOM     40  O   UNL     1      72.075  89.559 109.856  0.00  0.00    +0.000 OA
ATOM     41  H   UNL     1      72.490  89.281 110.691  0.00  0.00    +0.000 HD
ENDBRANCH  39  40
ENDBRANCH  31  39
ENDBRANCH  26  32
ENDBRANCH   3  26
TORSDOF 12
ENDMDL
MODEL 6
REMARK VINA RESULT:    -9.028      2.518      6.811
REMARK INTER + INTRA:         -14.735
REMARK INTER:                 -13.596
REMARK INTRA:                  -1.139
REMARK UNBOUND:                -1.485
REMARK  Name = 5281643
REMARK  12 active torsions:
REMARK  status: ('A' for Active; 'I' for Inactive)
REMARK    1  A    between atoms: O_2  and  C_17
REMARK    2  A    between atoms: O_2  and  C_19
REMARK    3  A    between atoms: O_3  and  C_13
REMARK    4  A    between atoms: O_4  and  C_14
REMARK    5  A    between atoms: O_5  and  C_15
REMARK    6  A    between atoms: O_6  and  C_18
REMARK    7  A    between atoms: O_9  and  C_25
REMARK    8  A    between atoms: O_10  and  C_30
REMARK    9  A    between atoms: O_11  and  C_31
REMARK   10  A    between atoms: O_12  and  C_33
REMARK   11  A    between atoms: C_16  and  C_18
REMARK   12  A    between atoms: C_20  and  C_24
REMARK                            x       y       z     vdW  Elec       q    Type
REMARK                         _______ _______ _______ _____ _____    ______ ____
ROOT
ATOM      1  O   UNL     1      75.510  91.981 109.532  0.00  0.00    +0.000 OA
ATOM      2  O   UNL     1      77.931  94.534 107.477  0.00  0.00    +0.000 OA
ATOM      3  C   UNL     1      77.213  93.696 109.572  0.00  0.00    +0.000 A 
ATOM      4  C   UNL     1      76.383  92.834 110.188  0.00  0.00    +0.000 A 
ATOM      5  C   UNL     1      77.200  93.769 108.091  0.00  0.00    +0.000 A 
ATOM      6  C   UNL     1      76.260  92.871 107.403  0.00  0.00    +0.000 A 
ATOM      7  C   UNL     1      75.461  92.020 108.162  0.00  0.00    +0.000 A 
ATOM      8  C   UNL     1      76.169  92.866 106.008  0.00  0.00    +0.000 A 
ATOM      9  C   UNL     1      74.565  91.156 107.533  0.00  0.00    +0.000 A 
ATOM     10  C   UNL     1      75.271  92.002 105.381  0.00  0.00    +0.000 A 
ATOM     11  C   UNL     1      74.470  91.149 106.141  0.00  0.00    +0.000 A 
ENDROOT
BRANCH   4  12
ATOM     12  C   UNL     1      76.336  92.690 111.654  0.00  0.00    +0.000 A 
ATOM     13  C   UNL     1      75.601  93.595 112.421  0.00  0.00    +0.000 A 
ATOM     14  C   UNL     1      77.026  91.649 112.275  0.00  0.00    +0.000 A 
ATOM     15  C   UNL     1      75.556  93.458 113.808  0.00  0.00    +0.000 A 
ATOM     16  C   UNL     1      76.981  91.512 113.662  0.00  0.00    +0.000 A 
ATOM     17  C   UNL     1      76.247  92.417 114.429  0.00  0.00    +0.000 A 
BRANCH  15  18
ATOM     18  O   UNL     1      74.836  94.348 114.547  0.00  0.00    +0.000 OA
ATOM     19  H   UNL     1      74.337  93.853 115.220  0.00  0.00    +0.000 HD
ENDBRANCH  15  18
BRANCH  17  20
ATOM     20  O   UNL     1      76.210  92.272 115.783  0.00  0.00    +0.000 OA
ATOM     21  H   UNL     1      76.615  91.420 116.022  0.00  0.00    +0.000 HD
ENDBRANCH  17  20
ENDBRANCH   4  12
BRANCH   8  22
ATOM     22  O   UNL     1      76.927  93.677 105.220  0.00  0.00    +0.000 OA
ATOM     23  H   UNL     1      77.407  93.157 104.557  0.00  0.00    +0.000 HD
ENDBRANCH   8  22
BRANCH  11  24
ATOM     24  O   UNL     1      73.599  90.306 105.523  0.00  0.00    +0.000 OA
ATOM     25  H   UNL     1      72.722  90.401 105.934  0.00  0.00    +0.000 HD
ENDBRANCH  11  24
BRANCH   3  26
ATOM     26  O   UNL     1      78.093  94.509 110.253  0.00  0.00    +0.000 OA
BRANCH  26  32
ATOM     27  O   UNL     1      79.857  93.080 110.801  0.00  0.00    +0.000 OA
ATOM     28  C   UNL     1      81.796  95.070 110.093  0.00  0.00    +0.000 C 
ATOM     29  C   UNL     1      82.159  93.841 110.927  0.00  0.00    +0.000 C 
ATOM     30  C   UNL     1      80.311  95.406 110.227  0.00  0.00    +0.000 C 
ATOM     31  C   UNL     1      81.216  92.684 110.582  0.00  0.00    +0.000 C 
ATOM     32  C   UNL     1      79.450  94.166 109.970  0.00  0.00    +0.000 C 
BRANCH  28  33
ATOM     33  O   UNL     1      82.569  96.192 110.510  0.00  0.00    +0.000 OA
ATOM     34  H   UNL     1      82.071  96.993 110.274  0.00  0.00    +0.000 HD
ENDBRANCH  28  33
BRANCH  29  35
ATOM     35  O   UNL     1      82.029  94.150 112.317  0.00  0.00    +0.000 OA
ATOM     36  H   UNL     1      81.097  94.375 112.477  0.00  0.00    +0.000 HD
ENDBRANCH  29  35
BRANCH  30  37
ATOM     37  O   UNL     1      79.966  96.404 109.267  0.00  0.00    +0.000 OA
ATOM     38  H   UNL     1      79.789  95.944 108.428  0.00  0.00    +0.000 HD
ENDBRANCH  30  37
BRANCH  31  39
ATOM     39  C   UNL     1      81.474  91.450 111.441  0.00  0.00    +0.000 C 
BRANCH  39  40
ATOM     40  O   UNL     1      80.699  90.378 110.936  0.00  0.00    +0.000 OA
ATOM     41  H   UNL     1      80.005  90.758 110.371  0.00  0.00    +0.000 HD
ENDBRANCH  39  40
ENDBRANCH  31  39
ENDBRANCH  26  32
ENDBRANCH   3  26
TORSDOF 12
ENDMDL
MODEL 7
REMARK VINA RESULT:    -8.984     11.047     13.827
REMARK INTER + INTRA:         -14.670
REMARK INTER:                 -13.091
REMARK INTRA:                  -1.579
REMARK UNBOUND:                -1.485
REMARK  Name = 5281643
REMARK  12 active torsions:
REMARK  status: ('A' for Active; 'I' for Inactive)
REMARK    1  A    between atoms: O_2  and  C_17
REMARK    2  A    between atoms: O_2  and  C_19
REMARK    3  A    between atoms: O_3  and  C_13
REMARK    4  A    between atoms: O_4  and  C_14
REMARK    5  A    between atoms: O_5  and  C_15
REMARK    6  A    between atoms: O_6  and  C_18
REMARK    7  A    between atoms: O_9  and  C_25
REMARK    8  A    between atoms: O_10  and  C_30
REMARK    9  A    between atoms: O_11  and  C_31
REMARK   10  A    between atoms: O_12  and  C_33
REMARK   11  A    between atoms: C_16  and  C_18
REMARK   12  A    between atoms: C_20  and  C_24
REMARK                            x       y       z     vdW  Elec       q    Type
REMARK                         _______ _______ _______ _____ _____    ______ ____
ROOT
ATOM      1  O   UNL     1      86.619  90.257 113.699  0.00  0.00    +0.000 OA
ATOM      2  O   UNL     1      84.122  89.118 116.709  0.00  0.00    +0.000 OA
ATOM      3  C   UNL     1      85.447  88.485 114.852  0.00  0.00    +0.000 A 
ATOM      4  C   UNL     1      86.260  88.931 113.877  0.00  0.00    +0.000 A 
ATOM      5  C   UNL     1      84.868  89.464 115.804  0.00  0.00    +0.000 A 
ATOM      6  C   UNL     1      85.241  90.872 115.599  0.00  0.00    +0.000 A 
ATOM      7  C   UNL     1      86.102  91.197 114.553  0.00  0.00    +0.000 A 
ATOM      8  C   UNL     1      84.746  91.872 116.440  0.00  0.00    +0.000 A 
ATOM      9  C   UNL     1      86.473  92.524 114.341  0.00  0.00    +0.000 A 
ATOM     10  C   UNL     1      85.118  93.199 116.226  0.00  0.00    +0.000 A 
ATOM     11  C   UNL     1      85.980  93.525 115.178  0.00  0.00    +0.000 A 
ENDROOT
BRANCH   4  12
ATOM     12  C   UNL     1      86.886  88.028 112.894  0.00  0.00    +0.000 A 
ATOM     13  C   UNL     1      86.099  87.380 111.942  0.00  0.00    +0.000 A 
ATOM     14  C   UNL     1      88.266  87.822 112.915  0.00  0.00    +0.000 A 
ATOM     15  C   UNL     1      86.691  86.527 111.011  0.00  0.00    +0.000 A 
ATOM     16  C   UNL     1      88.858  86.968 111.985  0.00  0.00    +0.000 A 
ATOM     17  C   UNL     1      88.071  86.320 111.033  0.00  0.00    +0.000 A 
BRANCH  15  18
ATOM     18  O   UNL     1      85.912  85.899 110.087  0.00  0.00    +0.000 OA
ATOM     19  H   UNL     1      85.910  84.946 110.285  0.00  0.00    +0.000 HD
ENDBRANCH  15  18
BRANCH  17  20
ATOM     20  O   UNL     1      88.660  85.490 110.129  0.00  0.00    +0.000 OA
ATOM     21  H   UNL     1      88.636  84.579 110.472  0.00  0.00    +0.000 HD
ENDBRANCH  17  20
ENDBRANCH   4  12
BRANCH   8  22
ATOM     22  O   UNL     1      83.903  91.608 117.477  0.00  0.00    +0.000 OA
ATOM     23  H   UNL     1      83.924  90.665 117.703  0.00  0.00    +0.000 HD
ENDBRANCH   8  22
BRANCH  11  24
ATOM     24  O   UNL     1      86.343  94.820 114.975  0.00  0.00    +0.000 OA
ATOM     25  H   UNL     1      86.045  95.098 114.092  0.00  0.00    +0.000 HD
ENDBRANCH  11  24
BRANCH   3  26
ATOM     26  O   UNL     1      85.136  87.154 115.022  0.00  0.00    +0.000 OA
BRANCH  26  32
ATOM     27  O   UNL     1      86.861  85.581 114.996  0.00  0.00    +0.000 OA
ATOM     28  C   UNL     1      86.359  84.866 117.728  0.00  0.00    +0.000 C 
ATOM     29  C   UNL     1      87.200  83.990 116.799  0.00  0.00    +0.000 C 
ATOM     30  C   UNL     1      85.385  85.735 116.931  0.00  0.00    +0.000 C 
ATOM     31  C   UNL     1      87.862  84.859 115.725  0.00  0.00    +0.000 C 
ATOM     32  C   UNL     1      86.116  86.483 115.813  0.00  0.00    +0.000 C 
BRANCH  28  33
ATOM     33  O   UNL     1      85.625  84.053 118.639  0.00  0.00    +0.000 OA
ATOM     34  H   UNL     1      85.862  84.337 119.538  0.00  0.00    +0.000 HD
ENDBRANCH  28  33
BRANCH  29  35
ATOM     35  O   UNL     1      86.360  83.022 116.164  0.00  0.00    +0.000 OA
ATOM     36  H   UNL     1      86.578  83.028 115.217  0.00  0.00    +0.000 HD
ENDBRANCH  29  35
BRANCH  30  37
ATOM     37  O   UNL     1      84.789  86.694 117.804  0.00  0.00    +0.000 OA
ATOM     38  H   UNL     1      84.532  87.455 117.257  0.00  0.00    +0.000 HD
ENDBRANCH  30  37
BRANCH  31  39
ATOM     39  C   UNL     1      88.651  84.032 114.715  0.00  0.00    +0.000 C 
BRANCH  39  40
ATOM     40  O   UNL     1      87.857  83.856 113.556  0.00  0.00    +0.000 OA
ATOM     41  H   UNL     1      87.188  84.562 113.548  0.00  0.00    +0.000 HD
ENDBRANCH  39  40
ENDBRANCH  31  39
ENDBRANCH  26  32
ENDBRANCH   3  26
TORSDOF 12
ENDMDL
MODEL 8
REMARK VINA RESULT:    -8.945      2.900      5.833
REMARK INTER + INTRA:         -14.613
REMARK INTER:                 -13.064
REMARK INTRA:                  -1.550
REMARK UNBOUND:                -1.485
REMARK  Name = 5281643
REMARK  12 active torsions:
REMARK  status: ('A' for Active; 'I' for Inactive)
REMARK    1  A    between atoms: O_2  and  C_17
REMARK    2  A    between atoms: O_2  and  C_19
REMARK    3  A    between atoms: O_3  and  C_13
REMARK    4  A    between atoms: O_4  and  C_14
REMARK    5  A    between atoms: O_5  and  C_15
REMARK    6  A    between atoms: O_6  and  C_18
REMARK    7  A    between atoms: O_9  and  C_25
REMARK    8  A    between atoms: O_10  and  C_30
REMARK    9  A    between atoms: O_11  and  C_31
REMARK   10  A    between atoms: O_12  and  C_33
REMARK   11  A    between atoms: C_16  and  C_18
REMARK   12  A    between atoms: C_20  and  C_24
REMARK                            x       y       z     vdW  Elec       q    Type
REMARK                         _______ _______ _______ _____ _____    ______ ____
ROOT
ATOM      1  O   UNL     1      80.335  91.939 111.373  0.00  0.00    +0.000 OA
ATOM      2  O   UNL     1      78.337  92.121 114.919  0.00  0.00    +0.000 OA
ATOM      3  C   UNL     1      78.689  93.036 112.764  0.00  0.00    +0.000 A 
ATOM      4  C   UNL     1      79.389  92.921 111.620  0.00  0.00    +0.000 A 
ATOM      5  C   UNL     1      78.942  92.066 113.857  0.00  0.00    +0.000 A 
ATOM      6  C   UNL     1      79.958  91.036 113.594  0.00  0.00    +0.000 A 
ATOM      7  C   UNL     1      80.604  91.026 112.360  0.00  0.00    +0.000 A 
ATOM      8  C   UNL     1      80.272  90.078 114.561  0.00  0.00    +0.000 A 
ATOM      9  C   UNL     1      81.569  90.057 112.084  0.00  0.00    +0.000 A 
ATOM     10  C   UNL     1      81.238  89.111 114.284  0.00  0.00    +0.000 A 
ATOM     11  C   UNL     1      81.886  89.100 113.048  0.00  0.00    +0.000 A 
ENDROOT
BRANCH   4  12
ATOM     12  C   UNL     1      79.196  93.835 110.480  0.00  0.00    +0.000 A 
ATOM     13  C   UNL     1      79.821  95.083 110.472  0.00  0.00    +0.000 A 
ATOM     14  C   UNL     1      78.390  93.452 109.407  0.00  0.00    +0.000 A 
ATOM     15  C   UNL     1      79.639  95.947 109.392  0.00  0.00    +0.000 A 
ATOM     16  C   UNL     1      78.209  94.316 108.328  0.00  0.00    +0.000 A 
ATOM     17  C   UNL     1      78.833  95.564 108.320  0.00  0.00    +0.000 A 
BRANCH  15  18
ATOM     18  O   UNL     1      80.253  97.163 109.396  0.00  0.00    +0.000 OA
ATOM     19  H   UNL     1      80.729  97.268 108.553  0.00  0.00    +0.000 HD
ENDBRANCH  15  18
BRANCH  17  20
ATOM     20  O   UNL     1      78.648  96.399 107.260  0.00  0.00    +0.000 OA
ATOM     21  H   UNL     1      77.751  96.774 107.305  0.00  0.00    +0.000 HD
ENDBRANCH  17  20
ENDBRANCH   4  12
BRANCH   8  22
ATOM     22  O   UNL     1      79.669  90.043 115.782  0.00  0.00    +0.000 OA
ATOM     23  H   UNL     1      80.305  89.793 116.470  0.00  0.00    +0.000 HD
ENDBRANCH   8  22
BRANCH  11  24
ATOM     24  O   UNL     1      82.825  88.152 112.782  0.00  0.00    +0.000 OA
ATOM     25  H   UNL     1      82.777  87.916 111.839  0.00  0.00    +0.000 HD
ENDBRANCH  11  24
BRANCH   3  26
ATOM     26  O   UNL     1      77.731  94.005 112.966  0.00  0.00    +0.000 OA
BRANCH  26  32
ATOM     27  O   UNL     1      75.914  93.944 111.500  0.00  0.00    +0.000 OA
ATOM     28  C   UNL     1      74.071  93.603 113.670  0.00  0.00    +0.000 C 
ATOM     29  C   UNL     1      73.614  94.022 112.273  0.00  0.00    +0.000 C 
ATOM     30  C   UNL     1      75.532  93.984 113.908  0.00  0.00    +0.000 C 
ATOM     31  C   UNL     1      74.588  93.478 111.223  0.00  0.00    +0.000 C 
ATOM     32  C   UNL     1      76.415  93.493 112.757  0.00  0.00    +0.000 C 
BRANCH  28  33
ATOM     33  O   UNL     1      73.257  94.224 114.661  0.00  0.00    +0.000 OA
ATOM     34  H   UNL     1      72.593  93.572 114.942  0.00  0.00    +0.000 HD
ENDBRANCH  28  33
BRANCH  29  35
ATOM     35  O   UNL     1      73.586  95.449 112.187  0.00  0.00    +0.000 OA
ATOM     36  H   UNL     1      73.377  95.680 111.266  0.00  0.00    +0.000 HD
ENDBRANCH  29  35
BRANCH  30  37
ATOM     37  O   UNL     1      75.985  93.378 115.118  0.00  0.00    +0.000 OA
ATOM     38  H   UNL     1      76.826  93.806 115.353  0.00  0.00    +0.000 HD
ENDBRANCH  30  37
BRANCH  31  39
ATOM     39  C   UNL     1      74.233  93.932 109.811  0.00  0.00    +0.000 C 
BRANCH  39  40
ATOM     40  O   UNL     1      74.789  95.216 109.596  0.00  0.00    +0.000 OA
ATOM     41  H   UNL     1      74.804  95.373 108.636  0.00  0.00    +0.000 HD
ENDBRANCH  39  40
ENDBRANCH  31  39
ENDBRANCH  26  32
ENDBRANCH   3  26
TORSDOF 12
ENDMDL
MODEL 9
REMARK VINA RESULT:    -8.918      9.540     14.056
REMARK INTER + INTRA:         -14.573
REMARK INTER:                 -13.624
REMARK INTRA:                  -0.949
REMARK UNBOUND:                -1.485
REMARK  Name = 5281643
REMARK  12 active torsions:
REMARK  status: ('A' for Active; 'I' for Inactive)
REMARK    1  A    between atoms: O_2  and  C_17
REMARK    2  A    between atoms: O_2  and  C_19
REMARK    3  A    between atoms: O_3  and  C_13
REMARK    4  A    between atoms: O_4  and  C_14
REMARK    5  A    between atoms: O_5  and  C_15
REMARK    6  A    between atoms: O_6  and  C_18
REMARK    7  A    between atoms: O_9  and  C_25
REMARK    8  A    between atoms: O_10  and  C_30
REMARK    9  A    between atoms: O_11  and  C_31
REMARK   10  A    between atoms: O_12  and  C_33
REMARK   11  A    between atoms: C_16  and  C_18
REMARK   12  A    between atoms: C_20  and  C_24
REMARK                            x       y       z     vdW  Elec       q    Type
REMARK                         _______ _______ _______ _____ _____    ______ ____
ROOT
ATOM      1  O   UNL     1      90.242  85.807 111.788  0.00  0.00    +0.000 OA
ATOM      2  O   UNL     1      87.690  86.368 108.662  0.00  0.00    +0.000 OA
ATOM      3  C   UNL     1      87.971  86.006 110.985  0.00  0.00    +0.000 A 
ATOM      4  C   UNL     1      88.868  85.819 111.970  0.00  0.00    +0.000 A 
ATOM      5  C   UNL     1      88.459  86.195 109.598  0.00  0.00    +0.000 A 
ATOM      6  C   UNL     1      89.918  86.165 109.410  0.00  0.00    +0.000 A 
ATOM      7  C   UNL     1      90.737  85.972 110.520  0.00  0.00    +0.000 A 
ATOM      8  C   UNL     1      90.479  86.330 108.141  0.00  0.00    +0.000 A 
ATOM      9  C   UNL     1      92.123  85.943 110.369  0.00  0.00    +0.000 A 
ATOM     10  C   UNL     1      91.865  86.300 107.992  0.00  0.00    +0.000 A 
ATOM     11  C   UNL     1      92.686  86.107 109.103  0.00  0.00    +0.000 A 
ENDROOT
BRANCH   4  12
ATOM     12  C   UNL     1      88.472  85.633 113.377  0.00  0.00    +0.000 A 
ATOM     13  C   UNL     1      88.346  86.739 114.219  0.00  0.00    +0.000 A 
ATOM     14  C   UNL     1      88.222  84.352 113.869  0.00  0.00    +0.000 A 
ATOM     15  C   UNL     1      87.970  86.563 115.550  0.00  0.00    +0.000 A 
ATOM     16  C   UNL     1      87.846  84.176 115.200  0.00  0.00    +0.000 A 
ATOM     17  C   UNL     1      87.721  85.281 116.041  0.00  0.00    +0.000 A 
BRANCH  15  18
ATOM     18  O   UNL     1      87.852  87.650 116.363  0.00  0.00    +0.000 OA
ATOM     19  H   UNL     1      86.992  88.072 116.186  0.00  0.00    +0.000 HD
ENDBRANCH  15  18
BRANCH  17  20
ATOM     20  O   UNL     1      87.352  85.097 117.339  0.00  0.00    +0.000 OA
ATOM     21  H   UNL     1      87.972  85.578 117.916  0.00  0.00    +0.000 HD
ENDBRANCH  17  20
ENDBRANCH   4  12
BRANCH   8  22
ATOM     22  O   UNL     1      89.723  86.523 107.024  0.00  0.00    +0.000 OA
ATOM     23  H   UNL     1      88.779  86.513 107.245  0.00  0.00    +0.000 HD
ENDBRANCH   8  22
BRANCH  11  24
ATOM     24  O   UNL     1      94.038  86.082 108.953  0.00  0.00    +0.000 OA
ATOM     25  H   UNL     1      94.251  85.802 108.047  0.00  0.00    +0.000 HD
ENDBRANCH  11  24
BRANCH   3  26
ATOM     26  O   UNL     1      86.611  86.046 111.204  0.00  0.00    +0.000 OA
BRANCH  26  32
ATOM     27  O   UNL     1      85.524  87.002 113.037  0.00  0.00    +0.000 OA
ATOM     28  C   UNL     1      84.724  89.273 111.479  0.00  0.00    +0.000 C 
ATOM     29  C   UNL     1      84.083  88.944 112.828  0.00  0.00    +0.000 C 
ATOM     30  C   UNL     1      85.313  88.020 110.831  0.00  0.00    +0.000 C 
ATOM     31  C   UNL     1      85.083  88.188 113.708  0.00  0.00    +0.000 C 
ATOM     32  C   UNL     1      86.214  87.273 111.817  0.00  0.00    +0.000 C 
BRANCH  28  33
ATOM     33  O   UNL     1      83.758  89.845 110.602  0.00  0.00    +0.000 OA
ATOM     34  H   UNL     1      84.082  89.724 109.694  0.00  0.00    +0.000 HD
ENDBRANCH  28  33
BRANCH  29  35
ATOM     35  O   UNL     1      82.930  88.124 112.622  0.00  0.00    +0.000 OA
ATOM     36  H   UNL     1      82.254  88.411 113.258  0.00  0.00    +0.000 HD
ENDBRANCH  29  35
BRANCH  30  37
ATOM     37  O   UNL     1      86.096  88.401 109.700  0.00  0.00    +0.000 OA
ATOM     38  H   UNL     1      85.475  88.664 108.999  0.00  0.00    +0.000 HD
ENDBRANCH  30  37
BRANCH  31  39
ATOM     39  C   UNL     1      84.476  87.758 115.039  0.00  0.00    +0.000 C 
BRANCH  39  40
ATOM     40  O   UNL     1      84.120  86.391 114.953  0.00  0.00    +0.000 OA
ATOM     41  H   UNL     1      83.957  86.188 114.016  0.00  0.00    +0.000 HD
ENDBRANCH  39  40
ENDBRANCH  31  39
ENDBRANCH  26  32
ENDBRANCH   3  26
TORSDOF 12
ENDMDL
MODEL 10
REMARK VINA RESULT:    -8.865      3.986      7.874
REMARK INTER + INTRA:         -14.496
REMARK INTER:                 -13.486
REMARK INTRA:                  -1.010
REMARK UNBOUND:                -1.485
REMARK  Name = 5281643
REMARK  12 active torsions:
REMARK  status: ('A' for Active; 'I' for Inactive)
REMARK    1  A    between atoms: O_2  and  C_17
REMARK    2  A    between atoms: O_2  and  C_19
REMARK    3  A    between atoms: O_3  and  C_13
REMARK    4  A    between atoms: O_4  and  C_14
REMARK    5  A    between atoms: O_5  and  C_15
REMARK    6  A    between atoms: O_6  and  C_18
REMARK    7  A    between atoms: O_9  and  C_25
REMARK    8  A    between atoms: O_10  and  C_30
REMARK    9  A    between atoms: O_11  and  C_31
REMARK   10  A    between atoms: O_12  and  C_33
REMARK   11  A    between atoms: C_16  and  C_18
REMARK   12  A    between atoms: C_20  and  C_24
REMARK                            x       y       z     vdW  Elec       q    Type
REMARK                         _______ _______ _______ _____ _____    ______ ____
ROOT
ATOM      1  O   UNL     1      83.492  91.283 111.387  0.00  0.00    +0.000 OA
ATOM      2  O   UNL     1      81.711  89.841 114.756  0.00  0.00    +0.000 OA
ATOM      3  C   UNL     1      81.913  91.605 113.189  0.00  0.00    +0.000 A 
ATOM      4  C   UNL     1      82.544  92.022 112.077  0.00  0.00    +0.000 A 
ATOM      5  C   UNL     1      82.251  90.272 113.746  0.00  0.00    +0.000 A 
ATOM      6  C   UNL     1      83.270  89.500 113.018  0.00  0.00    +0.000 A 
ATOM      7  C   UNL     1      83.839  90.048 111.871  0.00  0.00    +0.000 A 
ATOM      8  C   UNL     1      83.661  88.235 113.464  0.00  0.00    +0.000 A 
ATOM      9  C   UNL     1      84.804  89.334 111.161  0.00  0.00    +0.000 A 
ATOM     10  C   UNL     1      84.627  87.523 112.753  0.00  0.00    +0.000 A 
ATOM     11  C   UNL     1      85.198  88.071 111.604  0.00  0.00    +0.000 A 
ENDROOT
BRANCH   4  12
ATOM     12  C   UNL     1      82.264  93.326 111.450  0.00  0.00    +0.000 A 
ATOM     13  C   UNL     1      83.129  94.401 111.659  0.00  0.00    +0.000 A 
ATOM     14  C   UNL     1      81.134  93.487 110.647  0.00  0.00    +0.000 A 
ATOM     15  C   UNL     1      82.864  95.635 111.066  0.00  0.00    +0.000 A 
ATOM     16  C   UNL     1      80.870  94.721 110.053  0.00  0.00    +0.000 A 
ATOM     17  C   UNL     1      81.734  95.795 110.263  0.00  0.00    +0.000 A 
BRANCH  15  18
ATOM     18  O   UNL     1      83.715  96.677 111.278  0.00  0.00    +0.000 OA
ATOM     19  H   UNL     1      83.185  97.483 111.413  0.00  0.00    +0.000 HD
ENDBRANCH  15  18
BRANCH  17  20
ATOM     20  O   UNL     1      81.466  96.995 109.677  0.00  0.00    +0.000 OA
ATOM     21  H   UNL     1      81.500  96.890 108.710  0.00  0.00    +0.000 HD
ENDBRANCH  17  20
ENDBRANCH   4  12
BRANCH   8  22
ATOM     22  O   UNL     1      83.135  87.654 114.578  0.00  0.00    +0.000 OA
ATOM     23  H   UNL     1      83.201  88.252 115.339  0.00  0.00    +0.000 HD
ENDBRANCH   8  22
BRANCH  11  24
ATOM     24  O   UNL     1      86.137  87.371 110.911  0.00  0.00    +0.000 OA
ATOM     25  H   UNL     1      85.817  87.224 110.005  0.00  0.00    +0.000 HD
ENDBRANCH  11  24
BRANCH   3  26
ATOM     26  O   UNL     1      80.950  92.351 113.833  0.00  0.00    +0.000 OA
BRANCH  26  32
ATOM     27  O   UNL     1      78.918  91.892 112.777  0.00  0.00    +0.000 OA
ATOM     28  C   UNL     1      77.604  91.507 115.297  0.00  0.00    +0.000 C 
ATOM     29  C   UNL     1      76.827  91.719 113.998  0.00  0.00    +0.000 C 
ATOM     30  C   UNL     1      79.005  92.112 115.204  0.00  0.00    +0.000 C 
ATOM     31  C   UNL     1      77.654  91.218 112.810  0.00  0.00    +0.000 C 
ATOM     32  C   UNL     1      79.716  91.640 113.934  0.00  0.00    +0.000 C 
BRANCH  28  33
ATOM     33  O   UNL     1      76.908  92.101 116.389  0.00  0.00    +0.000 OA
ATOM     34  H   UNL     1      77.389  91.869 117.202  0.00  0.00    +0.000 HD
ENDBRANCH  28  33
BRANCH  29  35
ATOM     35  O   UNL     1      76.558  93.113 113.824  0.00  0.00    +0.000 OA
ATOM     36  H   UNL     1      76.254  93.237 112.909  0.00  0.00    +0.000 HD
ENDBRANCH  29  35
BRANCH  30  37
ATOM     37  O   UNL     1      79.772  91.697 116.334  0.00  0.00    +0.000 OA
ATOM     38  H   UNL     1      80.613  92.183 116.301  0.00  0.00    +0.000 HD
ENDBRANCH  30  37
BRANCH  31  39
ATOM     39  C   UNL     1      76.967  91.478 111.473  0.00  0.00    +0.000 C 
BRANCH  39  40
ATOM     40  O   UNL     1      77.233  90.388 110.609  0.00  0.00    +0.000 OA
ATOM     41  H   UNL     1      78.198  90.272 110.570  0.00  0.00    +0.000 HD
ENDBRANCH  39  40
ENDBRANCH  31  39
ENDBRANCH  26  32
ENDBRANCH   3  26
TORSDOF 12
ENDMDL
