REMARK VINA RESULT:      -8.8      0.998      8.138
REMARK  13 active torsions:
REMARK  status: ('A' for Active; 'I' for Inactive)
REMARK    1  A    between atoms: C_2  and  O_3 
REMARK    2  A    between atoms: C_15  and  O_16 
REMARK    3  A    between atoms: C_28  and  O_29 
REMARK    4  A    between atoms: C_41  and  O_42 
REMARK    5  A    between atoms: C_54  and  C_55 
REMARK    6  A    between atoms: O_3  and  C_4 
REMARK    7  A    between atoms: C_4  and  C_6 
REMARK    8  A    between atoms: O_16  and  C_17 
REMARK    9  A    between atoms: C_17  and  C_19 
REMARK   10  A    between atoms: O_29  and  C_30 
REMARK   11  A    between atoms: C_30  and  C_32 
REMARK   12  A    between atoms: O_42  and  C_43 
REMARK   13  A    between atoms: C_43  and  C_45 
ROOT
ATOM      1  O   LIG     1     173.504 175.392 169.633  0.00  0.00    -0.314 OA
ATOM      2  C   LIG     1     174.741 176.118 169.800  0.00  0.00     0.335 C 
ATOM      3  C   LIG     1     175.411 175.788 171.164  0.00  0.00     0.282 C 
ATOM      4  C   LIG     1     175.553 174.244 171.326  0.00  0.00     0.257 C 
ATOM      5  C   LIG     1     174.198 173.522 171.068  0.00  0.00     0.242 C 
ATOM      6  C   LIG     1     173.610 173.957 169.692  0.00  0.00     0.195 C 
ENDROOT
BRANCH   2   7
ATOM      7  O   LIG     1     174.368 177.500 169.750  0.00  0.00    -0.417 OA
BRANCH   7   8
ATOM      8  C   LIG     1     174.784 178.327 168.749  0.00  0.00     0.343 C 
ATOM      9  O   LIG     1     173.949 178.616 167.860  0.00  0.00    -0.245 OA
BRANCH   8  10
ATOM     10  C   LIG     1     176.094 178.881 168.767  0.00  0.00     0.082 A 
ATOM     11  C   LIG     1     177.164 178.244 168.090  0.00  0.00     0.052 A 
ATOM     12  C   LIG     1     178.437 178.843 168.011  0.00  0.00     0.238 A 
ATOM     13  C   LIG     1     178.660 180.098 168.612  0.00  0.00     0.273 A 
ATOM     14  O   LIG     1     179.441 178.219 167.348  0.00  0.00    -0.283 OA
ATOM     15  C   LIG     1     177.618 180.732 169.314  0.00  0.00     0.238 A 
ATOM     16  O   LIG     1     179.865 180.716 168.520  0.00  0.00    -0.280 OA
ATOM     17  C   LIG     1     176.353 180.120 169.404  0.00  0.00     0.052 A 
ATOM     18  O   LIG     1     177.836 181.941 169.891  0.00  0.00    -0.283 OA
ENDBRANCH   8  10
ENDBRANCH   7   8
ENDBRANCH   2   7
BRANCH   3  19
ATOM     19  O   LIG     1     176.719 176.376 171.277  0.00  0.00    -0.439 OA
BRANCH  19  20
ATOM     20  C   LIG     1     177.055 177.448 172.052  0.00  0.00     0.342 C 
ATOM     21  O   LIG     1     176.175 177.826 172.861  0.00  0.00    -0.245 OA
BRANCH  20  22
ATOM     22  C   LIG     1     178.282 178.153 171.909  0.00  0.00     0.082 A 
ATOM     23  C   LIG     1     178.441 179.456 172.440  0.00  0.00     0.052 A 
ATOM     24  C   LIG     1     179.653 180.159 172.298  0.00  0.00     0.238 A 
ATOM     25  O   LIG     1     179.749 181.406 172.827  0.00  0.00    -0.283 OA
ATOM     26  C   LIG     1     180.735 179.570 171.615  0.00  0.00     0.273 A 
ATOM     27  O   LIG     1     181.899 180.260 171.483  0.00  0.00    -0.280 OA
ATOM     28  C   LIG     1     180.596 178.274 171.078  0.00  0.00     0.238 A 
ATOM     29  C   LIG     1     179.381 177.576 171.229  0.00  0.00     0.052 A 
ATOM     30  O   LIG     1     181.634 177.705 170.413  0.00  0.00    -0.283 OA
ENDBRANCH  20  22
ENDBRANCH  19  20
ENDBRANCH   3  19
BRANCH   4  31
ATOM     31  O   LIG     1     176.012 173.895 172.647  0.00  0.00    -0.441 OA
BRANCH  31  32
ATOM     32  C   LIG     1     177.251 173.431 173.000  0.00  0.00     0.342 C 
ATOM     33  O   LIG     1     177.283 172.651 173.979  0.00  0.00    -0.245 OA
BRANCH  32  34
ATOM     34  C   LIG     1     178.438 173.695 172.259  0.00  0.00     0.082 A 
ATOM     35  C   LIG     1     179.542 174.354 172.854  0.00  0.00     0.052 A 
ATOM     36  C   LIG     1     180.723 174.596 172.123  0.00  0.00     0.238 A 
ATOM     37  C   LIG     1     180.819 174.177 170.783  0.00  0.00     0.273 A 
ATOM     38  O   LIG     1     181.772 175.233 172.702  0.00  0.00    -0.283 OA
ATOM     39  O   LIG     1     181.963 174.405 170.090  0.00  0.00    -0.280 OA
ATOM     40  C   LIG     1     179.727 173.528 170.173  0.00  0.00     0.238 A 
ATOM     41  O   LIG     1     179.811 173.143 168.875  0.00  0.00    -0.283 OA
ATOM     42  C   LIG     1     178.554 173.282 170.911  0.00  0.00     0.052 A 
ENDBRANCH  32  34
ENDBRANCH  31  32
ENDBRANCH   4  31
BRANCH   6  43
ATOM     43  C   LIG     1     172.195 173.380 169.434  0.00  0.00     0.215 C 
ATOM     44  O   LIG     1     171.331 173.660 170.532  0.00  0.00    -0.218 OA
ENDBRANCH   6  43
BRANCH   5  45
ATOM     45  O   LIG     1     174.393 172.093 171.050  0.00  0.00    -0.443 OA
BRANCH  45  46
ATOM     46  C   LIG     1     173.899 171.149 171.908  0.00  0.00     0.341 C 
ATOM     47  O   LIG     1     172.703 170.828 171.718  0.00  0.00    -0.245 OA
BRANCH  46  48
ATOM     48  C   LIG     1     174.601 170.609 173.015  0.00  0.00     0.082 A 
ATOM     49  C   LIG     1     174.183 171.017 174.350  0.00  0.00     0.052 A 
ATOM     50  C   LIG     1     174.898 170.511 175.457  0.00  0.00     0.238 A 
ATOM     51  O   LIG     1     174.543 170.889 176.711  0.00  0.00    -0.283 OA
ATOM     52  C   LIG     1     175.984 169.618 175.308  0.00  0.00     0.273 A 
ATOM     53  O   LIG     1     176.626 169.155 176.416  0.00  0.00    -0.280 OA
ATOM     54  C   LIG     1     176.373 169.228 173.962  0.00  0.00     0.238 A 
ATOM     55  O   LIG     1     177.452 168.343 173.942  0.00  0.00    -0.283 OA
ATOM     56  C   LIG     1     175.708 169.711 172.740  0.00  0.00     0.052 A 
ENDBRANCH  46  48
ENDBRANCH  45  46
ENDBRANCH   5  45
TORSDOF 13
