REMARK  14 active torsions:
REMARK  status: ('A' for Active; 'I' for Inactive)
REMARK    1  A    between atoms: O1_1  and  C15_15 
REMARK    2  A    between atoms: O2_2  and  C20_20 
REMARK    3  A    between atoms: N5_5  and  C13_13 
REMARK    4  A    between atoms: N6_6  and  C21_21 
REMARK    5  A    between atoms: N7_7  and  C18_18 
REMARK       I    between atoms: N7_7  and  C24_24 
REMARK    6  A    between atoms: N8_8  and  C27_27 
REMARK       I    between atoms: N8_8  and  C19_19 
REMARK    7  A    between atoms: C10_10  and  C19_19 
REMARK    8  A    between atoms: C13_13  and  C15_15 
REMARK    9  A    between atoms: C15_15  and  C16_16 
REMARK   10  A    between atoms: C16_16  and  C17_17 
REMARK   11  A    between atoms: C17_17  and  C24_24 
REMARK   12  A    between atoms: C17_17  and  C25_25 
REMARK   13  A    between atoms: C21_21  and  C28_28 
REMARK   14  A    between atoms: C25_25  and  C30_30 
ROOT
HETATM    1  C15         0       7.607   0.736  -0.104  1.00  0.00     0.000 C 
ENDROOT
BRANCH   1   2
HETATM    2  O1          0       7.393   0.395   1.281  1.00  0.00     0.000 OA
HETATM    3  H69         0       7.933  -0.369   1.547  1.00  0.00     0.000 HD
ENDBRANCH   1   2
BRANCH   1   4
HETATM    4  C16         0       6.570   1.912  -0.488  1.00  0.00     0.000 C 
BRANCH   4   5
HETATM    5  C17         0       5.006   1.777   0.047  1.00  0.00     0.000 C 
BRANCH   5   6
HETATM    6  C24         0       4.297   0.367  -0.116  1.00  0.00     0.000 C 
HETATM    7  O4          0       4.995  -0.615  -0.417  1.00  0.00     0.000 OA
HETATM    8  N7          0       2.962   0.203   0.220  1.00  0.00     0.000 N 
HETATM    9  H67         0       2.441   1.010   0.486  1.00  0.00     0.000 HD
BRANCH   8  10
HETATM   10  C18         0       2.258  -1.139   0.383  1.00  0.00     0.000 C 
HETATM   11  C23         0       0.844  -1.352  -0.108  1.00  0.00     0.000 A 
HETATM   12  C26         0       0.574  -2.753  -0.145  1.00  0.00     0.000 A 
HETATM   13  C29         0      -0.117  -0.447  -0.324  1.00  0.00     0.000 A 
HETATM   14  C22         0       1.814  -3.552   0.255  1.00  0.00     0.000 C 
HETATM   15  C31         0      -0.638  -3.240  -0.391  1.00  0.00     0.000 A 
HETATM   16  C20         0       2.928  -2.476  -0.070  1.00  0.00     0.000 C 
HETATM   17  C36         0      -1.728  -2.277  -0.681  1.00  0.00     0.000 A 
HETATM   18  C35         0      -1.482  -0.958  -0.656  1.00  0.00     0.000 A 
BRANCH  16  19
HETATM   19  O2          0       3.172  -2.470  -1.467  1.00  0.00     0.000 OA
HETATM   20  H81         0       3.620  -3.338  -1.703  1.00  0.00     0.000 HD
ENDBRANCH  16  19
ENDBRANCH   8  10
ENDBRANCH   5   6
BRANCH   5  21
HETATM   21  C25         0       4.017   2.911  -0.506  1.00  0.00     0.000 C 
BRANCH  21  22
HETATM   22  C30         0       4.314   4.414  -0.227  1.00  0.00     0.000 A 
HETATM   23  C40         0       3.256   5.395  -0.546  1.00  0.00     0.000 A 
HETATM   24  C43         0       3.439   6.696  -0.319  1.00  0.00     0.000 A 
HETATM   25  C44         0       4.700   7.170   0.245  1.00  0.00     0.000 A 
HETATM   26  C42         0       5.662   6.296   0.539  1.00  0.00     0.000 A 
HETATM   27  C39         0       5.459   4.856   0.299  1.00  0.00     0.000 A 
ENDBRANCH  21  22
ENDBRANCH   5  21
ENDBRANCH   4   5
ENDBRANCH   1   4
BRANCH   1  28
HETATM   28  C13         0       9.189   1.191  -0.373  1.00  0.00     0.000 C 
BRANCH  28  29
HETATM   29  N5          0      10.319   0.077  -0.461  1.00  0.00     0.000 N 
HETATM   30  C12         0       9.872  -1.241   0.047  1.00  0.00     0.000 C 
HETATM   31  C14         0      10.866  -2.353  -0.388  1.00  0.00     0.000 C 
HETATM   32  N6          0      12.184  -2.128   0.235  1.00  0.00     0.000 N 
HETATM   33  C11         0      12.653  -0.846  -0.243  1.00  0.00     0.000 C 
HETATM   34  C10         0      11.774   0.380   0.104  1.00  0.00     0.000 C 
BRANCH  32  35
HETATM   35  C21         0      13.267  -3.070  -0.245  1.00  0.00     0.000 C 
BRANCH  35  36
HETATM   36  C28         0      13.175  -4.586  -0.013  1.00  0.00     0.000 A 
HETATM   37  C38         0      12.093  -5.200   0.469  1.00  0.00     0.000 A 
HETATM   38  N9          0      12.074  -6.602   0.633  1.00  0.00     0.000 NA
HETATM   39  C45         0      13.081  -7.323   0.331  1.00  0.00     0.000 A 
HETATM   40  C41         0      14.299  -6.713  -0.193  1.00  0.00     0.000 A 
HETATM   41  C37         0      14.343  -5.396  -0.359  1.00  0.00     0.000 A 
ENDBRANCH  35  36
ENDBRANCH  32  35
BRANCH  34  42
HETATM   42  C19         0      12.467   1.739  -0.468  1.00  0.00     0.000 C 
HETATM   43  O3          0      11.739   2.570  -0.971  1.00  0.00     0.000 OA
HETATM   44  N8          0      13.836   2.079  -0.440  1.00  0.00     0.000 N 
HETATM   45  H68         0      14.057   2.969  -0.844  1.00  0.00     0.000 HD
BRANCH  44  46
HETATM   46  C27         0      14.984   1.294   0.100  1.00  0.00     0.000 C 
HETATM   47  C34         0      15.299   1.076  -1.406  1.00  0.00     0.000 C 
HETATM   48  C32         0      16.525   1.416   0.047  1.00  0.00     0.000 C 
HETATM   49  C33         0      15.246   2.568   0.929  1.00  0.00     0.000 C 
ENDBRANCH  44  46
ENDBRANCH  34  42
ENDBRANCH  28  29
ENDBRANCH   1  28
TORSDOF 14
