MODEL 1
REMARK VINA RESULT:      -7.6      0.000      0.000
REMARK  13 active torsions:
REMARK  status: ('A' for Active; 'I' for Inactive)
REMARK    1  A    between atoms: C_2  and  O_12 
REMARK    2  A    between atoms: C_3  and  O_10 
REMARK    3  A    between atoms: C_4  and  O_8 
REMARK    4  A    between atoms: C_5  and  O_6 
REMARK    5  A    between atoms: C_22  and  C_23 
REMARK    6  A    between atoms: O_12  and  C_13 
REMARK    7  A    between atoms: C_13  and  C_14 
REMARK    8  A    between atoms: C_15  and  C_16 
REMARK    9  A    between atoms: C_23  and  O_24 
REMARK   10  A    between atoms: O_24  and  C_25 
REMARK   11  A    between atoms: C_26  and  O_34 
REMARK   12  A    between atoms: C_27  and  O_32 
REMARK   13  A    between atoms: C_28  and  O_30 
ROOT
ATOM      1  O   LIG     1       7.360  43.390  20.073  0.00  0.00    -0.341 OA
ATOM      2  C   LIG     1       6.253  43.834  19.292  0.00  0.00     0.282 C 
ATOM      3  C   LIG     1       6.184  45.361  19.281  0.00  0.00     0.201 C 
ATOM      4  C   LIG     1       7.509  45.975  18.831  0.00  0.00     0.179 C 
ATOM      5  C   LIG     1       8.688  45.357  19.581  0.00  0.00     0.177 C 
ATOM      6  C   LIG     1       8.614  43.828  19.546  0.00  0.00     0.178 C 
ENDROOT
BRANCH   6   7
ATOM      7  C   LIG     1       9.716  43.189  20.385  0.00  0.00     0.197 C 
BRANCH   7   8
ATOM      8  O   LIG     1      10.235  44.168  21.268  0.00  0.00    -0.346 OA
BRANCH   8   9
ATOM      9  C   LIG     1      10.419  43.650  22.581  0.00  0.00     0.281 C 
ATOM     10  O   LIG     1       9.200  43.139  23.132  0.00  0.00    -0.346 OA
ATOM     11  C   LIG     1       8.217  44.141  23.382  0.00  0.00     0.197 C 
ATOM     12  C   LIG     1       8.738  45.166  24.382  0.00  0.00     0.171 C 
ATOM     13  C   LIG     1      10.029  45.809  23.872  0.00  0.00     0.178 C 
ATOM     14  C   LIG     1      11.041  44.726  23.485  0.00  0.00     0.201 C 
BRANCH  12  15
ATOM     15  O   LIG     1       7.760  46.169  24.618  0.00  0.00    -0.387 OA
ATOM     16  H   LIG     1       8.088  46.997  24.228  0.00  0.00     0.210 HD
ENDBRANCH  12  15
BRANCH  13  17
ATOM     17  O   LIG     1       9.735  46.616  22.733  0.00  0.00    -0.386 OA
ATOM     18  H   LIG     1       9.849  47.546  22.996  0.00  0.00     0.210 HD
ENDBRANCH  13  17
BRANCH  14  19
ATOM     19  O   LIG     1      11.522  44.086  24.664  0.00  0.00    -0.384 OA
ATOM     20  H   LIG     1      10.921  43.356  24.886  0.00  0.00     0.210 HD
ENDBRANCH  14  19
ENDBRANCH   8   9
ENDBRANCH   7   8
ENDBRANCH   6   7
BRANCH   5  21
ATOM     21  O   LIG     1       9.907  45.783  18.977  0.00  0.00    -0.386 OA
ATOM     22  H   LIG     1      10.109  46.676  19.307  0.00  0.00     0.210 HD
ENDBRANCH   5  21
BRANCH   2  23
ATOM     23  O   LIG     1       5.038  43.342  19.855  0.00  0.00    -0.345 OA
BRANCH  23  24
ATOM     24  C   LIG     1       4.839  43.839  21.169  0.00  0.00     0.190 C 
BRANCH  24  25
ATOM     25  C   LIG     1       4.331  42.730  22.032  0.00  0.00     0.001 C 
ATOM     26  C   LIG     1       3.380  42.897  22.964  0.00  0.00     0.006 C 
BRANCH  26  27
ATOM     27  C   LIG     1       2.839  41.832  23.826  0.00  0.00    -0.025 A 
ATOM     28  C   LIG     1       2.039  40.847  23.269  0.00  0.00     0.008 A 
ATOM     29  C   LIG     1       1.528  39.839  24.085  0.00  0.00     0.001 A 
ATOM     30  C   LIG     1       1.820  39.830  25.449  0.00  0.00     0.000 A 
ATOM     31  C   LIG     1       2.626  40.827  25.996  0.00  0.00     0.001 A 
ATOM     32  C   LIG     1       3.138  41.836  25.179  0.00  0.00     0.008 A 
ENDBRANCH  26  27
ENDBRANCH  24  25
ENDBRANCH  23  24
ENDBRANCH   2  23
BRANCH   4  33
ATOM     33  O   LIG     1       7.500  47.378  19.103  0.00  0.00    -0.386 OA
ATOM     34  H   LIG     1       6.808  47.777  18.548  0.00  0.00     0.210 HD
ENDBRANCH   4  33
BRANCH   3  35
ATOM     35  O   LIG     1       5.148  45.755  18.382  0.00  0.00    -0.384 OA
ATOM     36  H   LIG     1       5.499  46.456  17.807  0.00  0.00     0.210 HD
ENDBRANCH   3  35
TORSDOF 13
ENDMDL
MODEL 2
REMARK VINA RESULT:      -7.6      1.953      3.106
REMARK  13 active torsions:
REMARK  status: ('A' for Active; 'I' for Inactive)
REMARK    1  A    between atoms: C_2  and  O_12 
REMARK    2  A    between atoms: C_3  and  O_10 
REMARK    3  A    between atoms: C_4  and  O_8 
REMARK    4  A    between atoms: C_5  and  O_6 
REMARK    5  A    between atoms: C_22  and  C_23 
REMARK    6  A    between atoms: O_12  and  C_13 
REMARK    7  A    between atoms: C_13  and  C_14 
REMARK    8  A    between atoms: C_15  and  C_16 
REMARK    9  A    between atoms: C_23  and  O_24 
REMARK   10  A    between atoms: O_24  and  C_25 
REMARK   11  A    between atoms: C_26  and  O_34 
REMARK   12  A    between atoms: C_27  and  O_32 
REMARK   13  A    between atoms: C_28  and  O_30 
ROOT
ATOM      1  O   LIG     1       7.060  44.111  21.104  0.00  0.00    -0.341 OA
ATOM      2  C   LIG     1       6.116  44.278  20.049  0.00  0.00     0.282 C 
ATOM      3  C   LIG     1       6.077  45.737  19.592  0.00  0.00     0.201 C 
ATOM      4  C   LIG     1       7.471  46.243  19.225  0.00  0.00     0.179 C 
ATOM      5  C   LIG     1       8.489  45.903  20.313  0.00  0.00     0.177 C 
ATOM      6  C   LIG     1       8.394  44.425  20.702  0.00  0.00     0.178 C 
ENDROOT
BRANCH   6   7
ATOM      7  C   LIG     1       9.319  44.087  21.867  0.00  0.00     0.197 C 
BRANCH   7   8
ATOM      8  O   LIG     1      10.640  43.959  21.372  0.00  0.00    -0.346 OA
BRANCH   8   9
ATOM      9  C   LIG     1      11.326  42.866  21.973  0.00  0.00     0.281 C 
ATOM     10  O   LIG     1      12.486  43.292  22.696  0.00  0.00    -0.346 OA
ATOM     11  C   LIG     1      13.517  43.824  21.867  0.00  0.00     0.197 C 
ATOM     12  C   LIG     1      13.999  42.776  20.872  0.00  0.00     0.171 C 
ATOM     13  C   LIG     1      12.837  42.274  20.012  0.00  0.00     0.178 C 
ATOM     14  C   LIG     1      11.678  41.819  20.906  0.00  0.00     0.201 C 
BRANCH  12  15
ATOM     15  O   LIG     1      15.017  43.313  20.040  0.00  0.00    -0.387 OA
ATOM     16  H   LIG     1      15.800  43.467  20.596  0.00  0.00     0.210 HD
ENDBRANCH  12  15
BRANCH  13  17
ATOM     17  O   LIG     1      12.395  43.326  19.156  0.00  0.00    -0.386 OA
ATOM     18  H   LIG     1      12.222  44.104  19.714  0.00  0.00     0.210 HD
ENDBRANCH  13  17
BRANCH  14  19
ATOM     19  O   LIG     1      12.042  40.613  21.574  0.00  0.00    -0.384 OA
ATOM     20  H   LIG     1      12.458  40.844  22.421  0.00  0.00     0.210 HD
ENDBRANCH  14  19
ENDBRANCH   8   9
ENDBRANCH   7   8
ENDBRANCH   6   7
BRANCH   5  21
ATOM     21  O   LIG     1       9.802  46.182  19.836  0.00  0.00    -0.386 OA
ATOM     22  H   LIG     1       9.764  47.004  19.317  0.00  0.00     0.210 HD
ENDBRANCH   5  21
BRANCH   2  23
ATOM     23  O   LIG     1       4.813  43.925  20.507  0.00  0.00    -0.345 OA
BRANCH  23  24
ATOM     24  C   LIG     1       4.402  44.751  21.584  0.00  0.00     0.190 C 
BRANCH  24  25
ATOM     25  C   LIG     1       4.019  43.882  22.739  0.00  0.00     0.001 C 
ATOM     26  C   LIG     1       3.254  42.787  22.615  0.00  0.00     0.006 C 
BRANCH  26  27
ATOM     27  C   LIG     1       2.864  41.894  23.720  0.00  0.00    -0.025 A 
ATOM     28  C   LIG     1       2.043  40.808  23.459  0.00  0.00     0.008 A 
ATOM     29  C   LIG     1       1.674  39.964  24.505  0.00  0.00     0.001 A 
ATOM     30  C   LIG     1       2.129  40.216  25.799  0.00  0.00     0.000 A 
ATOM     31  C   LIG     1       2.954  41.312  26.048  0.00  0.00     0.001 A 
ATOM     32  C   LIG     1       3.323  42.157  25.001  0.00  0.00     0.008 A 
ENDBRANCH  26  27
ENDBRANCH  24  25
ENDBRANCH  23  24
ENDBRANCH   2  23
BRANCH   4  33
ATOM     33  O   LIG     1       7.439  47.664  19.080  0.00  0.00    -0.386 OA
ATOM     34  H   LIG     1       7.769  47.874  18.190  0.00  0.00     0.210 HD
ENDBRANCH   4  33
BRANCH   3  35
ATOM     35  O   LIG     1       5.224  45.825  18.451  0.00  0.00    -0.384 OA
ATOM     36  H   LIG     1       4.391  45.371  18.661  0.00  0.00     0.210 HD
ENDBRANCH   3  35
TORSDOF 13
ENDMDL
MODEL 3
REMARK VINA RESULT:      -7.6      2.936      7.848
REMARK  13 active torsions:
REMARK  status: ('A' for Active; 'I' for Inactive)
REMARK    1  A    between atoms: C_2  and  O_12 
REMARK    2  A    between atoms: C_3  and  O_10 
REMARK    3  A    between atoms: C_4  and  O_8 
REMARK    4  A    between atoms: C_5  and  O_6 
REMARK    5  A    between atoms: C_22  and  C_23 
REMARK    6  A    between atoms: O_12  and  C_13 
REMARK    7  A    between atoms: C_13  and  C_14 
REMARK    8  A    between atoms: C_15  and  C_16 
REMARK    9  A    between atoms: C_23  and  O_24 
REMARK   10  A    between atoms: O_24  and  C_25 
REMARK   11  A    between atoms: C_26  and  O_34 
REMARK   12  A    between atoms: C_27  and  O_32 
REMARK   13  A    between atoms: C_28  and  O_30 
ROOT
ATOM      1  O   LIG     1       8.053  43.851  19.841  0.00  0.00    -0.341 OA
ATOM      2  C   LIG     1       8.824  44.756  20.628  0.00  0.00     0.282 C 
ATOM      3  C   LIG     1       8.828  46.147  19.994  0.00  0.00     0.201 C 
ATOM      4  C   LIG     1       7.406  46.647  19.740  0.00  0.00     0.179 C 
ATOM      5  C   LIG     1       6.564  45.585  19.034  0.00  0.00     0.177 C 
ATOM      6  C   LIG     1       6.681  44.236  19.748  0.00  0.00     0.178 C 
ENDROOT
BRANCH   6   7
ATOM      7  C   LIG     1       5.942  43.133  18.996  0.00  0.00     0.197 C 
BRANCH   7   8
ATOM      8  O   LIG     1       4.678  42.941  19.605  0.00  0.00    -0.346 OA
BRANCH   8   9
ATOM      9  C   LIG     1       4.729  43.169  21.010  0.00  0.00     0.281 C 
ATOM     10  O   LIG     1       5.029  41.974  21.738  0.00  0.00    -0.346 OA
ATOM     11  C   LIG     1       4.003  40.986  21.671  0.00  0.00     0.197 C 
ATOM     12  C   LIG     1       2.703  41.523  22.255  0.00  0.00     0.171 C 
ATOM     13  C   LIG     1       2.264  42.791  21.520  0.00  0.00     0.178 C 
ATOM     14  C   LIG     1       3.412  43.804  21.484  0.00  0.00     0.201 C 
BRANCH  12  15
ATOM     15  O   LIG     1       1.680  40.540  22.175  0.00  0.00    -0.387 OA
ATOM     16  H   LIG     1       1.953  39.886  21.509  0.00  0.00     0.210 HD
ENDBRANCH  12  15
BRANCH  13  17
ATOM     17  O   LIG     1       1.882  42.454  20.187  0.00  0.00    -0.386 OA
ATOM     18  H   LIG     1       1.417  43.222  19.812  0.00  0.00     0.210 HD
ENDBRANCH  13  17
BRANCH  14  19
ATOM     19  O   LIG     1       3.621  44.327  22.793  0.00  0.00    -0.384 OA
ATOM     20  H   LIG     1       4.497  44.748  22.820  0.00  0.00     0.210 HD
ENDBRANCH  14  19
ENDBRANCH   8   9
ENDBRANCH   7   8
ENDBRANCH   6   7
BRANCH   5  21
ATOM     21  O   LIG     1       5.199  45.996  19.023  0.00  0.00    -0.386 OA
ATOM     22  H   LIG     1       5.172  46.939  18.783  0.00  0.00     0.210 HD
ENDBRANCH   5  21
BRANCH   2  23
ATOM     23  O   LIG     1      10.174  44.301  20.702  0.00  0.00    -0.345 OA
BRANCH  23  24
ATOM     24  C   LIG     1      10.417  43.251  19.780  0.00  0.00     0.190 C 
BRANCH  24  25
ATOM     25  C   LIG     1      11.801  42.730  19.996  0.00  0.00     0.001 C 
ATOM     26  C   LIG     1      12.207  42.171  21.147  0.00  0.00     0.006 C 
BRANCH  26  27
ATOM     27  C   LIG     1      13.554  41.632  21.400  0.00  0.00    -0.025 A 
ATOM     28  C   LIG     1      14.630  42.127  20.680  0.00  0.00     0.008 A 
ATOM     29  C   LIG     1      15.905  41.616  20.920  0.00  0.00     0.001 A 
ATOM     30  C   LIG     1      16.089  40.618  21.877  0.00  0.00     0.000 A 
ATOM     31  C   LIG     1      14.997  40.130  22.594  0.00  0.00     0.001 A 
ATOM     32  C   LIG     1      13.721  40.641  22.354  0.00  0.00     0.008 A 
ENDBRANCH  26  27
ENDBRANCH  24  25
ENDBRANCH  23  24
ENDBRANCH   2  23
BRANCH   4  33
ATOM     33  O   LIG     1       7.451  47.804  18.902  0.00  0.00    -0.386 OA
ATOM     34  H   LIG     1       7.011  47.574  18.066  0.00  0.00     0.210 HD
ENDBRANCH   4  33
BRANCH   3  35
ATOM     35  O   LIG     1       9.493  47.042  20.886  0.00  0.00    -0.384 OA
ATOM     36  H   LIG     1       8.826  47.432  21.475  0.00  0.00     0.210 HD
ENDBRANCH   3  35
TORSDOF 13
ENDMDL
MODEL 4
REMARK VINA RESULT:      -7.5      1.280      2.121
REMARK  13 active torsions:
REMARK  status: ('A' for Active; 'I' for Inactive)
REMARK    1  A    between atoms: C_2  and  O_12 
REMARK    2  A    between atoms: C_3  and  O_10 
REMARK    3  A    between atoms: C_4  and  O_8 
REMARK    4  A    between atoms: C_5  and  O_6 
REMARK    5  A    between atoms: C_22  and  C_23 
REMARK    6  A    between atoms: O_12  and  C_13 
REMARK    7  A    between atoms: C_13  and  C_14 
REMARK    8  A    between atoms: C_15  and  C_16 
REMARK    9  A    between atoms: C_23  and  O_24 
REMARK   10  A    between atoms: O_24  and  C_25 
REMARK   11  A    between atoms: C_26  and  O_34 
REMARK   12  A    between atoms: C_27  and  O_32 
REMARK   13  A    between atoms: C_28  and  O_30 
ROOT
ATOM      1  O   LIG     1       6.394  43.438  20.844  0.00  0.00    -0.341 OA
ATOM      2  C   LIG     1       5.452  43.627  19.791  0.00  0.00     0.282 C 
ATOM      3  C   LIG     1       5.836  44.838  18.940  0.00  0.00     0.201 C 
ATOM      4  C   LIG     1       7.274  44.731  18.435  0.00  0.00     0.179 C 
ATOM      5  C   LIG     1       8.233  44.370  19.569  0.00  0.00     0.177 C 
ATOM      6  C   LIG     1       7.711  43.168  20.361  0.00  0.00     0.178 C 
ENDROOT
BRANCH   6   7
ATOM      7  C   LIG     1       8.592  42.862  21.569  0.00  0.00     0.197 C 
BRANCH   7   8
ATOM      8  O   LIG     1       9.237  44.056  21.971  0.00  0.00    -0.346 OA
BRANCH   8   9
ATOM      9  C   LIG     1       8.690  44.571  23.180  0.00  0.00     0.281 C 
ATOM     10  O   LIG     1       8.948  45.971  23.334  0.00  0.00    -0.346 OA
ATOM     11  C   LIG     1      10.327  46.284  23.517  0.00  0.00     0.197 C 
ATOM     12  C   LIG     1      10.868  45.612  24.773  0.00  0.00     0.171 C 
ATOM     13  C   LIG     1      10.677  44.097  24.698  0.00  0.00     0.178 C 
ATOM     14  C   LIG     1       9.217  43.764  24.377  0.00  0.00     0.201 C 
BRANCH  12  15
ATOM     15  O   LIG     1      12.245  45.918  24.944  0.00  0.00    -0.387 OA
ATOM     16  H   LIG     1      12.741  45.084  24.878  0.00  0.00     0.210 HD
ENDBRANCH  12  15
BRANCH  13  17
ATOM     17  O   LIG     1      11.524  43.565  23.680  0.00  0.00    -0.386 OA
ATOM     18  H   LIG     1      11.805  44.306  23.116  0.00  0.00     0.210 HD
ENDBRANCH  13  17
BRANCH  14  19
ATOM     19  O   LIG     1       8.403  44.070  25.507  0.00  0.00    -0.384 OA
ATOM     20  H   LIG     1       7.490  43.802  25.311  0.00  0.00     0.210 HD
ENDBRANCH  14  19
ENDBRANCH   8   9
ENDBRANCH   7   8
ENDBRANCH   6   7
BRANCH   5  21
ATOM     21  O   LIG     1       9.512  44.055  19.024  0.00  0.00    -0.386 OA
ATOM     22  H   LIG     1      10.177  44.594  19.488  0.00  0.00     0.210 HD
ENDBRANCH   5  21
BRANCH   2  23
ATOM     23  O   LIG     1       4.157  43.865  20.339  0.00  0.00    -0.345 OA
BRANCH  23  24
ATOM     24  C   LIG     1       3.283  42.776  20.092  0.00  0.00     0.190 C 
BRANCH  24  25
ATOM     25  C   LIG     1       3.046  42.048  21.376  0.00  0.00     0.001 C 
ATOM     26  C   LIG     1       3.198  42.614  22.583  0.00  0.00     0.006 C 
BRANCH  26  27
ATOM     27  C   LIG     1       2.963  41.941  23.873  0.00  0.00    -0.025 A 
ATOM     28  C   LIG     1       3.565  42.439  25.018  0.00  0.00     0.008 A 
ATOM     29  C   LIG     1       3.341  41.801  26.238  0.00  0.00     0.001 A 
ATOM     30  C   LIG     1       2.521  40.675  26.298  0.00  0.00     0.000 A 
ATOM     31  C   LIG     1       1.923  40.186  25.137  0.00  0.00     0.001 A 
ATOM     32  C   LIG     1       2.146  40.823  23.916  0.00  0.00     0.008 A 
ENDBRANCH  26  27
ENDBRANCH  24  25
ENDBRANCH  23  24
ENDBRANCH   2  23
BRANCH   4  33
ATOM     33  O   LIG     1       7.683  45.988  17.894  0.00  0.00    -0.386 OA
ATOM     34  H   LIG     1       6.886  46.437  17.567  0.00  0.00     0.210 HD
ENDBRANCH   4  33
BRANCH   3  35
ATOM     35  O   LIG     1       4.946  44.901  17.826  0.00  0.00    -0.384 OA
ATOM     36  H   LIG     1       5.198  44.202  17.199  0.00  0.00     0.210 HD
ENDBRANCH   3  35
TORSDOF 13
ENDMDL
MODEL 5
REMARK VINA RESULT:      -7.5      2.606      5.348
REMARK  13 active torsions:
REMARK  status: ('A' for Active; 'I' for Inactive)
REMARK    1  A    between atoms: C_2  and  O_12 
REMARK    2  A    between atoms: C_3  and  O_10 
REMARK    3  A    between atoms: C_4  and  O_8 
REMARK    4  A    between atoms: C_5  and  O_6 
REMARK    5  A    between atoms: C_22  and  C_23 
REMARK    6  A    between atoms: O_12  and  C_13 
REMARK    7  A    between atoms: C_13  and  C_14 
REMARK    8  A    between atoms: C_15  and  C_16 
REMARK    9  A    between atoms: C_23  and  O_24 
REMARK   10  A    between atoms: O_24  and  C_25 
REMARK   11  A    between atoms: C_26  and  O_34 
REMARK   12  A    between atoms: C_27  and  O_32 
REMARK   13  A    between atoms: C_28  and  O_30 
ROOT
ATOM      1  O   LIG     1       4.869  42.010  21.913  0.00  0.00    -0.341 OA
ATOM      2  C   LIG     1       3.915  41.132  22.506  0.00  0.00     0.282 C 
ATOM      3  C   LIG     1       2.498  41.672  22.314  0.00  0.00     0.201 C 
ATOM      4  C   LIG     1       2.205  41.957  20.842  0.00  0.00     0.179 C 
ATOM      5  C   LIG     1       3.330  42.767  20.200  0.00  0.00     0.177 C 
ATOM      6  C   LIG     1       4.693  42.138  20.501  0.00  0.00     0.178 C 
ENDROOT
BRANCH   6   7
ATOM      7  C   LIG     1       5.840  42.993  19.969  0.00  0.00     0.197 C 
BRANCH   7   8
ATOM      8  O   LIG     1       5.388  44.330  19.852  0.00  0.00    -0.346 OA
BRANCH   8   9
ATOM      9  C   LIG     1       5.878  45.147  20.911  0.00  0.00     0.281 C 
ATOM     10  O   LIG     1       5.157  46.380  21.014  0.00  0.00    -0.346 OA
ATOM     11  C   LIG     1       5.346  47.252  19.902  0.00  0.00     0.197 C 
ATOM     12  C   LIG     1       6.815  47.630  19.761  0.00  0.00     0.171 C 
ATOM     13  C   LIG     1       7.681  46.379  19.603  0.00  0.00     0.178 C 
ATOM     14  C   LIG     1       7.385  45.386  20.732  0.00  0.00     0.201 C 
BRANCH  12  15
ATOM     15  O   LIG     1       7.001  48.489  18.644  0.00  0.00    -0.387 OA
ATOM     16  H   LIG     1       6.833  49.399  18.943  0.00  0.00     0.210 HD
ENDBRANCH  12  15
BRANCH  13  17
ATOM     17  O   LIG     1       7.401  45.768  18.345  0.00  0.00    -0.386 OA
ATOM     18  H   LIG     1       8.182  45.895  17.778  0.00  0.00     0.210 HD
ENDBRANCH  13  17
BRANCH  14  19
ATOM     19  O   LIG     1       7.898  45.900  21.959  0.00  0.00    -0.384 OA
ATOM     20  H   LIG     1       8.070  46.850  21.847  0.00  0.00     0.210 HD
ENDBRANCH  14  19
ENDBRANCH   8   9
ENDBRANCH   7   8
ENDBRANCH   6   7
BRANCH   5  21
ATOM     21  O   LIG     1       3.133  42.813  18.789  0.00  0.00    -0.386 OA
ATOM     22  H   LIG     1       3.608  42.061  18.396  0.00  0.00     0.210 HD
ENDBRANCH   5  21
BRANCH   2  23
ATOM     23  O   LIG     1       4.162  41.027  23.907  0.00  0.00    -0.345 OA
BRANCH  23  24
ATOM     24  C   LIG     1       4.056  42.289  24.546  0.00  0.00     0.190 C 
BRANCH  24  25
ATOM     25  C   LIG     1       3.452  42.095  25.899  0.00  0.00     0.001 C 
ATOM     26  C   LIG     1       3.239  40.887  26.445  0.00  0.00     0.006 C 
BRANCH  26  27
ATOM     27  C   LIG     1       2.661  40.648  27.778  0.00  0.00    -0.025 A 
ATOM     28  C   LIG     1       2.826  41.600  28.771  0.00  0.00     0.008 A 
ATOM     29  C   LIG     1       2.279  41.373  30.033  0.00  0.00     0.001 A 
ATOM     30  C   LIG     1       1.575  40.196  30.287  0.00  0.00     0.000 A 
ATOM     31  C   LIG     1       1.417  39.246  29.279  0.00  0.00     0.001 A 
ATOM     32  C   LIG     1       1.964  39.474  28.016  0.00  0.00     0.008 A 
ENDBRANCH  26  27
ENDBRANCH  24  25
ENDBRANCH  23  24
ENDBRANCH   2  23
BRANCH   4  33
ATOM     33  O   LIG     1       0.998  42.715  20.735  0.00  0.00    -0.386 OA
ATOM     34  H   LIG     1       0.304  42.113  20.418  0.00  0.00     0.210 HD
ENDBRANCH   4  33
BRANCH   3  35
ATOM     35  O   LIG     1       1.578  40.696  22.801  0.00  0.00    -0.384 OA
ATOM     36  H   LIG     1       0.694  41.100  22.825  0.00  0.00     0.210 HD
ENDBRANCH   3  35
TORSDOF 13
ENDMDL
MODEL 6
REMARK VINA RESULT:      -7.4      1.362      1.966
REMARK  13 active torsions:
REMARK  status: ('A' for Active; 'I' for Inactive)
REMARK    1  A    between atoms: C_2  and  O_12 
REMARK    2  A    between atoms: C_3  and  O_10 
REMARK    3  A    between atoms: C_4  and  O_8 
REMARK    4  A    between atoms: C_5  and  O_6 
REMARK    5  A    between atoms: C_22  and  C_23 
REMARK    6  A    between atoms: O_12  and  C_13 
REMARK    7  A    between atoms: C_13  and  C_14 
REMARK    8  A    between atoms: C_15  and  C_16 
REMARK    9  A    between atoms: C_23  and  O_24 
REMARK   10  A    between atoms: O_24  and  C_25 
REMARK   11  A    between atoms: C_26  and  O_34 
REMARK   12  A    between atoms: C_27  and  O_32 
REMARK   13  A    between atoms: C_28  and  O_30 
ROOT
ATOM      1  O   LIG     1       6.898  44.128  21.195  0.00  0.00    -0.341 OA
ATOM      2  C   LIG     1       6.589  43.850  19.831  0.00  0.00     0.282 C 
ATOM      3  C   LIG     1       6.452  45.149  19.037  0.00  0.00     0.201 C 
ATOM      4  C   LIG     1       7.689  46.032  19.195  0.00  0.00     0.179 C 
ATOM      5  C   LIG     1       8.083  46.175  20.665  0.00  0.00     0.177 C 
ATOM      6  C   LIG     1       8.146  44.806  21.347  0.00  0.00     0.178 C 
ENDROOT
BRANCH   6   7
ATOM      7  C   LIG     1       8.423  44.932  22.842  0.00  0.00     0.197 C 
BRANCH   7   8
ATOM      8  O   LIG     1       9.768  45.339  23.018  0.00  0.00    -0.346 OA
BRANCH   8   9
ATOM      9  C   LIG     1      10.675  44.255  22.850  0.00  0.00     0.281 C 
ATOM     10  O   LIG     1      10.426  43.197  23.783  0.00  0.00    -0.346 OA
ATOM     11  C   LIG     1      10.692  43.551  25.138  0.00  0.00     0.197 C 
ATOM     12  C   LIG     1      12.155  43.938  25.315  0.00  0.00     0.171 C 
ATOM     13  C   LIG     1      12.523  45.095  24.385  0.00  0.00     0.178 C 
ATOM     14  C   LIG     1      12.122  44.763  22.944  0.00  0.00     0.201 C 
BRANCH  12  15
ATOM     15  O   LIG     1      12.412  44.301  26.664  0.00  0.00    -0.387 OA
ATOM     16  H   LIG     1      12.973  45.096  26.652  0.00  0.00     0.210 HD
ENDBRANCH  12  15
BRANCH  13  17
ATOM     17  O   LIG     1      11.843  46.275  24.810  0.00  0.00    -0.386 OA
ATOM     18  H   LIG     1      11.255  46.026  25.544  0.00  0.00     0.210 HD
ENDBRANCH  13  17
BRANCH  14  19
ATOM     19  O   LIG     1      12.981  43.744  22.438  0.00  0.00    -0.384 OA
ATOM     20  H   LIG     1      13.885  43.924  22.743  0.00  0.00     0.210 HD
ENDBRANCH  14  19
ENDBRANCH   8   9
ENDBRANCH   7   8
ENDBRANCH   6   7
BRANCH   5  21
ATOM     21  O   LIG     1       9.359  46.805  20.752  0.00  0.00    -0.386 OA
ATOM     22  H   LIG     1       9.235  47.757  20.593  0.00  0.00     0.210 HD
ENDBRANCH   5  21
BRANCH   2  23
ATOM     23  O   LIG     1       5.348  43.151  19.751  0.00  0.00    -0.345 OA
BRANCH  23  24
ATOM     24  C   LIG     1       4.303  43.882  20.372  0.00  0.00     0.190 C 
BRANCH  24  25
ATOM     25  C   LIG     1       3.564  42.972  21.300  0.00  0.00     0.001 C 
ATOM     26  C   LIG     1       3.938  42.754  22.570  0.00  0.00     0.006 C 
BRANCH  26  27
ATOM     27  C   LIG     1       3.235  41.879  23.525  0.00  0.00    -0.025 A 
ATOM     28  C   LIG     1       2.347  40.929  23.047  0.00  0.00     0.008 A 
ATOM     29  C   LIG     1       1.682  40.101  23.951  0.00  0.00     0.001 A 
ATOM     30  C   LIG     1       1.911  40.235  25.320  0.00  0.00     0.000 A 
ATOM     31  C   LIG     1       2.808  41.196  25.786  0.00  0.00     0.001 A 
ATOM     32  C   LIG     1       3.474  42.024  24.882  0.00  0.00     0.008 A 
ENDBRANCH  26  27
ENDBRANCH  24  25
ENDBRANCH  23  24
ENDBRANCH   2  23
BRANCH   4  33
ATOM     33  O   LIG     1       7.412  47.336  18.683  0.00  0.00    -0.386 OA
ATOM     34  H   LIG     1       7.016  47.224  17.802  0.00  0.00     0.210 HD
ENDBRANCH   4  33
BRANCH   3  35
ATOM     35  O   LIG     1       6.279  44.816  17.660  0.00  0.00    -0.384 OA
ATOM     36  H   LIG     1       7.119  44.454  17.331  0.00  0.00     0.210 HD
ENDBRANCH   3  35
TORSDOF 13
ENDMDL
MODEL 7
REMARK VINA RESULT:      -7.4      2.663      7.448
REMARK  13 active torsions:
REMARK  status: ('A' for Active; 'I' for Inactive)
REMARK    1  A    between atoms: C_2  and  O_12 
REMARK    2  A    between atoms: C_3  and  O_10 
REMARK    3  A    between atoms: C_4  and  O_8 
REMARK    4  A    between atoms: C_5  and  O_6 
REMARK    5  A    between atoms: C_22  and  C_23 
REMARK    6  A    between atoms: O_12  and  C_13 
REMARK    7  A    between atoms: C_13  and  C_14 
REMARK    8  A    between atoms: C_15  and  C_16 
REMARK    9  A    between atoms: C_23  and  O_24 
REMARK   10  A    between atoms: O_24  and  C_25 
REMARK   11  A    between atoms: C_26  and  O_34 
REMARK   12  A    between atoms: C_27  and  O_32 
REMARK   13  A    between atoms: C_28  and  O_30 
ROOT
ATOM      1  O   LIG     1       6.221  44.539  20.640  0.00  0.00    -0.341 OA
ATOM      2  C   LIG     1       7.624  44.718  20.459  0.00  0.00     0.282 C 
ATOM      3  C   LIG     1       7.895  45.798  19.410  0.00  0.00     0.201 C 
ATOM      4  C   LIG     1       7.171  47.100  19.752  0.00  0.00     0.179 C 
ATOM      5  C   LIG     1       5.704  46.844  20.097  0.00  0.00     0.177 C 
ATOM      6  C   LIG     1       5.576  45.717  21.125  0.00  0.00     0.178 C 
ENDROOT
BRANCH   6   7
ATOM      7  C   LIG     1       4.117  45.364  21.398  0.00  0.00     0.197 C 
BRANCH   7   8
ATOM      8  O   LIG     1       3.877  44.049  20.932  0.00  0.00    -0.346 OA
BRANCH   8   9
ATOM      9  C   LIG     1       3.055  43.312  21.831  0.00  0.00     0.281 C 
ATOM     10  O   LIG     1       3.435  43.518  23.197  0.00  0.00    -0.346 OA
ATOM     11  C   LIG     1       4.718  42.989  23.523  0.00  0.00     0.197 C 
ATOM     12  C   LIG     1       4.752  41.483  23.295  0.00  0.00     0.171 C 
ATOM     13  C   LIG     1       4.397  41.148  21.846  0.00  0.00     0.178 C 
ATOM     14  C   LIG     1       3.076  41.822  21.457  0.00  0.00     0.201 C 
BRANCH  12  15
ATOM     15  O   LIG     1       6.036  40.963  23.610  0.00  0.00    -0.387 OA
ATOM     16  H   LIG     1       6.316  40.402  22.867  0.00  0.00     0.210 HD
ENDBRANCH  12  15
BRANCH  13  17
ATOM     17  O   LIG     1       5.438  41.609  20.987  0.00  0.00    -0.386 OA
ATOM     18  H   LIG     1       6.117  42.025  21.547  0.00  0.00     0.210 HD
ENDBRANCH  13  17
BRANCH  14  19
ATOM     19  O   LIG     1       2.001  41.181  22.139  0.00  0.00    -0.384 OA
ATOM     20  H   LIG     1       2.372  40.605  22.828  0.00  0.00     0.210 HD
ENDBRANCH  14  19
ENDBRANCH   8   9
ENDBRANCH   7   8
ENDBRANCH   6   7
BRANCH   5  21
ATOM     21  O   LIG     1       5.129  48.035  20.628  0.00  0.00    -0.386 OA
ATOM     22  H   LIG     1       5.239  48.015  21.594  0.00  0.00     0.210 HD
ENDBRANCH   5  21
BRANCH   2  23
ATOM     23  O   LIG     1       8.210  43.502  20.000  0.00  0.00    -0.345 OA
BRANCH  23  24
ATOM     24  C   LIG     1       8.622  42.685  21.084  0.00  0.00     0.190 C 
BRANCH  24  25
ATOM     25  C   LIG     1       9.997  43.098  21.503  0.00  0.00     0.001 C 
ATOM     26  C   LIG     1      11.088  42.904  20.746  0.00  0.00     0.006 C 
BRANCH  26  27
ATOM     27  C   LIG     1      12.457  43.306  21.111  0.00  0.00    -0.025 A 
ATOM     28  C   LIG     1      12.701  43.814  22.377  0.00  0.00     0.008 A 
ATOM     29  C   LIG     1      13.998  44.194  22.721  0.00  0.00     0.001 A 
ATOM     30  C   LIG     1      15.033  44.063  21.796  0.00  0.00     0.000 A 
ATOM     31  C   LIG     1      14.772  43.550  20.526  0.00  0.00     0.001 A 
ATOM     32  C   LIG     1      13.475  43.169  20.181  0.00  0.00     0.008 A 
ENDBRANCH  26  27
ENDBRANCH  24  25
ENDBRANCH  23  24
ENDBRANCH   2  23
BRANCH   4  33
ATOM     33  O   LIG     1       7.213  47.978  18.626  0.00  0.00    -0.386 OA
ATOM     34  H   LIG     1       7.146  47.429  17.826  0.00  0.00     0.210 HD
ENDBRANCH   4  33
BRANCH   3  35
ATOM     35  O   LIG     1       9.301  46.035  19.366  0.00  0.00    -0.384 OA
ATOM     36  H   LIG     1       9.669  45.526  18.624  0.00  0.00     0.210 HD
ENDBRANCH   3  35
TORSDOF 13
ENDMDL
MODEL 8
REMARK VINA RESULT:      -7.1      1.612      2.512
REMARK  13 active torsions:
REMARK  status: ('A' for Active; 'I' for Inactive)
REMARK    1  A    between atoms: C_2  and  O_12 
REMARK    2  A    between atoms: C_3  and  O_10 
REMARK    3  A    between atoms: C_4  and  O_8 
REMARK    4  A    between atoms: C_5  and  O_6 
REMARK    5  A    between atoms: C_22  and  C_23 
REMARK    6  A    between atoms: O_12  and  C_13 
REMARK    7  A    between atoms: C_13  and  C_14 
REMARK    8  A    between atoms: C_15  and  C_16 
REMARK    9  A    between atoms: C_23  and  O_24 
REMARK   10  A    between atoms: O_24  and  C_25 
REMARK   11  A    between atoms: C_26  and  O_34 
REMARK   12  A    between atoms: C_27  and  O_32 
REMARK   13  A    between atoms: C_28  and  O_30 
ROOT
ATOM      1  O   LIG     1       6.971  44.305  20.780  0.00  0.00    -0.341 OA
ATOM      2  C   LIG     1       5.566  44.315  21.021  0.00  0.00     0.282 C 
ATOM      3  C   LIG     1       5.087  45.733  21.336  0.00  0.00     0.201 C 
ATOM      4  C   LIG     1       5.508  46.718  20.245  0.00  0.00     0.179 C 
ATOM      5  C   LIG     1       6.989  46.565  19.902  0.00  0.00     0.177 C 
ATOM      6  C   LIG     1       7.339  45.096  19.649  0.00  0.00     0.178 C 
ENDROOT
BRANCH   6   7
ATOM      7  C   LIG     1       8.835  44.903  19.419  0.00  0.00     0.197 C 
BRANCH   7   8
ATOM      8  O   LIG     1       9.392  44.288  20.567  0.00  0.00    -0.346 OA
BRANCH   8   9
ATOM      9  C   LIG     1      10.389  45.104  21.172  0.00  0.00     0.281 C 
ATOM     10  O   LIG     1      11.434  44.324  21.765  0.00  0.00    -0.346 OA
ATOM     11  C   LIG     1      11.009  43.555  22.888  0.00  0.00     0.197 C 
ATOM     12  C   LIG     1      10.479  44.462  23.990  0.00  0.00     0.171 C 
ATOM     13  C   LIG     1       9.324  45.321  23.473  0.00  0.00     0.178 C 
ATOM     14  C   LIG     1       9.742  46.052  22.193  0.00  0.00     0.201 C 
BRANCH  12  15
ATOM     15  O   LIG     1      10.046  43.690  25.102  0.00  0.00    -0.387 OA
ATOM     16  H   LIG     1       9.538  42.936  24.756  0.00  0.00     0.210 HD
ENDBRANCH  12  15
BRANCH  13  17
ATOM     17  O   LIG     1       8.200  44.484  23.200  0.00  0.00    -0.386 OA
ATOM     18  H   LIG     1       7.882  44.135  24.051  0.00  0.00     0.210 HD
ENDBRANCH  13  17
BRANCH  14  19
ATOM     19  O   LIG     1      10.690  47.065  22.516  0.00  0.00    -0.384 OA
ATOM     20  H   LIG     1      10.249  47.929  22.459  0.00  0.00     0.210 HD
ENDBRANCH  14  19
ENDBRANCH   8   9
ENDBRANCH   7   8
ENDBRANCH   6   7
BRANCH   5  21
ATOM     21  O   LIG     1       7.285  47.328  18.736  0.00  0.00    -0.386 OA
ATOM     22  H   LIG     1       7.320  48.266  18.992  0.00  0.00     0.210 HD
ENDBRANCH   5  21
BRANCH   2  23
ATOM     23  O   LIG     1       5.263  43.489  22.143  0.00  0.00    -0.345 OA
BRANCH  23  24
ATOM     24  C   LIG     1       5.853  42.205  22.014  0.00  0.00     0.190 C 
BRANCH  24  25
ATOM     25  C   LIG     1       4.909  41.184  22.562  0.00  0.00     0.001 C 
ATOM     26  C   LIG     1       3.591  41.189  22.311  0.00  0.00     0.006 C 
BRANCH  26  27
ATOM     27  C   LIG     1       2.626  40.196  22.816  0.00  0.00    -0.025 A 
ATOM     28  C   LIG     1       2.093  40.353  24.086  0.00  0.00     0.008 A 
ATOM     29  C   LIG     1       1.180  39.413  24.563  0.00  0.00     0.001 A 
ATOM     30  C   LIG     1       0.812  38.329  23.767  0.00  0.00     0.000 A 
ATOM     31  C   LIG     1       1.357  38.184  22.491  0.00  0.00     0.001 A 
ATOM     32  C   LIG     1       2.271  39.124  22.013  0.00  0.00     0.008 A 
ENDBRANCH  26  27
ENDBRANCH  24  25
ENDBRANCH  23  24
ENDBRANCH   2  23
BRANCH   4  33
ATOM     33  O   LIG     1       5.296  48.054  20.704  0.00  0.00    -0.386 OA
ATOM     34  H   LIG     1       5.791  48.646  20.112  0.00  0.00     0.210 HD
ENDBRANCH   4  33
BRANCH   3  35
ATOM     35  O   LIG     1       3.663  45.713  21.433  0.00  0.00    -0.384 OA
ATOM     36  H   LIG     1       3.352  46.631  21.498  0.00  0.00     0.210 HD
ENDBRANCH   3  35
TORSDOF 13
ENDMDL
MODEL 9
REMARK VINA RESULT:      -7.0      1.764      2.953
REMARK  13 active torsions:
REMARK  status: ('A' for Active; 'I' for Inactive)
REMARK    1  A    between atoms: C_2  and  O_12 
REMARK    2  A    between atoms: C_3  and  O_10 
REMARK    3  A    between atoms: C_4  and  O_8 
REMARK    4  A    between atoms: C_5  and  O_6 
REMARK    5  A    between atoms: C_22  and  C_23 
REMARK    6  A    between atoms: O_12  and  C_13 
REMARK    7  A    between atoms: C_13  and  C_14 
REMARK    8  A    between atoms: C_15  and  C_16 
REMARK    9  A    between atoms: C_23  and  O_24 
REMARK   10  A    between atoms: O_24  and  C_25 
REMARK   11  A    between atoms: C_26  and  O_34 
REMARK   12  A    between atoms: C_27  and  O_32 
REMARK   13  A    between atoms: C_28  and  O_30 
ROOT
ATOM      1  O   LIG     1       8.035  44.298  21.293  0.00  0.00    -0.341 OA
ATOM      2  C   LIG     1       7.397  45.163  20.357  0.00  0.00     0.282 C 
ATOM      3  C   LIG     1       8.438  45.887  19.501  0.00  0.00     0.201 C 
ATOM      4  C   LIG     1       9.396  44.900  18.836  0.00  0.00     0.179 C 
ATOM      5  C   LIG     1       9.937  43.887  19.846  0.00  0.00     0.177 C 
ATOM      6  C   LIG     1       8.796  43.269  20.658  0.00  0.00     0.178 C 
ENDROOT
BRANCH   6   7
ATOM      7  C   LIG     1       9.319  42.342  21.751  0.00  0.00     0.197 C 
BRANCH   7   8
ATOM      8  O   LIG     1      10.581  42.820  22.182  0.00  0.00    -0.346 OA
BRANCH   8   9
ATOM      9  C   LIG     1      10.539  43.283  23.527  0.00  0.00     0.281 C 
ATOM     10  O   LIG     1      10.506  44.713  23.602  0.00  0.00    -0.346 OA
ATOM     11  C   LIG     1      11.702  45.340  23.146  0.00  0.00     0.197 C 
ATOM     12  C   LIG     1      12.893  44.899  23.988  0.00  0.00     0.171 C 
ATOM     13  C   LIG     1      13.048  43.378  23.948  0.00  0.00     0.178 C 
ATOM     14  C   LIG     1      11.723  42.703  24.317  0.00  0.00     0.201 C 
BRANCH  12  15
ATOM     15  O   LIG     1      14.085  45.518  23.523  0.00  0.00    -0.387 OA
ATOM     16  H   LIG     1      13.851  46.065  22.754  0.00  0.00     0.210 HD
ENDBRANCH  12  15
BRANCH  13  17
ATOM     17  O   LIG     1      13.438  42.978  22.635  0.00  0.00    -0.386 OA
ATOM     18  H   LIG     1      13.393  42.007  22.599  0.00  0.00     0.210 HD
ENDBRANCH  13  17
BRANCH  14  19
ATOM     19  O   LIG     1      11.464  42.899  25.705  0.00  0.00    -0.384 OA
ATOM     20  H   LIG     1      12.099  42.368  26.214  0.00  0.00     0.210 HD
ENDBRANCH  14  19
ENDBRANCH   8   9
ENDBRANCH   7   8
ENDBRANCH   6   7
BRANCH   5  21
ATOM     21  O   LIG     1      10.635  42.856  19.153  0.00  0.00    -0.386 OA
ATOM     22  H   LIG     1      10.611  42.055  19.704  0.00  0.00     0.210 HD
ENDBRANCH   5  21
BRANCH   2  23
ATOM     23  O   LIG     1       6.636  46.148  21.052  0.00  0.00    -0.345 OA
BRANCH  23  24
ATOM     24  C   LIG     1       5.278  46.136  20.643  0.00  0.00     0.190 C 
BRANCH  24  25
ATOM     25  C   LIG     1       4.641  44.872  21.127  0.00  0.00     0.001 C 
ATOM     26  C   LIG     1       4.172  44.714  22.374  0.00  0.00     0.006 C 
BRANCH  26  27
ATOM     27  C   LIG     1       3.525  43.495  22.890  0.00  0.00    -0.025 A 
ATOM     28  C   LIG     1       3.779  43.090  24.191  0.00  0.00     0.008 A 
ATOM     29  C   LIG     1       3.166  41.936  24.678  0.00  0.00     0.001 A 
ATOM     30  C   LIG     1       2.309  41.201  23.859  0.00  0.00     0.000 A 
ATOM     31  C   LIG     1       2.063  41.621  22.552  0.00  0.00     0.001 A 
ATOM     32  C   LIG     1       2.676  42.776  22.064  0.00  0.00     0.008 A 
ENDBRANCH  26  27
ENDBRANCH  24  25
ENDBRANCH  23  24
ENDBRANCH   2  23
BRANCH   4  33
ATOM     33  O   LIG     1      10.507  45.611  18.287  0.00  0.00    -0.386 OA
ATOM     34  H   LIG     1      10.437  46.534  18.585  0.00  0.00     0.210 HD
ENDBRANCH   4  33
BRANCH   3  35
ATOM     35  O   LIG     1       7.750  46.631  18.495  0.00  0.00    -0.384 OA
ATOM     36  H   LIG     1       8.074  47.547  18.524  0.00  0.00     0.210 HD
ENDBRANCH   3  35
TORSDOF 13
ENDMDL
