REMARK VINA RESULT:      -5.0      2.467      3.811
REMARK  18 active torsions:
REMARK  status: ('A' for Active; 'I' for Inactive)
REMARK    1  A    between atoms: P_1  and  O1P_2 
REMARK    2  A    between atoms: P_1  and  O2P_4 
REMARK    3  A    between atoms: P_1  and  O3P_6 
REMARK    4  A    between atoms: O3P_6  and  C1_7 
REMARK    5  A    between atoms: C1_7  and  C2_8 
REMARK    6  A    between atoms: C2_8  and  C3_9 
REMARK    7  A    between atoms: C3_9  and  O3_10 
REMARK    8  A    between atoms: O3_10  and  C11_11 
REMARK    9  A    between atoms: C11_11  and  C12_13 
REMARK   10  A    between atoms: C12_13  and  C13_14 
REMARK   11  A    between atoms: C13_14  and  C14_15 
REMARK   12  A    between atoms: C14_15  and  C15_16 
REMARK   13  A    between atoms: C15_16  and  C16_17 
REMARK   14  A    between atoms: C16_17  and  C17_18 
REMARK   15  A    between atoms: C17_18  and  C18_19 
REMARK   16  A    between atoms: C18_19  and  C19_20 
REMARK   17  A    between atoms: C19_20  and  C20_21 
REMARK   18  A    between atoms: C20_21  and  C21_22 
ROOT
HETATM    1  C11 MC3 X 301      18.797  45.007  15.309  1.00 74.30     0.258 C 
HETATM    2  O11 MC3 X 301      18.769  46.007  14.653  1.00 71.30    -0.265 OA
ENDROOT
BRANCH   1   3
HETATM    3  O3  MC3 X 301      18.086  43.928  14.990  1.00 84.33    -0.321 OA
BRANCH   3   4
HETATM    4  C3  MC3 X 301      18.723  42.649  15.215  1.00 88.26     0.185 C 
BRANCH   4   5
HETATM    5  C2  MC3 X 301      17.795  41.745  15.997  1.00 84.83     0.042 C 
BRANCH   5   6
HETATM    6  C1  MC3 X 301      17.038  40.759  15.135  1.00 87.52     0.185 C 
BRANCH   6   7
HETATM    7  O3P MC3 X 301      15.728  41.319  14.841  1.00 93.34    -0.317 OA
BRANCH   7   8
HETATM    8  P   MC3 X 301      15.322  41.643  13.320  1.00 99.76     0.329 P 
BRANCH   8   9
HETATM    9  O1P MC3 X 301      16.230  42.701  12.739  1.00 79.99    -0.328 OA
HETATM   10  H1P MC3 X 301      17.110  42.390  12.564  1.00  0.00     0.219 HD
ENDBRANCH   8   9
BRANCH   8  11
HETATM   11  O2P MC3 X 301      13.798  42.126  13.484  1.00 83.77    -0.328 OA
HETATM   12  H2P MC3 X 301      13.623  42.549  14.316  1.00  0.00     0.219 HD
ENDBRANCH   8  11
ENDBRANCH   7   8
ENDBRANCH   6   7
ENDBRANCH   5   6
ENDBRANCH   4   5
ENDBRANCH   3   4
ENDBRANCH   1   3
BRANCH   1  13
HETATM   13  C12 MC3 X 301      19.642  44.786  16.547  1.00 70.26     0.111 C 
BRANCH  13  14
HETATM   14  C13 MC3 X 301      18.900  44.909  17.848  1.00 68.05     0.010 C 
BRANCH  14  15
HETATM   15  C14 MC3 X 301      19.811  45.069  19.069  1.00 65.69     0.000 C 
BRANCH  15  16
HETATM   16  C15 MC3 X 301      20.051  43.771  19.834  1.00 64.07     0.000 C 
BRANCH  16  17
HETATM   17  C16 MC3 X 301      19.244  42.563  19.367  1.00 63.64     0.000 C 
BRANCH  17  18
HETATM   18  C17 MC3 X 301      20.088  41.386  18.909  1.00 65.61     0.000 C 
BRANCH  18  19
HETATM   19  C18 MC3 X 301      21.185  41.732  17.915  1.00 65.35     0.000 C 
BRANCH  19  20
HETATM   20  C19 MC3 X 301      22.593  41.490  18.421  1.00 59.74     0.000 C 
BRANCH  20  21
HETATM   21  C20 MC3 X 301      23.500  42.717  18.396  1.00 58.18     0.000 C 
BRANCH  21  22
HETATM   22  C21 MC3 X 301      23.692  43.379  19.743  1.00 54.24     0.000 C 
HETATM   23  C22 MC3 X 301      23.605  44.882  19.740  1.00 55.64     0.000 C 
ENDBRANCH  21  22
ENDBRANCH  20  21
ENDBRANCH  19  20
ENDBRANCH  18  19
ENDBRANCH  17  18
ENDBRANCH  16  17
ENDBRANCH  15  16
ENDBRANCH  14  15
ENDBRANCH  13  14
ENDBRANCH   1  13
TORSDOF 18
