REMARK VINA RESULT:      -7.0      9.743     11.294
REMARK  6 active torsions:
REMARK  status: ('A' for Active; 'I' for Inactive)
REMARK    1  A    between atoms: O_2  and  C_9 
REMARK    2  A    between atoms: O_4  and  C_14 
REMARK    3  A    between atoms: O_5  and  C_19 
REMARK    4  A    between atoms: O_6  and  C_20 
REMARK    5  A    between atoms: O_7  and  C_22 
REMARK    6  A    between atoms: C_8  and  C_10 
ROOT
HETATM    1  O   UNK     0      20.255  45.436  17.747  0.00  0.00    -0.337 OA
HETATM    2  O   UNK     0      19.860  43.352  14.233  0.00  0.00    -0.289 OA
HETATM    3  C   UNK     0      20.361  44.004  17.714  0.00  0.00     0.198 C 
HETATM    4  C   UNK     0      20.942  43.522  16.384  0.00  0.00     0.227 C 
HETATM    5  C   UNK     0      20.045  43.994  15.261  0.00  0.00     0.196 C 
HETATM    6  C   UNK     0      19.418  45.315  15.459  0.00  0.00     0.079 A 
HETATM    7  C   UNK     0      19.573  45.967  16.685  0.00  0.00     0.089 A 
HETATM    8  C   UNK     0      18.703  45.921  14.422  0.00  0.00     0.085 A 
HETATM    9  C   UNK     0      19.040  47.245  16.861  0.00  0.00     0.074 A 
HETATM   10  C   UNK     0      18.156  47.190  14.612  0.00  0.00     0.074 A 
HETATM   11  C   UNK     0      18.328  47.853  15.827  0.00  0.00     0.071 A 
ENDROOT
BRANCH   3  12
HETATM   12  C   UNK     0      21.225  43.590  18.889  0.00  0.00    -0.023 A 
HETATM   13  C   UNK     0      21.147  42.290  19.383  0.00  0.00     0.049 A 
HETATM   14  C   UNK     0      21.942  41.908  20.465  0.00  0.00     0.099 A 
HETATM   15  C   UNK     0      22.811  42.828  21.050  0.00  0.00     0.098 A 
HETATM   16  C   UNK     0      22.887  44.130  20.553  0.00  0.00     0.040 A 
HETATM   17  C   UNK     0      22.093  44.511  19.473  0.00  0.00     0.013 A 
BRANCH  14  18
HETATM   18  O   UNK     0      21.860  40.634  20.940  0.00  0.00    -0.358 OA
HETATM   19  H   UNK     0      21.742  40.675  21.905  0.00  0.00     0.217 HD
ENDBRANCH  14  18
BRANCH  15  20
HETATM   20  O   UNK     0      23.593  42.467  22.106  0.00  0.00    -0.358 OA
HETATM   21  H   UNK     0      24.517  42.699  21.909  0.00  0.00     0.217 HD
ENDBRANCH  15  20
ENDBRANCH   3  12
BRANCH   4  22
HETATM   22  O   UNK     0      20.981  42.105  16.353  0.00  0.00    -0.385 OA
HETATM   23  H   UNK     0      21.873  41.843  16.068  0.00  0.00     0.210 HD
ENDBRANCH   4  22
BRANCH   8  24
HETATM   24  O   UNK     0      18.519  45.328  13.209  0.00  0.00    -0.360 OA
HETATM   25  H   UNK     0      17.582  45.339  12.962  0.00  0.00     0.217 HD
ENDBRANCH   8  24
BRANCH  11  26
HETATM   26  O   UNK     0      17.799  49.095  16.004  0.00  0.00    -0.361 OA
HETATM   27  H   UNK     0      17.519  49.189  16.931  0.00  0.00     0.217 HD
ENDBRANCH  11  26
TORSDOF 6
