MODEL 1
REMARK VINA RESULT:      -7.8      0.000      0.000
REMARK  6 active torsions:
REMARK  status: ('A' for Active; 'I' for Inactive)
REMARK    1  A    between atoms: O_2  and  C_12 
REMARK    2  A    between atoms: O_3  and  C_14 
REMARK    3  A    between atoms: O_5  and  C_16 
REMARK    4  A    between atoms: O_6  and  C_20 
REMARK    5  A    between atoms: O_7  and  C_22 
REMARK    6  A    between atoms: C_10  and  C_11 
ROOT
HETATM    1  O   UNK     0     150.829 157.063 151.229  0.00  0.00    -0.306 OA
HETATM    2  O   UNK     0     148.196 154.114 150.240  0.00  0.00    -0.284 OA
HETATM    3  C   UNK     0     148.646 156.425 150.383  0.00  0.00     0.084 A 
HETATM    4  C   UNK     0     149.590 157.385 150.740  0.00  0.00     0.096 A 
HETATM    5  C   UNK     0     151.161 155.724 151.361  0.00  0.00     0.123 A 
HETATM    6  C   UNK     0     150.339 154.701 151.060  0.00  0.00     0.152 A 
HETATM    7  C   UNK     0     148.986 155.002 150.533  0.00  0.00     0.223 A 
HETATM    8  C   UNK     0     147.397 156.813 149.891  0.00  0.00     0.085 A 
HETATM    9  C   UNK     0     149.289 158.742 150.609  0.00  0.00     0.075 A 
HETATM   10  C   UNK     0     148.044 159.132 150.118  0.00  0.00     0.071 A 
HETATM   11  C   UNK     0     147.100 158.169 149.760  0.00  0.00     0.074 A 
ENDROOT
BRANCH   5  12
HETATM   12  C   UNK     0     152.518 155.517 151.896  0.00  0.00     0.004 A 
HETATM   13  C   UNK     0     152.698 155.222 153.247  0.00  0.00     0.053 A 
HETATM   14  C   UNK     0     153.984 155.026 153.753  0.00  0.00     0.099 A 
HETATM   15  C   UNK     0     155.089 155.125 152.907  0.00  0.00     0.098 A 
HETATM   16  C   UNK     0     154.908 155.420 151.556  0.00  0.00     0.040 A 
HETATM   17  C   UNK     0     153.623 155.616 151.050  0.00  0.00     0.017 A 
BRANCH  14  18
HETATM   18  O   UNK     0     154.148 154.740 155.074  0.00  0.00    -0.358 OA
HETATM   19  H   UNK     0     153.424 155.133 155.588  0.00  0.00     0.217 HD
ENDBRANCH  14  18
BRANCH  15  20
HETATM   20  O   UNK     0     156.349 154.934 153.389  0.00  0.00    -0.358 OA
HETATM   21  H   UNK     0     156.546 153.985 153.422  0.00  0.00     0.217 HD
ENDBRANCH  15  20
ENDBRANCH   5  12
BRANCH   6  22
HETATM   22  O   UNK     0     150.687 153.379 151.234  0.00  0.00    -0.355 OA
HETATM   23  H   UNK     0     149.888 152.837 151.329  0.00  0.00     0.218 HD
ENDBRANCH   6  22
BRANCH   8  24
HETATM   24  O   UNK     0     146.439 155.914 149.527  0.00  0.00    -0.360 OA
HETATM   25  H   UNK     0     145.758 155.847 150.213  0.00  0.00     0.217 HD
ENDBRANCH   8  24
BRANCH  10  26
HETATM   26  O   UNK     0     147.749 160.456 149.989  0.00  0.00    -0.361 OA
HETATM   27  H   UNK     0     147.268 160.591 149.155  0.00  0.00     0.217 HD
ENDBRANCH  10  26
TORSDOF 6
ENDMDL
MODEL 2
REMARK VINA RESULT:      -7.6      2.251      6.814
REMARK  6 active torsions:
REMARK  status: ('A' for Active; 'I' for Inactive)
REMARK    1  A    between atoms: O_2  and  C_12 
REMARK    2  A    between atoms: O_3  and  C_14 
REMARK    3  A    between atoms: O_5  and  C_16 
REMARK    4  A    between atoms: O_6  and  C_20 
REMARK    5  A    between atoms: O_7  and  C_22 
REMARK    6  A    between atoms: C_10  and  C_11 
ROOT
HETATM    1  O   UNK     0     151.777 155.724 151.314  0.00  0.00    -0.306 OA
HETATM    2  O   UNK     0     153.385 151.982 151.200  0.00  0.00    -0.284 OA
HETATM    3  C   UNK     0     153.694 154.276 151.654  0.00  0.00     0.084 A 
HETATM    4  C   UNK     0     153.085 155.529 151.670  0.00  0.00     0.096 A 
HETATM    5  C   UNK     0     151.023 154.625 150.934  0.00  0.00     0.123 A 
HETATM    6  C   UNK     0     151.492 153.365 150.867  0.00  0.00     0.152 A 
HETATM    7  C   UNK     0     152.904 153.106 151.239  0.00  0.00     0.223 A 
HETATM    8  C   UNK     0     155.033 154.137 152.026  0.00  0.00     0.085 A 
HETATM    9  C   UNK     0     153.815 156.654 152.057  0.00  0.00     0.075 A 
HETATM   10  C   UNK     0     155.153 156.519 152.430  0.00  0.00     0.071 A 
HETATM   11  C   UNK     0     155.760 155.263 152.414  0.00  0.00     0.074 A 
ENDROOT
BRANCH   5  12
HETATM   12  C   UNK     0     149.637 154.973 150.577  0.00  0.00     0.004 A 
HETATM   13  C   UNK     0     149.351 155.501 149.319  0.00  0.00     0.053 A 
HETATM   14  C   UNK     0     148.038 155.830 148.982  0.00  0.00     0.099 A 
HETATM   15  C   UNK     0     147.010 155.631 149.904  0.00  0.00     0.098 A 
HETATM   16  C   UNK     0     147.296 155.101 151.163  0.00  0.00     0.040 A 
HETATM   17  C   UNK     0     148.609 154.772 151.500  0.00  0.00     0.017 A 
BRANCH  14  18
HETATM   18  O   UNK     0     147.770 156.348 147.751  0.00  0.00    -0.358 OA
HETATM   19  H   UNK     0     148.573 156.755 147.385  0.00  0.00     0.217 HD
ENDBRANCH  14  18
BRANCH  15  20
HETATM   20  O   UNK     0     145.723 155.946 149.586  0.00  0.00    -0.358 OA
HETATM   21  H   UNK     0     145.339 155.243 149.039  0.00  0.00     0.217 HD
ENDBRANCH  15  20
ENDBRANCH   5  12
BRANCH   6  22
HETATM   22  O   UNK     0     150.725 152.297 150.454  0.00  0.00    -0.355 OA
HETATM   23  H   UNK     0     150.082 152.591 149.788  0.00  0.00     0.218 HD
ENDBRANCH   6  22
BRANCH   8  24
HETATM   24  O   UNK     0     155.675 152.935 152.028  0.00  0.00    -0.360 OA
HETATM   25  H   UNK     0     156.019 152.734 152.912  0.00  0.00     0.217 HD
ENDBRANCH   8  24
BRANCH  10  26
HETATM   26  O   UNK     0     155.865 157.616 152.809  0.00  0.00    -0.361 OA
HETATM   27  H   UNK     0     155.422 158.032 153.568  0.00  0.00     0.217 HD
ENDBRANCH  10  26
TORSDOF 6
ENDMDL
MODEL 3
REMARK VINA RESULT:      -7.6      1.212      1.820
REMARK  6 active torsions:
REMARK  status: ('A' for Active; 'I' for Inactive)
REMARK    1  A    between atoms: O_2  and  C_12 
REMARK    2  A    between atoms: O_3  and  C_14 
REMARK    3  A    between atoms: O_5  and  C_16 
REMARK    4  A    between atoms: O_6  and  C_20 
REMARK    5  A    between atoms: O_7  and  C_22 
REMARK    6  A    between atoms: C_10  and  C_11 
ROOT
HETATM    1  O   UNK     0     150.156 157.404 150.808  0.00  0.00    -0.306 OA
HETATM    2  O   UNK     0     147.929 154.024 150.335  0.00  0.00    -0.284 OA
HETATM    3  C   UNK     0     148.043 156.376 150.201  0.00  0.00     0.084 A 
HETATM    4  C   UNK     0     148.856 157.493 150.383  0.00  0.00     0.096 A 
HETATM    5  C   UNK     0     150.688 156.147 151.053  0.00  0.00     0.123 A 
HETATM    6  C   UNK     0     150.008 154.993 150.924  0.00  0.00     0.152 A 
HETATM    7  C   UNK     0     148.597 155.040 150.472  0.00  0.00     0.223 A 
HETATM    8  C   UNK     0     146.724 156.527 149.767  0.00  0.00     0.085 A 
HETATM    9  C   UNK     0     148.353 158.770 150.134  0.00  0.00     0.075 A 
HETATM   10  C   UNK     0     147.036 158.925 149.701  0.00  0.00     0.071 A 
HETATM   11  C   UNK     0     146.223 157.805 149.518  0.00  0.00     0.074 A 
ENDROOT
BRANCH   5  12
HETATM   12  C   UNK     0     152.090 156.194 151.502  0.00  0.00     0.004 A 
HETATM   13  C   UNK     0     153.100 156.536 150.603  0.00  0.00     0.053 A 
HETATM   14  C   UNK     0     154.428 156.580 151.028  0.00  0.00     0.099 A 
HETATM   15  C   UNK     0     154.746 156.283 152.354  0.00  0.00     0.098 A 
HETATM   16  C   UNK     0     153.736 155.942 153.254  0.00  0.00     0.040 A 
HETATM   17  C   UNK     0     152.408 155.898 152.828  0.00  0.00     0.017 A 
BRANCH  14  18
HETATM   18  O   UNK     0     155.406 156.912 150.141  0.00  0.00    -0.358 OA
HETATM   19  H   UNK     0     155.800 156.106 149.769  0.00  0.00     0.217 HD
ENDBRANCH  14  18
BRANCH  15  20
HETATM   20  O   UNK     0     156.038 156.325 152.782  0.00  0.00    -0.358 OA
HETATM   21  H   UNK     0     156.637 156.305 152.019  0.00  0.00     0.217 HD
ENDBRANCH  15  20
ENDBRANCH   5  12
BRANCH   6  22
HETATM   22  O   UNK     0     150.556 153.761 151.208  0.00  0.00    -0.355 OA
HETATM   23  H   UNK     0     149.885 153.186 151.609  0.00  0.00     0.218 HD
ENDBRANCH   6  22
BRANCH   8  24
HETATM   24  O   UNK     0     145.888 155.469 149.573  0.00  0.00    -0.360 OA
HETATM   25  H   UNK     0     145.010 155.775 149.298  0.00  0.00     0.217 HD
ENDBRANCH   8  24
BRANCH  10  26
HETATM   26  O   UNK     0     146.544 160.171 149.457  0.00  0.00    -0.361 OA
HETATM   27  H   UNK     0     145.572 160.138 149.493  0.00  0.00     0.217 HD
ENDBRANCH  10  26
TORSDOF 6
ENDMDL
MODEL 4
REMARK VINA RESULT:      -7.5      2.196      3.759
REMARK  6 active torsions:
REMARK  status: ('A' for Active; 'I' for Inactive)
REMARK    1  A    between atoms: O_2  and  C_12 
REMARK    2  A    between atoms: O_3  and  C_14 
REMARK    3  A    between atoms: O_5  and  C_16 
REMARK    4  A    between atoms: O_6  and  C_20 
REMARK    5  A    between atoms: O_7  and  C_22 
REMARK    6  A    between atoms: C_10  and  C_11 
ROOT
HETATM    1  O   UNK     0     151.192 157.491 151.022  0.00  0.00    -0.306 OA
HETATM    2  O   UNK     0     152.299 161.205 152.282  0.00  0.00    -0.284 OA
HETATM    3  C   UNK     0     150.643 159.838 151.306  0.00  0.00     0.084 A 
HETATM    4  C   UNK     0     150.326 158.545 150.894  0.00  0.00     0.096 A 
HETATM    5  C   UNK     0     152.432 157.719 151.599  0.00  0.00     0.123 A 
HETATM    6  C   UNK     0     152.863 158.919 152.030  0.00  0.00     0.152 A 
HETATM    7  C   UNK     0     151.962 160.090 151.907  0.00  0.00     0.223 A 
HETATM    8  C   UNK     0     149.720 160.875 151.149  0.00  0.00     0.085 A 
HETATM    9  C   UNK     0     149.082 158.281 150.319  0.00  0.00     0.075 A 
HETATM   10  C   UNK     0     148.158 159.315 150.161  0.00  0.00     0.071 A 
HETATM   11  C   UNK     0     148.477 160.608 150.575  0.00  0.00     0.074 A 
ENDROOT
BRANCH   5  12
HETATM   12  C   UNK     0     153.262 156.504 151.677  0.00  0.00     0.004 A 
HETATM   13  C   UNK     0     153.098 155.613 152.737  0.00  0.00     0.053 A 
HETATM   14  C   UNK     0     153.884 154.463 152.811  0.00  0.00     0.099 A 
HETATM   15  C   UNK     0     154.835 154.205 151.823  0.00  0.00     0.098 A 
HETATM   16  C   UNK     0     154.999 155.095 150.762  0.00  0.00     0.040 A 
HETATM   17  C   UNK     0     154.213 156.245 150.689  0.00  0.00     0.017 A 
BRANCH  14  18
HETATM   18  O   UNK     0     153.717 153.601 153.851  0.00  0.00    -0.358 OA
HETATM   19  H   UNK     0     154.089 152.734 153.623  0.00  0.00     0.217 HD
ENDBRANCH  14  18
BRANCH  15  20
HETATM   20  O   UNK     0     155.608 153.084 151.882  0.00  0.00    -0.358 OA
HETATM   21  H   UNK     0     155.049 152.296 151.792  0.00  0.00     0.217 HD
ENDBRANCH  15  20
ENDBRANCH   5  12
BRANCH   6  22
HETATM   22  O   UNK     0     154.116 159.119 152.569  0.00  0.00    -0.355 OA
HETATM   23  H   UNK     0     154.406 160.030 152.401  0.00  0.00     0.218 HD
ENDBRANCH   6  22
BRANCH   8  24
HETATM   24  O   UNK     0     149.981 162.155 151.534  0.00  0.00    -0.360 OA
HETATM   25  H   UNK     0     149.980 162.226 152.501  0.00  0.00     0.217 HD
ENDBRANCH   8  24
BRANCH  10  26
HETATM   26  O   UNK     0     146.944 159.059 149.601  0.00  0.00    -0.361 OA
HETATM   27  H   UNK     0     146.559 159.895 149.286  0.00  0.00     0.217 HD
ENDBRANCH  10  26
TORSDOF 6
ENDMDL
MODEL 5
REMARK VINA RESULT:      -7.5      4.745      6.775
REMARK  6 active torsions:
REMARK  status: ('A' for Active; 'I' for Inactive)
REMARK    1  A    between atoms: O_2  and  C_12 
REMARK    2  A    between atoms: O_3  and  C_14 
REMARK    3  A    between atoms: O_5  and  C_16 
REMARK    4  A    between atoms: O_6  and  C_20 
REMARK    5  A    between atoms: O_7  and  C_22 
REMARK    6  A    between atoms: C_10  and  C_11 
ROOT
HETATM    1  O   UNK     0     154.620 157.423 148.728  0.00  0.00    -0.306 OA
HETATM    2  O   UNK     0     156.499 160.751 150.143  0.00  0.00    -0.284 OA
HETATM    3  C   UNK     0     155.626 159.587 148.287  0.00  0.00     0.084 A 
HETATM    4  C   UNK     0     154.983 158.424 147.866  0.00  0.00     0.096 A 
HETATM    5  C   UNK     0     154.894 157.580 150.078  0.00  0.00     0.123 A 
HETATM    6  C   UNK     0     155.515 158.648 150.611  0.00  0.00     0.152 A 
HETATM    7  C   UNK     0     155.931 159.754 149.716  0.00  0.00     0.223 A 
HETATM    8  C   UNK     0     155.973 160.574 147.361  0.00  0.00     0.085 A 
HETATM    9  C   UNK     0     154.685 158.241 146.515  0.00  0.00     0.075 A 
HETATM   10  C   UNK     0     155.031 159.225 145.589  0.00  0.00     0.071 A 
HETATM   11  C   UNK     0     155.674 160.389 146.012  0.00  0.00     0.074 A 
ENDROOT
BRANCH   5  12
HETATM   12  C   UNK     0     154.452 156.434 150.892  0.00  0.00     0.004 A 
HETATM   13  C   UNK     0     155.261 155.303 151.001  0.00  0.00     0.053 A 
HETATM   14  C   UNK     0     154.843 154.218 151.772  0.00  0.00     0.099 A 
HETATM   15  C   UNK     0     153.615 154.265 152.434  0.00  0.00     0.098 A 
HETATM   16  C   UNK     0     152.807 155.396 152.326  0.00  0.00     0.040 A 
HETATM   17  C   UNK     0     153.225 156.481 151.555  0.00  0.00     0.017 A 
BRANCH  14  18
HETATM   18  O   UNK     0     155.639 153.117 151.869  0.00  0.00    -0.358 OA
HETATM   19  H   UNK     0     156.510 153.307 151.486  0.00  0.00     0.217 HD
ENDBRANCH  14  18
BRANCH  15  20
HETATM   20  O   UNK     0     153.197 153.212 153.192  0.00  0.00    -0.358 OA
HETATM   21  H   UNK     0     152.642 152.624 152.657  0.00  0.00     0.217 HD
ENDBRANCH  15  20
ENDBRANCH   5  12
BRANCH   6  22
HETATM   22  O   UNK     0     155.802 158.759 151.954  0.00  0.00    -0.355 OA
HETATM   23  H   UNK     0     155.483 157.973 152.426  0.00  0.00     0.218 HD
ENDBRANCH   6  22
BRANCH   8  24
HETATM   24  O   UNK     0     156.603 161.728 147.720  0.00  0.00    -0.360 OA
HETATM   25  H   UNK     0     156.417 162.431 147.078  0.00  0.00     0.217 HD
ENDBRANCH   8  24
BRANCH  10  26
HETATM   26  O   UNK     0     154.740 159.048 144.270  0.00  0.00    -0.361 OA
HETATM   27  H   UNK     0     154.492 159.906 143.885  0.00  0.00     0.217 HD
ENDBRANCH  10  26
TORSDOF 6
ENDMDL
MODEL 6
REMARK VINA RESULT:      -7.4      4.563      7.100
REMARK  6 active torsions:
REMARK  status: ('A' for Active; 'I' for Inactive)
REMARK    1  A    between atoms: O_2  and  C_12 
REMARK    2  A    between atoms: O_3  and  C_14 
REMARK    3  A    between atoms: O_5  and  C_16 
REMARK    4  A    between atoms: O_6  and  C_20 
REMARK    5  A    between atoms: O_7  and  C_22 
REMARK    6  A    between atoms: C_10  and  C_11 
ROOT
HETATM    1  O   UNK     0     154.289 153.481 149.125  0.00  0.00    -0.306 OA
HETATM    2  O   UNK     0     150.650 153.969 150.892  0.00  0.00    -0.284 OA
HETATM    3  C   UNK     0     152.987 154.259 151.019  0.00  0.00     0.084 A 
HETATM    4  C   UNK     0     154.201 154.063 150.362  0.00  0.00     0.096 A 
HETATM    5  C   UNK     0     153.120 153.083 148.495  0.00  0.00     0.123 A 
HETATM    6  C   UNK     0     151.889 153.209 149.023  0.00  0.00     0.152 A 
HETATM    7  C   UNK     0     151.744 153.828 150.363  0.00  0.00     0.223 A 
HETATM    8  C   UNK     0     152.958 154.857 152.282  0.00  0.00     0.085 A 
HETATM    9  C   UNK     0     155.394 154.461 150.966  0.00  0.00     0.075 A 
HETATM   10  C   UNK     0     155.368 155.059 152.227  0.00  0.00     0.071 A 
HETATM   11  C   UNK     0     154.152 155.255 152.883  0.00  0.00     0.074 A 
ENDROOT
BRANCH   5  12
HETATM   12  C   UNK     0     153.357 152.475 147.174  0.00  0.00     0.004 A 
HETATM   13  C   UNK     0     153.556 151.099 147.064  0.00  0.00     0.053 A 
HETATM   14  C   UNK     0     153.779 150.524 145.813  0.00  0.00     0.099 A 
HETATM   15  C   UNK     0     153.804 151.325 144.671  0.00  0.00     0.098 A 
HETATM   16  C   UNK     0     153.604 152.701 144.781  0.00  0.00     0.040 A 
HETATM   17  C   UNK     0     153.380 153.277 146.032  0.00  0.00     0.017 A 
BRANCH  14  18
HETATM   18  O   UNK     0     153.975 149.179 145.718  0.00  0.00    -0.358 OA
HETATM   19  H   UNK     0     153.995 148.916 144.784  0.00  0.00     0.217 HD
ENDBRANCH  14  18
BRANCH  15  20
HETATM   20  O   UNK     0     154.019 150.775 143.444  0.00  0.00    -0.358 OA
HETATM   21  H   UNK     0     153.255 150.233 143.189  0.00  0.00     0.217 HD
ENDBRANCH  15  20
ENDBRANCH   5  12
BRANCH   6  22
HETATM   22  O   UNK     0     150.748 152.773 148.384  0.00  0.00    -0.355 OA
HETATM   23  H   UNK     0     150.781 153.019 147.445  0.00  0.00     0.218 HD
ENDBRANCH   6  22
BRANCH   8  24
HETATM   24  O   UNK     0     151.800 155.072 152.967  0.00  0.00    -0.360 OA
HETATM   25  H   UNK     0     151.331 154.236 153.112  0.00  0.00     0.217 HD
ENDBRANCH   8  24
BRANCH  10  26
HETATM   26  O   UNK     0     156.531 155.449 152.817  0.00  0.00    -0.361 OA
HETATM   27  H   UNK     0     156.942 154.677 153.243  0.00  0.00     0.217 HD
ENDBRANCH  10  26
TORSDOF 6
ENDMDL
MODEL 7
REMARK VINA RESULT:      -7.3      1.212      2.883
REMARK  6 active torsions:
REMARK  status: ('A' for Active; 'I' for Inactive)
REMARK    1  A    between atoms: O_2  and  C_12 
REMARK    2  A    between atoms: O_3  and  C_14 
REMARK    3  A    between atoms: O_5  and  C_16 
REMARK    4  A    between atoms: O_6  and  C_20 
REMARK    5  A    between atoms: O_7  and  C_22 
REMARK    6  A    between atoms: C_10  and  C_11 
ROOT
HETATM    1  O   UNK     0     150.757 155.409 151.042  0.00  0.00    -0.306 OA
HETATM    2  O   UNK     0     149.666 159.305 150.548  0.00  0.00    -0.284 OA
HETATM    3  C   UNK     0     149.090 157.027 150.338  0.00  0.00     0.084 A 
HETATM    4  C   UNK     0     149.523 155.717 150.530  0.00  0.00     0.096 A 
HETATM    5  C   UNK     0     151.604 156.448 151.395  0.00  0.00     0.123 A 
HETATM    6  C   UNK     0     151.311 157.754 151.253  0.00  0.00     0.152 A 
HETATM    7  C   UNK     0     149.989 158.134 150.699  0.00  0.00     0.223 A 
HETATM    8  C   UNK     0     147.821 157.280 149.811  0.00  0.00     0.085 A 
HETATM    9  C   UNK     0     148.689 154.650 150.194  0.00  0.00     0.075 A 
HETATM   10  C   UNK     0     147.421 154.899 149.668  0.00  0.00     0.071 A 
HETATM   11  C   UNK     0     146.989 156.212 149.477  0.00  0.00     0.074 A 
ENDROOT
BRANCH   5  12
HETATM   12  C   UNK     0     152.895 155.981 151.930  0.00  0.00     0.004 A 
HETATM   13  C   UNK     0     152.990 155.565 153.259  0.00  0.00     0.053 A 
HETATM   14  C   UNK     0     154.212 155.123 153.765  0.00  0.00     0.099 A 
HETATM   15  C   UNK     0     155.339 155.095 152.943  0.00  0.00     0.098 A 
HETATM   16  C   UNK     0     155.244 155.510 151.615  0.00  0.00     0.040 A 
HETATM   17  C   UNK     0     154.022 155.952 151.108  0.00  0.00     0.017 A 
BRANCH  14  18
HETATM   18  O   UNK     0     154.294 154.722 155.064  0.00  0.00    -0.358 OA
HETATM   19  H   UNK     0     154.888 155.315 155.554  0.00  0.00     0.217 HD
ENDBRANCH  14  18
BRANCH  15  20
HETATM   20  O   UNK     0     156.538 154.663 153.426  0.00  0.00    -0.358 OA
HETATM   21  H   UNK     0     157.037 154.224 152.718  0.00  0.00     0.217 HD
ENDBRANCH  15  20
ENDBRANCH   5  12
BRANCH   6  22
HETATM   22  O   UNK     0     152.189 158.763 151.583  0.00  0.00    -0.355 OA
HETATM   23  H   UNK     0     152.351 158.759 152.541  0.00  0.00     0.218 HD
ENDBRANCH   6  22
BRANCH   8  24
HETATM   24  O   UNK     0     147.349 158.542 149.604  0.00  0.00    -0.360 OA
HETATM   25  H   UNK     0     147.860 159.185 150.119  0.00  0.00     0.217 HD
ENDBRANCH   8  24
BRANCH  10  26
HETATM   26  O   UNK     0     146.606 153.859 149.340  0.00  0.00    -0.361 OA
HETATM   27  H   UNK     0     147.131 153.180 148.882  0.00  0.00     0.217 HD
ENDBRANCH  10  26
TORSDOF 6
ENDMDL
MODEL 8
REMARK VINA RESULT:      -7.3      3.593      6.333
REMARK  6 active torsions:
REMARK  status: ('A' for Active; 'I' for Inactive)
REMARK    1  A    between atoms: O_2  and  C_12 
REMARK    2  A    between atoms: O_3  and  C_14 
REMARK    3  A    between atoms: O_5  and  C_16 
REMARK    4  A    between atoms: O_6  and  C_20 
REMARK    5  A    between atoms: O_7  and  C_22 
REMARK    6  A    between atoms: C_10  and  C_11 
ROOT
HETATM    1  O   UNK     0     149.030 158.368 150.426  0.00  0.00    -0.306 OA
HETATM    2  O   UNK     0     145.148 158.107 149.213  0.00  0.00    -0.284 OA
HETATM    3  C   UNK     0     147.074 156.996 149.998  0.00  0.00     0.084 A 
HETATM    4  C   UNK     0     148.399 157.152 150.401  0.00  0.00     0.096 A 
HETATM    5  C   UNK     0     148.314 159.493 150.046  0.00  0.00     0.123 A 
HETATM    6  C   UNK     0     147.034 159.477 149.630  0.00  0.00     0.152 A 
HETATM    7  C   UNK     0     146.313 158.183 149.582  0.00  0.00     0.223 A 
HETATM    8  C   UNK     0     146.484 155.729 149.992  0.00  0.00     0.085 A 
HETATM    9  C   UNK     0     149.143 156.040 150.799  0.00  0.00     0.075 A 
HETATM   10  C   UNK     0     148.556 154.774 150.794  0.00  0.00     0.071 A 
HETATM   11  C   UNK     0     147.229 154.620 150.391  0.00  0.00     0.074 A 
ENDROOT
BRANCH   5  12
HETATM   12  C   UNK     0     149.108 160.732 150.119  0.00  0.00     0.004 A 
HETATM   13  C   UNK     0     149.407 161.297 151.359  0.00  0.00     0.053 A 
HETATM   14  C   UNK     0     150.159 162.470 151.427  0.00  0.00     0.099 A 
HETATM   15  C   UNK     0     150.611 163.078 150.256  0.00  0.00     0.098 A 
HETATM   16  C   UNK     0     150.313 162.512 149.016  0.00  0.00     0.040 A 
HETATM   17  C   UNK     0     149.561 161.339 148.948  0.00  0.00     0.017 A 
BRANCH  14  18
HETATM   18  O   UNK     0     150.443 163.015 152.643  0.00  0.00    -0.358 OA
HETATM   19  H   UNK     0     149.662 162.961 153.217  0.00  0.00     0.217 HD
ENDBRANCH  14  18
BRANCH  15  20
HETATM   20  O   UNK     0     151.349 164.222 150.310  0.00  0.00    -0.358 OA
HETATM   21  H   UNK     0     151.422 164.607 149.423  0.00  0.00     0.217 HD
ENDBRANCH  15  20
ENDBRANCH   5  12
BRANCH   6  22
HETATM   22  O   UNK     0     146.360 160.610 149.227  0.00  0.00    -0.355 OA
HETATM   23  H   UNK     0     146.253 160.605 148.262  0.00  0.00     0.218 HD
ENDBRANCH   6  22
BRANCH   8  24
HETATM   24  O   UNK     0     145.193 155.523 149.608  0.00  0.00    -0.360 OA
HETATM   25  H   UNK     0     144.842 156.306 149.158  0.00  0.00     0.217 HD
ENDBRANCH   8  24
BRANCH  10  26
HETATM   26  O   UNK     0     149.281 153.689 151.182  0.00  0.00    -0.361 OA
HETATM   27  H   UNK     0     149.824 153.389 150.433  0.00  0.00     0.217 HD
ENDBRANCH  10  26
TORSDOF 6
ENDMDL
MODEL 9
REMARK VINA RESULT:      -7.2      2.191      6.834
REMARK  6 active torsions:
REMARK  status: ('A' for Active; 'I' for Inactive)
REMARK    1  A    between atoms: O_2  and  C_12 
REMARK    2  A    between atoms: O_3  and  C_14 
REMARK    3  A    between atoms: O_5  and  C_16 
REMARK    4  A    between atoms: O_6  and  C_20 
REMARK    5  A    between atoms: O_7  and  C_22 
REMARK    6  A    between atoms: C_10  and  C_11 
ROOT
HETATM    1  O   UNK     0     149.535 157.452 150.425  0.00  0.00    -0.306 OA
HETATM    2  O   UNK     0     151.794 154.091 150.870  0.00  0.00    -0.284 OA
HETATM    3  C   UNK     0     151.590 156.418 151.196  0.00  0.00     0.084 A 
HETATM    4  C   UNK     0     150.770 157.529 151.013  0.00  0.00     0.096 A 
HETATM    5  C   UNK     0     149.077 156.213 150.006  0.00  0.00     0.123 A 
HETATM    6  C   UNK     0     149.772 155.066 150.116  0.00  0.00     0.152 A 
HETATM    7  C   UNK     0     151.116 155.101 150.741  0.00  0.00     0.223 A 
HETATM    8  C   UNK     0     152.842 156.557 151.801  0.00  0.00     0.085 A 
HETATM    9  C   UNK     0     151.198 158.789 151.433  0.00  0.00     0.075 A 
HETATM   10  C   UNK     0     152.447 158.931 152.038  0.00  0.00     0.071 A 
HETATM   11  C   UNK     0     153.267 157.817 152.221  0.00  0.00     0.074 A 
ENDROOT
BRANCH   5  12
HETATM   12  C   UNK     0     147.739 156.271 149.393  0.00  0.00     0.004 A 
HETATM   13  C   UNK     0     147.547 156.964 148.198  0.00  0.00     0.053 A 
HETATM   14  C   UNK     0     146.280 157.019 147.617  0.00  0.00     0.099 A 
HETATM   15  C   UNK     0     145.203 156.379 148.233  0.00  0.00     0.098 A 
HETATM   16  C   UNK     0     145.395 155.684 149.427  0.00  0.00     0.040 A 
HETATM   17  C   UNK     0     146.662 155.630 150.007  0.00  0.00     0.017 A 
BRANCH  14  18
HETATM   18  O   UNK     0     146.104 157.701 146.452  0.00  0.00    -0.358 OA
HETATM   19  H   UNK     0     145.161 157.892 146.322  0.00  0.00     0.217 HD
ENDBRANCH  14  18
BRANCH  15  20
HETATM   20  O   UNK     0     143.961 156.423 147.674  0.00  0.00    -0.358 OA
HETATM   21  H   UNK     0     143.521 157.252 147.919  0.00  0.00     0.217 HD
ENDBRANCH  15  20
ENDBRANCH   5  12
BRANCH   6  22
HETATM   22  O   UNK     0     149.302 153.854 149.659  0.00  0.00    -0.355 OA
HETATM   23  H   UNK     0     149.903 153.500 148.983  0.00  0.00     0.218 HD
ENDBRANCH   6  22
BRANCH   8  24
HETATM   24  O   UNK     0     153.681 155.503 152.003  0.00  0.00    -0.360 OA
HETATM   25  H   UNK     0     154.601 155.766 151.849  0.00  0.00     0.217 HD
ENDBRANCH   8  24
BRANCH  10  26
HETATM   26  O   UNK     0     152.866 160.160 152.449  0.00  0.00    -0.361 OA
HETATM   27  H   UNK     0     153.677 160.394 151.965  0.00  0.00     0.217 HD
ENDBRANCH  10  26
TORSDOF 6
ENDMDL
MODEL 10
REMARK VINA RESULT:      -7.2     23.453     25.599
REMARK  6 active torsions:
REMARK  status: ('A' for Active; 'I' for Inactive)
REMARK    1  A    between atoms: O_2  and  C_12 
REMARK    2  A    between atoms: O_3  and  C_14 
REMARK    3  A    between atoms: O_5  and  C_16 
REMARK    4  A    between atoms: O_6  and  C_20 
REMARK    5  A    between atoms: O_7  and  C_22 
REMARK    6  A    between atoms: C_10  and  C_11 
ROOT
HETATM    1  O   UNK     0     152.183 172.125 133.378  0.00  0.00    -0.306 OA
HETATM    2  O   UNK     0     152.957 171.666 129.403  0.00  0.00    -0.284 OA
HETATM    3  C   UNK     0     153.719 171.448 131.625  0.00  0.00     0.084 A 
HETATM    4  C   UNK     0     153.393 171.629 132.967  0.00  0.00     0.096 A 
HETATM    5  C   UNK     0     151.239 172.446 132.415  0.00  0.00     0.123 A 
HETATM    6  C   UNK     0     151.430 172.326 131.089  0.00  0.00     0.152 A 
HETATM    7  C   UNK     0     152.726 171.799 130.598  0.00  0.00     0.223 A 
HETATM    8  C   UNK     0     154.970 170.940 131.265  0.00  0.00     0.085 A 
HETATM    9  C   UNK     0     154.319 171.306 133.960  0.00  0.00     0.075 A 
HETATM   10  C   UNK     0     155.569 170.798 133.604  0.00  0.00     0.071 A 
HETATM   11  C   UNK     0     155.893 170.616 132.259  0.00  0.00     0.074 A 
ENDROOT
BRANCH   5  12
HETATM   12  C   UNK     0     149.986 172.966 132.990  0.00  0.00     0.004 A 
HETATM   13  C   UNK     0     150.026 173.862 134.058  0.00  0.00     0.053 A 
HETATM   14  C   UNK     0     148.839 174.354 134.602  0.00  0.00     0.099 A 
HETATM   15  C   UNK     0     147.612 173.949 134.077  0.00  0.00     0.098 A 
HETATM   16  C   UNK     0     147.571 173.053 133.009  0.00  0.00     0.040 A 
HETATM   17  C   UNK     0     148.758 172.561 132.465  0.00  0.00     0.017 A 
BRANCH  14  18
HETATM   18  O   UNK     0     148.891 175.227 135.645  0.00  0.00    -0.358 OA
HETATM   19  H   UNK     0     148.928 174.736 136.482  0.00  0.00     0.217 HD
ENDBRANCH  14  18
BRANCH  15  20
HETATM   20  O   UNK     0     146.446 174.425 134.598  0.00  0.00    -0.358 OA
HETATM   21  H   UNK     0     145.698 174.117 134.062  0.00  0.00     0.217 HD
ENDBRANCH  15  20
ENDBRANCH   5  12
BRANCH   6  22
HETATM   22  O   UNK     0     150.482 172.685 130.156  0.00  0.00    -0.355 OA
HETATM   23  H   UNK     0     149.626 172.828 130.593  0.00  0.00     0.218 HD
ENDBRANCH   6  22
BRANCH   8  24
HETATM   24  O   UNK     0     155.338 170.743 129.968  0.00  0.00    -0.360 OA
HETATM   25  H   UNK     0     156.218 170.340 129.921  0.00  0.00     0.217 HD
ENDBRANCH   8  24
BRANCH  10  26
HETATM   26  O   UNK     0     156.473 170.481 134.572  0.00  0.00    -0.361 OA
HETATM   27  H   UNK     0     157.296 170.182 134.148  0.00  0.00     0.217 HD
ENDBRANCH  10  26
TORSDOF 6
ENDMDL
