REMARK  4 active torsions:
REMARK  status: ('A' for Active; 'I' for Inactive)
REMARK    1  A    between atoms: C_1  and  C_10 
REMARK    2  A    between atoms: C_4  and  N_7 
REMARK    3  A    between atoms: C_10  and  O_12 
REMARK    4  A    between atoms: O_12  and  C_13 
ROOT
ATOM      1  C   UNL     1       0.108   0.362   0.001  0.00  0.00     0.063 A 
ATOM      2  C   UNL     1       0.467  -0.986   0.001  0.00  0.00     0.007 A 
ATOM      3  C   UNL     1       1.814  -1.349   0.001  0.00  0.00     0.017 A 
ATOM      4  C   UNL     1       2.802  -0.365  -0.000  0.00  0.00     0.050 A 
ATOM      5  C   UNL     1       2.443   0.983  -0.001  0.00  0.00     0.017 A 
ATOM      6  C   UNL     1       1.096   1.347  -0.000  0.00  0.00     0.007 A 
ENDROOT
BRANCH   1   7
ATOM      7  C   UNL     1      -1.296   0.741   0.001  0.00  0.00     0.296 C 
ATOM      8  O   UNL     1      -1.706   1.909   0.000  0.00  0.00    -0.259 OA
BRANCH   7   9
ATOM      9  O   UNL     1      -2.113  -0.357   0.001  0.00  0.00    -0.298 OA
BRANCH   9  10
ATOM     10  C   UNL     1      -3.524  -0.113  -0.001  0.00  0.00     0.152 C 
ATOM     11  C   UNL     1      -4.253  -1.440  -0.001  0.00  0.00     0.035 C 
ENDBRANCH   9  10
ENDBRANCH   7   9
ENDBRANCH   1   7
BRANCH   4  12
ATOM     12  N   UNL     1       4.163  -0.732  -0.001  0.00  0.00    -0.398 N 
ATOM     13  H   UNL     1       4.880  -0.018  -0.001  0.00  0.00     0.156 HD
ATOM     14  H   UNL     1       4.424  -1.709   0.000  0.00  0.00     0.156 HD
ENDBRANCH   4  12
TORSDOF 4
