MODEL 1
REMARK VINA RESULT:      -6.6      0.000      0.000
REMARK  5 active torsions:
REMARK  status: ('A' for Active; 'I' for Inactive)
REMARK    1  A    between atoms: C_3  and  O_1 
REMARK    2  A    between atoms: C_4  and  O_14 
REMARK    3  A    between atoms: C_7  and  C_8 
REMARK    4  A    between atoms: C_9  and  C_10 
REMARK    5  A    between atoms: C_10  and  O_12 
ROOT
ATOM      1  C   LIG     1      14.727  50.566  21.706  0.00  0.00     0.162 A 
ATOM      2  C   LIG     1      14.721  51.947  21.511  0.00  0.00     0.158 A 
ATOM      3  C   LIG     1      13.871  52.755  22.266  0.00  0.00     0.050 A 
ATOM      4  C   LIG     1      13.026  52.181  23.217  0.00  0.00     0.012 A 
ATOM      5  C   LIG     1      13.032  50.801  23.412  0.00  0.00    -0.021 A 
ATOM      6  C   LIG     1      13.881  49.992  22.657  0.00  0.00     0.057 A 
ENDROOT
BRANCH   5   7
ATOM      7  C   LIG     1      12.151  50.203  24.403  0.00  0.00     0.015 C 
ATOM      8  C   LIG     1      11.348  49.136  24.194  0.00  0.00     0.092 C 
BRANCH   8   9
ATOM      9  C   LIG     1      10.506  48.617  25.290  0.00  0.00     0.330 C 
ATOM     10  O   LIG     1      10.883  47.951  26.241  0.00  0.00    -0.246 OA
BRANCH   9  11
ATOM     11  O   LIG     1       9.227  49.003  25.075  0.00  0.00    -0.478 OA
ATOM     12  H   LIG     1       8.590  48.470  25.597  0.00  0.00     0.295 HD
ENDBRANCH   9  11
ENDBRANCH   8   9
ENDBRANCH   5   7
BRANCH   1  13
ATOM     13  O   LIG     1      15.552  49.766  20.974  0.00  0.00    -0.491 OA
ATOM     14  C   LIG     1      16.797  49.404  21.568  0.00  0.00     0.277 C 
ENDBRANCH   1  13
BRANCH   2  15
ATOM     15  O   LIG     1      15.541  52.519  20.585  0.00  0.00    -0.503 OA
ATOM     16  H   LIG     1      16.185  51.856  20.281  0.00  0.00     0.292 HD
ENDBRANCH   2  15
TORSDOF 5
ENDMDL
MODEL 2
REMARK VINA RESULT:      -6.2      2.011      6.404
REMARK  5 active torsions:
REMARK  status: ('A' for Active; 'I' for Inactive)
REMARK    1  A    between atoms: C_3  and  O_1 
REMARK    2  A    between atoms: C_4  and  O_14 
REMARK    3  A    between atoms: C_7  and  C_8 
REMARK    4  A    between atoms: C_9  and  C_10 
REMARK    5  A    between atoms: C_10  and  O_12 
ROOT
ATOM      1  C   LIG     1      11.042  49.681  27.077  0.00  0.00     0.162 A 
ATOM      2  C   LIG     1      10.102  48.746  26.642  0.00  0.00     0.158 A 
ATOM      3  C   LIG     1      10.032  48.404  25.292  0.00  0.00     0.050 A 
ATOM      4  C   LIG     1      10.902  48.997  24.376  0.00  0.00     0.012 A 
ATOM      5  C   LIG     1      11.841  49.931  24.811  0.00  0.00    -0.021 A 
ATOM      6  C   LIG     1      11.912  50.274  26.161  0.00  0.00     0.057 A 
ENDROOT
BRANCH   5   7
ATOM      7  C   LIG     1      12.748  50.548  23.857  0.00  0.00     0.015 C 
ATOM      8  C   LIG     1      12.894  51.878  23.663  0.00  0.00     0.092 C 
BRANCH   8   9
ATOM      9  C   LIG     1      13.860  52.380  22.666  0.00  0.00     0.330 C 
ATOM     10  O   LIG     1      14.855  51.799  22.264  0.00  0.00    -0.246 OA
BRANCH   9  11
ATOM     11  O   LIG     1      13.464  53.608  22.257  0.00  0.00    -0.478 OA
ATOM     12  H   LIG     1      13.181  53.609  21.318  0.00  0.00     0.295 HD
ENDBRANCH   9  11
ENDBRANCH   8   9
ENDBRANCH   5   7
BRANCH   1  13
ATOM     13  O   LIG     1      11.118  50.024  28.393  0.00  0.00    -0.491 OA
ATOM     14  C   LIG     1      12.175  50.904  28.772  0.00  0.00     0.277 C 
ENDBRANCH   1  13
BRANCH   2  15
ATOM     15  O   LIG     1       9.246  48.161  27.526  0.00  0.00    -0.503 OA
ATOM     16  H   LIG     1       9.699  48.053  28.380  0.00  0.00     0.292 HD
ENDBRANCH   2  15
TORSDOF 5
ENDMDL
MODEL 3
REMARK VINA RESULT:      -6.1      1.749      2.421
REMARK  5 active torsions:
REMARK  status: ('A' for Active; 'I' for Inactive)
REMARK    1  A    between atoms: C_3  and  O_1 
REMARK    2  A    between atoms: C_4  and  O_14 
REMARK    3  A    between atoms: C_7  and  C_8 
REMARK    4  A    between atoms: C_9  and  C_10 
REMARK    5  A    between atoms: C_10  and  O_12 
ROOT
ATOM      1  C   LIG     1      13.231  50.488  22.722  0.00  0.00     0.162 A 
ATOM      2  C   LIG     1      13.282  51.780  23.248  0.00  0.00     0.158 A 
ATOM      3  C   LIG     1      12.612  52.076  24.434  0.00  0.00     0.050 A 
ATOM      4  C   LIG     1      11.891  51.082  25.096  0.00  0.00     0.012 A 
ATOM      5  C   LIG     1      11.840  49.792  24.570  0.00  0.00    -0.021 A 
ATOM      6  C   LIG     1      12.509  49.494  23.384  0.00  0.00     0.057 A 
ENDROOT
BRANCH   5   7
ATOM      7  C   LIG     1      11.089  48.755  25.261  0.00  0.00     0.015 C 
ATOM      8  C   LIG     1      11.337  48.312  26.514  0.00  0.00     0.092 C 
BRANCH   8   9
ATOM      9  C   LIG     1      10.492  47.257  27.107  0.00  0.00     0.330 C 
ATOM     10  O   LIG     1       9.280  47.292  27.247  0.00  0.00    -0.246 OA
BRANCH   9  11
ATOM     11  O   LIG     1      11.284  46.225  27.479  0.00  0.00    -0.478 OA
ATOM     12  H   LIG     1      11.655  45.750  26.705  0.00  0.00     0.295 HD
ENDBRANCH   9  11
ENDBRANCH   8   9
ENDBRANCH   5   7
BRANCH   1  13
ATOM     13  O   LIG     1      13.880  50.187  21.562  0.00  0.00    -0.491 OA
ATOM     14  C   LIG     1      14.117  48.806  21.294  0.00  0.00     0.277 C 
ENDBRANCH   1  13
BRANCH   2  15
ATOM     15  O   LIG     1      13.982  52.759  22.610  0.00  0.00    -0.503 OA
ATOM     16  H   LIG     1      13.593  53.623  22.833  0.00  0.00     0.292 HD
ENDBRANCH   2  15
TORSDOF 5
ENDMDL
MODEL 4
REMARK VINA RESULT:      -5.9      1.569      2.240
REMARK  5 active torsions:
REMARK  status: ('A' for Active; 'I' for Inactive)
REMARK    1  A    between atoms: C_3  and  O_1 
REMARK    2  A    between atoms: C_4  and  O_14 
REMARK    3  A    between atoms: C_7  and  C_8 
REMARK    4  A    between atoms: C_9  and  C_10 
REMARK    5  A    between atoms: C_10  and  O_12 
ROOT
ATOM      1  C   LIG     1      14.786  50.699  22.721  0.00  0.00     0.162 A 
ATOM      2  C   LIG     1      14.837  49.929  21.558  0.00  0.00     0.158 A 
ATOM      3  C   LIG     1      13.938  48.879  21.377  0.00  0.00     0.050 A 
ATOM      4  C   LIG     1      12.987  48.597  22.359  0.00  0.00     0.012 A 
ATOM      5  C   LIG     1      12.936  49.367  23.520  0.00  0.00    -0.021 A 
ATOM      6  C   LIG     1      13.835  50.417  23.702  0.00  0.00     0.057 A 
ENDROOT
BRANCH   5   7
ATOM      7  C   LIG     1      11.944  49.074  24.542  0.00  0.00     0.015 C 
ATOM      8  C   LIG     1      11.306  49.995  25.300  0.00  0.00     0.092 C 
BRANCH   8   9
ATOM      9  C   LIG     1      10.309  49.568  26.301  0.00  0.00     0.330 C 
ATOM     10  O   LIG     1      10.480  49.488  27.507  0.00  0.00    -0.246 OA
BRANCH   9  11
ATOM     11  O   LIG     1       9.151  49.275  25.663  0.00  0.00    -0.478 OA
ATOM     12  H   LIG     1       8.402  49.176  26.289  0.00  0.00     0.295 HD
ENDBRANCH   9  11
ENDBRANCH   8   9
ENDBRANCH   5   7
BRANCH   1  13
ATOM     13  O   LIG     1      15.660  51.727  22.909  0.00  0.00    -0.491 OA
ATOM     14  C   LIG     1      16.734  51.504  23.821  0.00  0.00     0.277 C 
ENDBRANCH   1  13
BRANCH   2  15
ATOM     15  O   LIG     1      15.762  50.193  20.593  0.00  0.00    -0.503 OA
ATOM     16  H   LIG     1      15.842  49.417  20.011  0.00  0.00     0.292 HD
ENDBRANCH   2  15
TORSDOF 5
ENDMDL
MODEL 5
REMARK VINA RESULT:      -5.8      1.919      2.169
REMARK  5 active torsions:
REMARK  status: ('A' for Active; 'I' for Inactive)
REMARK    1  A    between atoms: C_3  and  O_1 
REMARK    2  A    between atoms: C_4  and  O_14 
REMARK    3  A    between atoms: C_7  and  C_8 
REMARK    4  A    between atoms: C_9  and  C_10 
REMARK    5  A    between atoms: C_10  and  O_12 
ROOT
ATOM      1  C   LIG     1      15.630  51.533  22.769  0.00  0.00     0.162 A 
ATOM      2  C   LIG     1      15.014  52.222  21.724  0.00  0.00     0.158 A 
ATOM      3  C   LIG     1      13.723  52.722  21.885  0.00  0.00     0.050 A 
ATOM      4  C   LIG     1      13.046  52.533  23.090  0.00  0.00     0.012 A 
ATOM      5  C   LIG     1      13.662  51.844  24.134  0.00  0.00    -0.021 A 
ATOM      6  C   LIG     1      14.954  51.344  23.974  0.00  0.00     0.057 A 
ENDROOT
BRANCH   5   7
ATOM      7  C   LIG     1      12.957  51.648  25.391  0.00  0.00     0.015 C 
ATOM      8  C   LIG     1      12.669  50.450  25.947  0.00  0.00     0.092 C 
BRANCH   8   9
ATOM      9  C   LIG     1      11.954  50.385  27.237  0.00  0.00     0.330 C 
ATOM     10  O   LIG     1      10.981  49.695  27.493  0.00  0.00    -0.246 OA
BRANCH   9  11
ATOM     11  O   LIG     1      12.558  51.225  28.111  0.00  0.00    -0.478 OA
ATOM     12  H   LIG     1      11.932  51.887  28.474  0.00  0.00     0.295 HD
ENDBRANCH   9  11
ENDBRANCH   8   9
ENDBRANCH   5   7
BRANCH   1  13
ATOM     13  O   LIG     1      16.892  51.039  22.623  0.00  0.00    -0.491 OA
ATOM     14  C   LIG     1      17.011  49.699  22.150  0.00  0.00     0.277 C 
ENDBRANCH   1  13
BRANCH   2  15
ATOM     15  O   LIG     1      15.664  52.412  20.542  0.00  0.00    -0.503 OA
ATOM     16  H   LIG     1      16.163  53.247  20.586  0.00  0.00     0.292 HD
ENDBRANCH   2  15
TORSDOF 5
ENDMDL
MODEL 6
REMARK VINA RESULT:      -5.5      2.601      6.742
REMARK  5 active torsions:
REMARK  status: ('A' for Active; 'I' for Inactive)
REMARK    1  A    between atoms: C_3  and  O_1 
REMARK    2  A    between atoms: C_4  and  O_14 
REMARK    3  A    between atoms: C_7  and  C_8 
REMARK    4  A    between atoms: C_9  and  C_10 
REMARK    5  A    between atoms: C_10  and  O_12 
ROOT
ATOM      1  C   LIG     1      10.333  49.108  27.477  0.00  0.00     0.162 A 
ATOM      2  C   LIG     1      10.950  49.655  28.602  0.00  0.00     0.158 A 
ATOM      3  C   LIG     1      11.998  50.562  28.450  0.00  0.00     0.050 A 
ATOM      4  C   LIG     1      12.430  50.922  27.173  0.00  0.00     0.012 A 
ATOM      5  C   LIG     1      11.814  50.375  26.049  0.00  0.00    -0.021 A 
ATOM      6  C   LIG     1      10.765  49.468  26.200  0.00  0.00     0.057 A 
ENDROOT
BRANCH   5   7
ATOM      7  C   LIG     1      12.263  50.751  24.718  0.00  0.00     0.015 C 
ATOM      8  C   LIG     1      12.773  51.955  24.376  0.00  0.00     0.092 C 
BRANCH   8   9
ATOM      9  C   LIG     1      13.204  52.209  22.987  0.00  0.00     0.330 C 
ATOM     10  O   LIG     1      13.397  53.300  22.476  0.00  0.00    -0.246 OA
BRANCH   9  11
ATOM     11  O   LIG     1      13.355  51.022  22.355  0.00  0.00    -0.478 OA
ATOM     12  H   LIG     1      12.832  50.977  21.527  0.00  0.00     0.295 HD
ENDBRANCH   9  11
ENDBRANCH   8   9
ENDBRANCH   5   7
BRANCH   1  13
ATOM     13  O   LIG     1       9.308  48.220  27.613  0.00  0.00    -0.491 OA
ATOM     14  C   LIG     1       9.659  46.852  27.811  0.00  0.00     0.277 C 
ENDBRANCH   1  13
BRANCH   2  15
ATOM     15  O   LIG     1      10.538  49.311  29.854  0.00  0.00    -0.503 OA
ATOM     16  H   LIG     1      10.855  49.979  30.487  0.00  0.00     0.292 HD
ENDBRANCH   2  15
TORSDOF 5
ENDMDL
MODEL 7
REMARK VINA RESULT:      -5.4      3.650      5.514
REMARK  5 active torsions:
REMARK  status: ('A' for Active; 'I' for Inactive)
REMARK    1  A    between atoms: C_3  and  O_1 
REMARK    2  A    between atoms: C_4  and  O_14 
REMARK    3  A    between atoms: C_7  and  C_8 
REMARK    4  A    between atoms: C_9  and  C_10 
REMARK    5  A    between atoms: C_10  and  O_12 
ROOT
ATOM      1  C   LIG     1      12.384  50.634  26.428  0.00  0.00     0.162 A 
ATOM      2  C   LIG     1      12.706  51.305  27.608  0.00  0.00     0.158 A 
ATOM      3  C   LIG     1      12.096  50.937  28.807  0.00  0.00     0.050 A 
ATOM      4  C   LIG     1      11.164  49.899  28.827  0.00  0.00     0.012 A 
ATOM      5  C   LIG     1      10.842  49.229  27.647  0.00  0.00    -0.021 A 
ATOM      6  C   LIG     1      11.451  49.596  26.447  0.00  0.00     0.057 A 
ENDROOT
BRANCH   5   7
ATOM      7  C   LIG     1       9.871  48.147  27.667  0.00  0.00     0.015 C 
ATOM      8  C   LIG     1       9.261  47.664  28.772  0.00  0.00     0.092 C 
BRANCH   8   9
ATOM      9  C   LIG     1       8.283  46.564  28.658  0.00  0.00     0.330 C 
ATOM     10  O   LIG     1       8.537  45.377  28.537  0.00  0.00    -0.246 OA
BRANCH   9  11
ATOM     11  O   LIG     1       7.035  47.086  28.709  0.00  0.00    -0.478 OA
ATOM     12  H   LIG     1       7.045  48.066  28.671  0.00  0.00     0.295 HD
ENDBRANCH   9  11
ENDBRANCH   8   9
ENDBRANCH   5   7
BRANCH   1  13
ATOM     13  O   LIG     1      12.972  50.986  25.250  0.00  0.00    -0.491 OA
ATOM     14  C   LIG     1      12.209  51.803  24.364  0.00  0.00     0.277 C 
ENDBRANCH   1  13
BRANCH   2  15
ATOM     15  O   LIG     1      13.614  52.320  27.602  0.00  0.00    -0.503 OA
ATOM     16  H   LIG     1      13.699  52.674  28.504  0.00  0.00     0.292 HD
ENDBRANCH   2  15
TORSDOF 5
ENDMDL
MODEL 8
REMARK VINA RESULT:      -5.3      3.139      5.235
REMARK  5 active torsions:
REMARK  status: ('A' for Active; 'I' for Inactive)
REMARK    1  A    between atoms: C_3  and  O_1 
REMARK    2  A    between atoms: C_4  and  O_14 
REMARK    3  A    between atoms: C_7  and  C_8 
REMARK    4  A    between atoms: C_9  and  C_10 
REMARK    5  A    between atoms: C_10  and  O_12 
ROOT
ATOM      1  C   LIG     1      18.893  49.086  23.304  0.00  0.00     0.162 A 
ATOM      2  C   LIG     1      19.171  48.627  22.015  0.00  0.00     0.158 A 
ATOM      3  C   LIG     1      18.222  48.773  21.004  0.00  0.00     0.050 A 
ATOM      4  C   LIG     1      16.995  49.377  21.280  0.00  0.00     0.012 A 
ATOM      5  C   LIG     1      16.717  49.835  22.567  0.00  0.00    -0.021 A 
ATOM      6  C   LIG     1      17.665  49.690  23.579  0.00  0.00     0.057 A 
ENDROOT
BRANCH   5   7
ATOM      7  C   LIG     1      15.439  50.465  22.854  0.00  0.00     0.015 C 
ATOM      8  C   LIG     1      15.047  51.680  22.407  0.00  0.00     0.092 C 
BRANCH   8   9
ATOM      9  C   LIG     1      13.715  52.206  22.762  0.00  0.00     0.330 C 
ATOM     10  O   LIG     1      12.867  51.639  23.432  0.00  0.00    -0.246 OA
BRANCH   9  11
ATOM     11  O   LIG     1      13.576  53.439  22.221  0.00  0.00    -0.478 OA
ATOM     12  H   LIG     1      12.707  53.839  22.438  0.00  0.00     0.295 HD
ENDBRANCH   9  11
ENDBRANCH   8   9
ENDBRANCH   5   7
BRANCH   1  13
ATOM     13  O   LIG     1      19.811  48.948  24.301  0.00  0.00    -0.491 OA
ATOM     14  C   LIG     1      19.715  49.853  25.399  0.00  0.00     0.277 C 
ENDBRANCH   1  13
BRANCH   2  15
ATOM     15  O   LIG     1      20.365  48.035  21.734  0.00  0.00    -0.503 OA
ATOM     16  H   LIG     1      20.917  48.040  22.536  0.00  0.00     0.292 HD
ENDBRANCH   2  15
TORSDOF 5
ENDMDL
