MODEL 1
REMARK VINA RESULT:      -8.9      0.000      0.000
REMARK  6 active torsions:
REMARK  status: ('A' for Active; 'I' for Inactive)
REMARK    1  A    between atoms: O_2  and  C_9 
REMARK    2  A    between atoms: O_4  and  C_14 
REMARK    3  A    between atoms: O_5  and  C_19 
REMARK    4  A    between atoms: O_6  and  C_20 
REMARK    5  A    between atoms: O_7  and  C_22 
REMARK    6  A    between atoms: C_8  and  C_10 
ROOT
HETATM    1  O   UNK     0      32.957   7.111  -4.918  0.00  0.00    -0.337 OA
HETATM    2  O   UNK     0      32.052   5.508  -8.587  0.00  0.00    -0.289 OA
HETATM    3  C   UNK     0      31.845   7.593  -5.689  0.00  0.00     0.198 C 
HETATM    4  C   UNK     0      31.231   6.477  -6.534  0.00  0.00     0.227 C 
HETATM    5  C   UNK     0      32.294   5.928  -7.461  0.00  0.00     0.196 C 
HETATM    6  C   UNK     0      33.662   5.890  -6.909  0.00  0.00     0.079 A 
HETATM    7  C   UNK     0      33.911   6.469  -5.663  0.00  0.00     0.089 A 
HETATM    8  C   UNK     0      34.691   5.256  -7.611  0.00  0.00     0.085 A 
HETATM    9  C   UNK     0      35.186   6.383  -5.102  0.00  0.00     0.074 A 
HETATM   10  C   UNK     0      35.967   5.190  -7.054  0.00  0.00     0.074 A 
HETATM   11  C   UNK     0      36.214   5.748  -5.800  0.00  0.00     0.071 A 
ENDROOT
BRANCH   3  12
HETATM   12  C   UNK     0      30.842   8.177  -4.712  0.00  0.00    -0.023 A 
HETATM   13  C   UNK     0      30.437   9.503  -4.844  0.00  0.00     0.049 A 
HETATM   14  C   UNK     0      29.514  10.041  -3.946  0.00  0.00     0.099 A 
HETATM   15  C   UNK     0      29.000   9.250  -2.918  0.00  0.00     0.098 A 
HETATM   16  C   UNK     0      29.407   7.922  -2.789  0.00  0.00     0.040 A 
HETATM   17  C   UNK     0      30.329   7.385  -3.686  0.00  0.00     0.013 A 
BRANCH  14  18
HETATM   18  O   UNK     0      29.123  11.338  -4.083  0.00  0.00    -0.358 OA
HETATM   19  H   UNK     0      29.466  11.842  -3.324  0.00  0.00     0.217 HD
ENDBRANCH  14  18
BRANCH  15  20
HETATM   20  O   UNK     0      28.097   9.763  -2.035  0.00  0.00    -0.358 OA
HETATM   21  H   UNK     0      27.923  10.693  -2.265  0.00  0.00     0.217 HD
ENDBRANCH  15  20
ENDBRANCH   3  12
BRANCH   4  22
HETATM   22  O   UNK     0      30.175   6.990  -7.329  0.00  0.00    -0.385 OA
HETATM   23  H   UNK     0      30.061   6.392  -8.087  0.00  0.00     0.210 HD
ENDBRANCH   4  22
BRANCH   8  24
HETATM   24  O   UNK     0      34.503   4.678  -8.831  0.00  0.00    -0.360 OA
HETATM   25  H   UNK     0      33.809   4.003  -8.787  0.00  0.00     0.217 HD
ENDBRANCH   8  24
BRANCH  11  26
HETATM   26  O   UNK     0      37.460   5.674  -5.256  0.00  0.00    -0.361 OA
HETATM   27  H   UNK     0      37.934   4.922  -5.652  0.00  0.00     0.217 HD
ENDBRANCH  11  26
TORSDOF 6
ENDMDL
MODEL 2
REMARK VINA RESULT:      -8.3      3.191      7.697
REMARK  6 active torsions:
REMARK  status: ('A' for Active; 'I' for Inactive)
REMARK    1  A    between atoms: O_2  and  C_9 
REMARK    2  A    between atoms: O_4  and  C_14 
REMARK    3  A    between atoms: O_5  and  C_19 
REMARK    4  A    between atoms: O_6  and  C_20 
REMARK    5  A    between atoms: O_7  and  C_22 
REMARK    6  A    between atoms: C_8  and  C_10 
ROOT
HETATM    1  O   UNK     0      36.648   6.187  -5.361  0.00  0.00    -0.337 OA
HETATM    2  O   UNK     0      33.471   6.633  -2.800  0.00  0.00    -0.289 OA
HETATM    3  C   UNK     0      36.773   6.934  -4.140  0.00  0.00     0.198 C 
HETATM    4  C   UNK     0      35.858   6.374  -3.051  0.00  0.00     0.227 C 
HETATM    5  C   UNK     0      34.428   6.432  -3.540  0.00  0.00     0.196 C 
HETATM    6  C   UNK     0      34.238   6.192  -4.984  0.00  0.00     0.079 A 
HETATM    7  C   UNK     0      35.359   6.067  -5.807  0.00  0.00     0.089 A 
HETATM    8  C   UNK     0      32.953   6.061  -5.517  0.00  0.00     0.085 A 
HETATM    9  C   UNK     0      35.194   5.776  -7.163  0.00  0.00     0.074 A 
HETATM   10  C   UNK     0      32.793   5.789  -6.875  0.00  0.00     0.074 A 
HETATM   11  C   UNK     0      33.911   5.642  -7.696  0.00  0.00     0.071 A 
ENDROOT
BRANCH   3  12
HETATM   12  C   UNK     0      38.233   6.883  -3.730  0.00  0.00    -0.023 A 
HETATM   13  C   UNK     0      38.890   5.657  -3.657  0.00  0.00     0.049 A 
HETATM   14  C   UNK     0      40.233   5.609  -3.280  0.00  0.00     0.099 A 
HETATM   15  C   UNK     0      40.914   6.788  -2.976  0.00  0.00     0.098 A 
HETATM   16  C   UNK     0      40.253   8.015  -3.050  0.00  0.00     0.040 A 
HETATM   17  C   UNK     0      38.911   8.062  -3.427  0.00  0.00     0.013 A 
BRANCH  14  18
HETATM   18  O   UNK     0      40.868   4.407  -3.211  0.00  0.00    -0.358 OA
HETATM   19  H   UNK     0      40.196   3.712  -3.100  0.00  0.00     0.217 HD
ENDBRANCH  14  18
BRANCH  15  20
HETATM   20  O   UNK     0      42.225   6.755  -2.607  0.00  0.00    -0.358 OA
HETATM   21  H   UNK     0      42.769   6.553  -3.389  0.00  0.00     0.217 HD
ENDBRANCH  15  20
ENDBRANCH   3  12
BRANCH   4  22
HETATM   22  O   UNK     0      35.955   7.162  -1.877  0.00  0.00    -0.385 OA
HETATM   23  H   UNK     0      35.472   6.700  -1.172  0.00  0.00     0.210 HD
ENDBRANCH   4  22
BRANCH   8  24
HETATM   24  O   UNK     0      31.826   6.177  -4.759  0.00  0.00    -0.360 OA
HETATM   25  H   UNK     0      31.432   7.056  -4.864  0.00  0.00     0.217 HD
ENDBRANCH   8  24
BRANCH  11  26
HETATM   26  O   UNK     0      33.752   5.368  -9.020  0.00  0.00    -0.361 OA
HETATM   27  H   UNK     0      33.518   4.429  -9.123  0.00  0.00     0.217 HD
ENDBRANCH  11  26
TORSDOF 6
ENDMDL
MODEL 3
REMARK VINA RESULT:      -8.1      3.425      6.006
REMARK  6 active torsions:
REMARK  status: ('A' for Active; 'I' for Inactive)
REMARK    1  A    between atoms: O_2  and  C_9 
REMARK    2  A    between atoms: O_4  and  C_14 
REMARK    3  A    between atoms: O_5  and  C_19 
REMARK    4  A    between atoms: O_6  and  C_20 
REMARK    5  A    between atoms: O_7  and  C_22 
REMARK    6  A    between atoms: C_8  and  C_10 
ROOT
HETATM    1  O   UNK     0      36.626   6.083  -5.058  0.00  0.00    -0.337 OA
HETATM    2  O   UNK     0      36.973  10.016  -3.938  0.00  0.00    -0.289 OA
HETATM    3  C   UNK     0      35.468   6.918  -4.902  0.00  0.00     0.198 C 
HETATM    4  C   UNK     0      35.783   8.374  -5.248  0.00  0.00     0.227 C 
HETATM    5  C   UNK     0      36.891   8.861  -4.339  0.00  0.00     0.196 C 
HETATM    6  C   UNK     0      37.911   7.855  -3.983  0.00  0.00     0.079 A 
HETATM    7  C   UNK     0      37.727   6.528  -4.377  0.00  0.00     0.089 A 
HETATM    8  C   UNK     0      39.062   8.232  -3.285  0.00  0.00     0.085 A 
HETATM    9  C   UNK     0      38.715   5.581  -4.102  0.00  0.00     0.074 A 
HETATM   10  C   UNK     0      40.036   7.277  -2.996  0.00  0.00     0.074 A 
HETATM   11  C   UNK     0      39.867   5.956  -3.408  0.00  0.00     0.071 A 
ENDROOT
BRANCH   3  12
HETATM   12  C   UNK     0      34.381   6.350  -5.794  0.00  0.00    -0.023 A 
HETATM   13  C   UNK     0      34.577   6.286  -7.171  0.00  0.00     0.049 A 
HETATM   14  C   UNK     0      33.577   5.764  -7.993  0.00  0.00     0.099 A 
HETATM   15  C   UNK     0      32.383   5.309  -7.434  0.00  0.00     0.098 A 
HETATM   16  C   UNK     0      32.189   5.374  -6.054  0.00  0.00     0.040 A 
HETATM   17  C   UNK     0      33.188   5.896  -5.234  0.00  0.00     0.013 A 
BRANCH  14  18
HETATM   18  O   UNK     0      33.778   5.704  -9.338  0.00  0.00    -0.358 OA
HETATM   19  H   UNK     0      32.931   5.488  -9.765  0.00  0.00     0.217 HD
ENDBRANCH  14  18
BRANCH  15  20
HETATM   20  O   UNK     0      31.399   4.796  -8.225  0.00  0.00    -0.358 OA
HETATM   21  H   UNK     0      31.001   5.517  -8.743  0.00  0.00     0.217 HD
ENDBRANCH  15  20
ENDBRANCH   3  12
BRANCH   4  22
HETATM   22  O   UNK     0      34.643   9.187  -5.029  0.00  0.00    -0.385 OA
HETATM   23  H   UNK     0      33.857   8.644  -5.209  0.00  0.00     0.210 HD
ENDBRANCH   4  22
BRANCH   8  24
HETATM   24  O   UNK     0      39.289   9.511  -2.874  0.00  0.00    -0.360 OA
HETATM   25  H   UNK     0      39.139  10.135  -3.600  0.00  0.00     0.217 HD
ENDBRANCH   8  24
BRANCH  11  26
HETATM   26  O   UNK     0      40.824   5.029  -3.131  0.00  0.00    -0.361 OA
HETATM   27  H   UNK     0      40.437   4.330  -2.576  0.00  0.00     0.217 HD
ENDBRANCH  11  26
TORSDOF 6
ENDMDL
MODEL 4
REMARK VINA RESULT:      -7.9      2.438      6.390
REMARK  6 active torsions:
REMARK  status: ('A' for Active; 'I' for Inactive)
REMARK    1  A    between atoms: O_2  and  C_9 
REMARK    2  A    between atoms: O_4  and  C_14 
REMARK    3  A    between atoms: O_5  and  C_19 
REMARK    4  A    between atoms: O_6  and  C_20 
REMARK    5  A    between atoms: O_7  and  C_22 
REMARK    6  A    between atoms: C_8  and  C_10 
ROOT
HETATM    1  O   UNK     0      34.577   7.530  -5.257  0.00  0.00    -0.337 OA
HETATM    2  O   UNK     0      34.514   4.544  -8.071  0.00  0.00    -0.289 OA
HETATM    3  C   UNK     0      35.608   6.532  -5.307  0.00  0.00     0.198 C 
HETATM    4  C   UNK     0      35.846   6.054  -6.740  0.00  0.00     0.227 C 
HETATM    5  C   UNK     0      34.555   5.481  -7.283  0.00  0.00     0.196 C 
HETATM    6  C   UNK     0      33.321   6.152  -6.829  0.00  0.00     0.079 A 
HETATM    7  C   UNK     0      33.405   7.149  -5.855  0.00  0.00     0.089 A 
HETATM    8  C   UNK     0      32.086   5.815  -7.390  0.00  0.00     0.085 A 
HETATM    9  C   UNK     0      32.254   7.834  -5.465  0.00  0.00     0.074 A 
HETATM   10  C   UNK     0      30.936   6.490  -6.982  0.00  0.00     0.074 A 
HETATM   11  C   UNK     0      31.020   7.502  -6.025  0.00  0.00     0.071 A 
ENDROOT
BRANCH   3  12
HETATM   12  C   UNK     0      36.857   7.145  -4.704  0.00  0.00    -0.023 A 
HETATM   13  C   UNK     0      37.093   8.512  -4.837  0.00  0.00     0.049 A 
HETATM   14  C   UNK     0      38.242   9.077  -4.282  0.00  0.00     0.099 A 
HETATM   15  C   UNK     0      39.152   8.273  -3.596  0.00  0.00     0.098 A 
HETATM   16  C   UNK     0      38.913   6.905  -3.463  0.00  0.00     0.040 A 
HETATM   17  C   UNK     0      37.765   6.341  -4.018  0.00  0.00     0.013 A 
BRANCH  14  18
HETATM   18  O   UNK     0      38.464  10.414  -4.418  0.00  0.00    -0.358 OA
HETATM   19  H   UNK     0      39.165  10.542  -5.080  0.00  0.00     0.217 HD
ENDBRANCH  14  18
BRANCH  15  20
HETATM   20  O   UNK     0      40.277   8.813  -3.048  0.00  0.00    -0.358 OA
HETATM   21  H   UNK     0      40.100   9.740  -2.813  0.00  0.00     0.217 HD
ENDBRANCH  15  20
ENDBRANCH   3  12
BRANCH   4  22
HETATM   22  O   UNK     0      36.825   5.028  -6.757  0.00  0.00    -0.385 OA
HETATM   23  H   UNK     0      36.412   4.235  -7.140  0.00  0.00     0.210 HD
ENDBRANCH   4  22
BRANCH   8  24
HETATM   24  O   UNK     0      31.947   4.849  -8.341  0.00  0.00    -0.360 OA
HETATM   25  H   UNK     0      32.760   4.761  -8.861  0.00  0.00     0.217 HD
ENDBRANCH   8  24
BRANCH  11  26
HETATM   26  O   UNK     0      29.896   8.164  -5.636  0.00  0.00    -0.361 OA
HETATM   27  H   UNK     0      29.473   7.671  -4.912  0.00  0.00     0.217 HD
ENDBRANCH  11  26
TORSDOF 6
ENDMDL
MODEL 5
REMARK VINA RESULT:      -7.9      1.358      2.933
REMARK  6 active torsions:
REMARK  status: ('A' for Active; 'I' for Inactive)
REMARK    1  A    between atoms: O_2  and  C_9 
REMARK    2  A    between atoms: O_4  and  C_14 
REMARK    3  A    between atoms: O_5  and  C_19 
REMARK    4  A    between atoms: O_6  and  C_20 
REMARK    5  A    between atoms: O_7  and  C_22 
REMARK    6  A    between atoms: C_8  and  C_10 
ROOT
HETATM    1  O   UNK     0      31.782   7.449  -5.657  0.00  0.00    -0.337 OA
HETATM    2  O   UNK     0      35.010   6.510  -3.303  0.00  0.00    -0.289 OA
HETATM    3  C   UNK     0      31.652   7.312  -4.234  0.00  0.00     0.198 C 
HETATM    4  C   UNK     0      32.937   7.727  -3.516  0.00  0.00     0.227 C 
HETATM    5  C   UNK     0      34.072   6.858  -4.011  0.00  0.00     0.196 C 
HETATM    6  C   UNK     0      34.007   6.474  -5.435  0.00  0.00     0.079 A 
HETATM    7  C   UNK     0      32.872   6.806  -6.179  0.00  0.00     0.089 A 
HETATM    8  C   UNK     0      35.079   5.812  -6.039  0.00  0.00     0.085 A 
HETATM    9  C   UNK     0      32.826   6.505  -7.541  0.00  0.00     0.074 A 
HETATM   10  C   UNK     0      35.018   5.496  -7.396  0.00  0.00     0.074 A 
HETATM   11  C   UNK     0      33.897   5.847  -8.148  0.00  0.00     0.071 A 
ENDROOT
BRANCH   3  12
HETATM   12  C   UNK     0      30.469   8.161  -3.807  0.00  0.00    -0.023 A 
HETATM   13  C   UNK     0      30.404   9.500  -4.186  0.00  0.00     0.049 A 
HETATM   14  C   UNK     0      29.317  10.282  -3.793  0.00  0.00     0.099 A 
HETATM   15  C   UNK     0      28.299   9.722  -3.022  0.00  0.00     0.098 A 
HETATM   16  C   UNK     0      28.366   8.381  -2.644  0.00  0.00     0.040 A 
HETATM   17  C   UNK     0      29.453   7.600  -3.036  0.00  0.00     0.013 A 
BRANCH  14  18
HETATM   18  O   UNK     0      29.262  11.589  -4.169  0.00  0.00    -0.358 OA
HETATM   19  H   UNK     0      28.487  11.710  -4.745  0.00  0.00     0.217 HD
ENDBRANCH  14  18
BRANCH  15  20
HETATM   20  O   UNK     0      27.231  10.475  -2.633  0.00  0.00    -0.358 OA
HETATM   21  H   UNK     0      26.413   9.979  -2.811  0.00  0.00     0.217 HD
ENDBRANCH  15  20
ENDBRANCH   3  12
BRANCH   4  22
HETATM   22  O   UNK     0      32.804   7.526  -2.119  0.00  0.00    -0.385 OA
HETATM   23  H   UNK     0      32.516   8.368  -1.728  0.00  0.00     0.210 HD
ENDBRANCH   4  22
BRANCH   8  24
HETATM   24  O   UNK     0      36.206   5.461  -5.358  0.00  0.00    -0.360 OA
HETATM   25  H   UNK     0      36.906   5.191  -5.971  0.00  0.00     0.217 HD
ENDBRANCH   8  24
BRANCH  11  26
HETATM   26  O   UNK     0      33.846   5.544  -9.474  0.00  0.00    -0.361 OA
HETATM   27  H   UNK     0      33.948   4.583  -9.583  0.00  0.00     0.217 HD
ENDBRANCH  11  26
TORSDOF 6
ENDMDL
MODEL 6
REMARK VINA RESULT:      -7.8      1.566      7.108
REMARK  6 active torsions:
REMARK  status: ('A' for Active; 'I' for Inactive)
REMARK    1  A    between atoms: O_2  and  C_9 
REMARK    2  A    between atoms: O_4  and  C_14 
REMARK    3  A    between atoms: O_5  and  C_19 
REMARK    4  A    between atoms: O_6  and  C_20 
REMARK    5  A    between atoms: O_7  and  C_22 
REMARK    6  A    between atoms: C_8  and  C_10 
ROOT
HETATM    1  O   UNK     0      31.931   7.590  -4.884  0.00  0.00    -0.337 OA
HETATM    2  O   UNK     0      32.382  11.669  -4.848  0.00  0.00    -0.289 OA
HETATM    3  C   UNK     0      32.833   8.248  -5.788  0.00  0.00     0.198 C 
HETATM    4  C   UNK     0      33.421   9.513  -5.161  0.00  0.00     0.227 C 
HETATM    5  C   UNK     0      32.288  10.449  -4.799  0.00  0.00     0.196 C 
HETATM    6  C   UNK     0      31.047   9.797  -4.337  0.00  0.00     0.079 A 
HETATM    7  C   UNK     0      30.947   8.405  -4.391  0.00  0.00     0.089 A 
HETATM    8  C   UNK     0      29.995  10.561  -3.824  0.00  0.00     0.085 A 
HETATM    9  C   UNK     0      29.804   7.774  -3.897  0.00  0.00     0.074 A 
HETATM   10  C   UNK     0      28.848   9.926  -3.350  0.00  0.00     0.074 A 
HETATM   11  C   UNK     0      28.754   8.534  -3.381  0.00  0.00     0.071 A 
ENDROOT
BRANCH   3  12
HETATM   12  C   UNK     0      33.912   7.248  -6.154  0.00  0.00    -0.023 A 
HETATM   13  C   UNK     0      33.765   6.455  -7.290  0.00  0.00     0.049 A 
HETATM   14  C   UNK     0      34.758   5.533  -7.628  0.00  0.00     0.099 A 
HETATM   15  C   UNK     0      35.893   5.407  -6.828  0.00  0.00     0.098 A 
HETATM   16  C   UNK     0      36.038   6.203  -5.691  0.00  0.00     0.040 A 
HETATM   17  C   UNK     0      35.046   7.123  -5.354  0.00  0.00     0.013 A 
BRANCH  14  18
HETATM   18  O   UNK     0      34.606   4.763  -8.741  0.00  0.00    -0.358 OA
HETATM   19  H   UNK     0      35.010   5.229  -9.493  0.00  0.00     0.217 HD
ENDBRANCH  14  18
BRANCH  15  20
HETATM   20  O   UNK     0      36.870   4.512  -7.148  0.00  0.00    -0.358 OA
HETATM   21  H   UNK     0      36.729   3.695  -6.639  0.00  0.00     0.217 HD
ENDBRANCH  15  20
ENDBRANCH   3  12
BRANCH   4  22
HETATM   22  O   UNK     0      34.260  10.176  -6.092  0.00  0.00    -0.385 OA
HETATM   23  H   UNK     0      34.893  10.712  -5.586  0.00  0.00     0.210 HD
ENDBRANCH   4  22
BRANCH   8  24
HETATM   24  O   UNK     0      30.040  11.921  -3.751  0.00  0.00    -0.360 OA
HETATM   25  H   UNK     0      30.474  12.291  -4.535  0.00  0.00     0.217 HD
ENDBRANCH   8  24
BRANCH  11  26
HETATM   26  O   UNK     0      27.636   7.918  -2.910  0.00  0.00    -0.361 OA
HETATM   27  H   UNK     0      26.859   8.273  -3.376  0.00  0.00     0.217 HD
ENDBRANCH  11  26
TORSDOF 6
ENDMDL
MODEL 7
REMARK VINA RESULT:      -7.7      3.497      6.389
REMARK  6 active torsions:
REMARK  status: ('A' for Active; 'I' for Inactive)
REMARK    1  A    between atoms: O_2  and  C_9 
REMARK    2  A    between atoms: O_4  and  C_14 
REMARK    3  A    between atoms: O_5  and  C_19 
REMARK    4  A    between atoms: O_6  and  C_20 
REMARK    5  A    between atoms: O_7  and  C_22 
REMARK    6  A    between atoms: C_8  and  C_10 
ROOT
HETATM    1  O   UNK     0      35.153   6.209  -3.307  0.00  0.00    -0.337 OA
HETATM    2  O   UNK     0      32.087   7.339  -0.824  0.00  0.00    -0.289 OA
HETATM    3  C   UNK     0      33.781   5.982  -3.666  0.00  0.00     0.198 C 
HETATM    4  C   UNK     0      32.871   7.068  -3.091  0.00  0.00     0.227 C 
HETATM    5  C   UNK     0      33.010   7.071  -1.584  0.00  0.00     0.196 C 
HETATM    6  C   UNK     0      34.358   6.763  -1.069  0.00  0.00     0.079 A 
HETATM    7  C   UNK     0      35.355   6.366  -1.962  0.00  0.00     0.089 A 
HETATM    8  C   UNK     0      34.642   6.896   0.293  0.00  0.00     0.085 A 
HETATM    9  C   UNK     0      36.651   6.134  -1.495  0.00  0.00     0.074 A 
HETATM   10  C   UNK     0      35.933   6.645   0.757  0.00  0.00     0.074 A 
HETATM   11  C   UNK     0      36.937   6.270  -0.136  0.00  0.00     0.071 A 
ENDROOT
BRANCH   3  12
HETATM   12  C   UNK     0      33.715   5.936  -5.181  0.00  0.00    -0.023 A 
HETATM   13  C   UNK     0      32.699   5.220  -5.810  0.00  0.00     0.049 A 
HETATM   14  C   UNK     0      32.637   5.177  -7.203  0.00  0.00     0.099 A 
HETATM   15  C   UNK     0      33.593   5.850  -7.964  0.00  0.00     0.098 A 
HETATM   16  C   UNK     0      34.610   6.568  -7.332  0.00  0.00     0.040 A 
HETATM   17  C   UNK     0      34.671   6.610  -5.939  0.00  0.00     0.013 A 
BRANCH  14  18
HETATM   18  O   UNK     0      31.640   4.475  -7.809  0.00  0.00    -0.358 OA
HETATM   19  H   UNK     0      31.891   3.535  -7.820  0.00  0.00     0.217 HD
ENDBRANCH  14  18
BRANCH  15  20
HETATM   20  O   UNK     0      33.543   5.817  -9.325  0.00  0.00    -0.358 OA
HETATM   21  H   UNK     0      33.541   4.890  -9.619  0.00  0.00     0.217 HD
ENDBRANCH  15  20
ENDBRANCH   3  12
BRANCH   4  22
HETATM   22  O   UNK     0      31.518   6.790  -3.409  0.00  0.00    -0.385 OA
HETATM   23  H   UNK     0      31.503   5.980  -3.946  0.00  0.00     0.210 HD
ENDBRANCH   4  22
BRANCH   8  24
HETATM   24  O   UNK     0      33.706   7.277   1.207  0.00  0.00    -0.360 OA
HETATM   25  H   UNK     0      32.975   6.642   1.233  0.00  0.00     0.217 HD
ENDBRANCH   8  24
BRANCH  11  26
HETATM   26  O   UNK     0      38.198   6.033   0.319  0.00  0.00    -0.361 OA
HETATM   27  H   UNK     0      38.391   6.647   1.049  0.00  0.00     0.217 HD
ENDBRANCH  11  26
TORSDOF 6
ENDMDL
MODEL 8
REMARK VINA RESULT:      -7.4     19.587     21.381
REMARK  6 active torsions:
REMARK  status: ('A' for Active; 'I' for Inactive)
REMARK    1  A    between atoms: O_2  and  C_9 
REMARK    2  A    between atoms: O_4  and  C_14 
REMARK    3  A    between atoms: O_5  and  C_19 
REMARK    4  A    between atoms: O_6  and  C_20 
REMARK    5  A    between atoms: O_7  and  C_22 
REMARK    6  A    between atoms: C_8  and  C_10 
ROOT
HETATM    1  O   UNK     0      35.920  -1.840  12.447  0.00  0.00    -0.337 OA
HETATM    2  O   UNK     0      40.009  -1.499  12.350  0.00  0.00    -0.289 OA
HETATM    3  C   UNK     0      36.693  -2.438  11.394  0.00  0.00     0.198 C 
HETATM    4  C   UNK     0      38.073  -2.867  11.895  0.00  0.00     0.227 C 
HETATM    5  C   UNK     0      38.796  -1.650  12.431  0.00  0.00     0.196 C 
HETATM    6  C   UNK     0      37.945  -0.650  13.106  0.00  0.00     0.079 A 
HETATM    7  C   UNK     0      36.558  -0.812  13.088  0.00  0.00     0.089 A 
HETATM    8  C   UNK     0      38.522   0.430  13.779  0.00  0.00     0.085 A 
HETATM    9  C   UNK     0      35.747   0.092  13.777  0.00  0.00     0.074 A 
HETATM   10  C   UNK     0      37.705   1.340  14.449  0.00  0.00     0.074 A 
HETATM   11  C   UNK     0      36.321   1.170  14.453  0.00  0.00     0.071 A 
ENDROOT
BRANCH   3  12
HETATM   12  C   UNK     0      35.896  -3.614  10.864  0.00  0.00    -0.023 A 
HETATM   13  C   UNK     0      35.934  -4.836  11.532  0.00  0.00     0.049 A 
HETATM   14  C   UNK     0      35.201  -5.919  11.045  0.00  0.00     0.099 A 
HETATM   15  C   UNK     0      34.433  -5.776   9.890  0.00  0.00     0.098 A 
HETATM   16  C   UNK     0      34.396  -4.552   9.222  0.00  0.00     0.040 A 
HETATM   17  C   UNK     0      35.129  -3.470   9.709  0.00  0.00     0.013 A 
BRANCH  14  18
HETATM   18  O   UNK     0      35.244  -7.109  11.706  0.00  0.00    -0.358 OA
HETATM   19  H   UNK     0      34.729  -7.022  12.526  0.00  0.00     0.217 HD
ENDBRANCH  14  18
BRANCH  15  20
HETATM   20  O   UNK     0      33.712  -6.826   9.404  0.00  0.00    -0.358 OA
HETATM   21  H   UNK     0      32.979  -7.016  10.016  0.00  0.00     0.217 HD
ENDBRANCH  15  20
ENDBRANCH   3  12
BRANCH   4  22
HETATM   22  O   UNK     0      38.837  -3.398  10.826  0.00  0.00    -0.385 OA
HETATM   23  H   UNK     0      38.310  -4.101  10.409  0.00  0.00     0.210 HD
ENDBRANCH   4  22
BRANCH   8  24
HETATM   24  O   UNK     0      39.868   0.636  13.825  0.00  0.00    -0.360 OA
HETATM   25  H   UNK     0      40.326  -0.159  14.137  0.00  0.00     0.217 HD
ENDBRANCH   8  24
BRANCH  11  26
HETATM   26  O   UNK     0      35.528   2.056  15.116  0.00  0.00    -0.361 OA
HETATM   27  H   UNK     0      35.123   1.608  15.878  0.00  0.00     0.217 HD
ENDBRANCH  11  26
TORSDOF 6
ENDMDL
MODEL 9
REMARK VINA RESULT:      -7.4     20.062     21.013
REMARK  6 active torsions:
REMARK  status: ('A' for Active; 'I' for Inactive)
REMARK    1  A    between atoms: O_2  and  C_9 
REMARK    2  A    between atoms: O_4  and  C_14 
REMARK    3  A    between atoms: O_5  and  C_19 
REMARK    4  A    between atoms: O_6  and  C_20 
REMARK    5  A    between atoms: O_7  and  C_22 
REMARK    6  A    between atoms: C_8  and  C_10 
ROOT
HETATM    1  O   UNK     0      36.399  -0.254  12.776  0.00  0.00    -0.337 OA
HETATM    2  O   UNK     0      40.193  -1.773  12.405  0.00  0.00    -0.289 OA
HETATM    3  C   UNK     0      37.464   0.182  13.636  0.00  0.00     0.198 C 
HETATM    4  C   UNK     0      38.811   0.139  12.915  0.00  0.00     0.227 C 
HETATM    5  C   UNK     0      39.073  -1.279  12.457  0.00  0.00     0.196 C 
HETATM    6  C   UNK     0      37.882  -2.041  12.031  0.00  0.00     0.079 A 
HETATM    7  C   UNK     0      36.616  -1.477  12.201  0.00  0.00     0.089 A 
HETATM    8  C   UNK     0      38.022  -3.299  11.439  0.00  0.00     0.085 A 
HETATM    9  C   UNK     0      35.488  -2.160  11.743  0.00  0.00     0.074 A 
HETATM   10  C   UNK     0      36.890  -3.985  11.001  0.00  0.00     0.074 A 
HETATM   11  C   UNK     0      35.625  -3.415  11.148  0.00  0.00     0.071 A 
ENDROOT
BRANCH   3  12
HETATM   12  C   UNK     0      37.119   1.583  14.102  0.00  0.00    -0.023 A 
HETATM   13  C   UNK     0      36.895   1.829  15.455  0.00  0.00     0.049 A 
HETATM   14  C   UNK     0      36.578   3.118  15.886  0.00  0.00     0.099 A 
HETATM   15  C   UNK     0      36.485   4.158  14.961  0.00  0.00     0.098 A 
HETATM   16  C   UNK     0      36.711   3.910  13.607  0.00  0.00     0.040 A 
HETATM   17  C   UNK     0      37.027   2.621  13.177  0.00  0.00     0.013 A 
BRANCH  14  18
HETATM   18  O   UNK     0      36.362   3.348  17.210  0.00  0.00    -0.358 OA
HETATM   19  H   UNK     0      35.819   4.151  17.297  0.00  0.00     0.217 HD
ENDBRANCH  14  18
BRANCH  15  20
HETATM   20  O   UNK     0      36.178   5.421  15.369  0.00  0.00    -0.358 OA
HETATM   21  H   UNK     0      35.239   5.594  15.184  0.00  0.00     0.217 HD
ENDBRANCH  15  20
ENDBRANCH   3  12
BRANCH   4  22
HETATM   22  O   UNK     0      39.852   0.516  13.801  0.00  0.00    -0.385 OA
HETATM   23  H   UNK     0      40.462   1.090  13.309  0.00  0.00     0.210 HD
ENDBRANCH   4  22
BRANCH   8  24
HETATM   24  O   UNK     0      39.233  -3.895  11.253  0.00  0.00    -0.360 OA
HETATM   25  H   UNK     0      39.912  -3.235  11.048  0.00  0.00     0.217 HD
ENDBRANCH   8  24
BRANCH  11  26
HETATM   26  O   UNK     0      34.523  -4.084  10.712  0.00  0.00    -0.361 OA
HETATM   27  H   UNK     0      33.931  -4.245  11.467  0.00  0.00     0.217 HD
ENDBRANCH  11  26
TORSDOF 6
ENDMDL
