MODEL 1
REMARK VINA RESULT:    -9.246      0.000      0.000
REMARK INTER + INTRA:         -14.781
REMARK INTER:                 -13.571
REMARK INTRA:                  -1.210
REMARK UNBOUND:                -1.210
REMARK  Name = 5281643
REMARK  12 active torsions:
REMARK  status: ('A' for Active; 'I' for Inactive)
REMARK    1  A    between atoms: O_2  and  C_17
REMARK    2  A    between atoms: O_2  and  C_19
REMARK    3  A    between atoms: O_3  and  C_13
REMARK    4  A    between atoms: O_4  and  C_14
REMARK    5  A    between atoms: O_5  and  C_15
REMARK    6  A    between atoms: O_6  and  C_18
REMARK    7  A    between atoms: O_9  and  C_25
REMARK    8  A    between atoms: O_10  and  C_30
REMARK    9  A    between atoms: O_11  and  C_31
REMARK   10  A    between atoms: O_12  and  C_33
REMARK   11  A    between atoms: C_16  and  C_18
REMARK   12  A    between atoms: C_20  and  C_24
REMARK                            x       y       z     vdW  Elec       q    Type
REMARK                         _______ _______ _______ _____ _____    ______ ____
ROOT
ATOM      1  O   UNL     1     108.038 144.053 164.837  0.00  0.00    +0.000 OA
ATOM      2  O   UNL     1     105.545 141.593 166.918  0.00  0.00    +0.000 OA
ATOM      3  C   UNL     1     105.856 143.039 165.070  0.00  0.00    +0.000 A 
ATOM      4  C   UNL     1     106.729 143.842 164.434  0.00  0.00    +0.000 A 
ATOM      5  C   UNL     1     106.295 142.335 166.298  0.00  0.00    +0.000 A 
ATOM      6  C   UNL     1     107.681 142.576 166.728  0.00  0.00    +0.000 A 
ATOM      7  C   UNL     1     108.484 143.426 165.971  0.00  0.00    +0.000 A 
ATOM      8  C   UNL     1     108.190 141.962 167.875  0.00  0.00    +0.000 A 
ATOM      9  C   UNL     1     109.802 143.668 166.356  0.00  0.00    +0.000 A 
ATOM     10  C   UNL     1     109.509 142.206 168.259  0.00  0.00    +0.000 A 
ATOM     11  C   UNL     1     110.314 143.057 167.501  0.00  0.00    +0.000 A 
ENDROOT
BRANCH   4  12
ATOM     12  C   UNL     1     106.380 144.573 163.202  0.00  0.00    +0.000 A 
ATOM     13  C   UNL     1     105.961 145.902 163.275  0.00  0.00    +0.000 A 
ATOM     14  C   UNL     1     106.470 143.937 161.964  0.00  0.00    +0.000 A 
ATOM     15  C   UNL     1     105.632 146.594 162.110  0.00  0.00    +0.000 A 
ATOM     16  C   UNL     1     106.141 144.629 160.799  0.00  0.00    +0.000 A 
ATOM     17  C   UNL     1     105.722 145.957 160.871  0.00  0.00    +0.000 A 
BRANCH  15  18
ATOM     18  O   UNL     1     105.223 147.890 162.193  0.00  0.00    +0.000 OA
ATOM     19  H   UNL     1     104.733 148.110 161.381  0.00  0.00    +0.000 HD
ENDBRANCH  15  18
BRANCH  17  20
ATOM     20  O   UNL     1     105.404 146.623 159.726  0.00  0.00    +0.000 OA
ATOM     21  H   UNL     1     105.866 147.479 159.719  0.00  0.00    +0.000 HD
ENDBRANCH  17  20
ENDBRANCH   4  12
BRANCH   8  22
ATOM     22  O   UNL     1     107.448 141.122 168.649  0.00  0.00    +0.000 OA
ATOM     23  H   UNL     1     108.007 140.431 169.036  0.00  0.00    +0.000 HD
ENDBRANCH   8  22
BRANCH  11  24
ATOM     24  O   UNL     1     111.601 143.289 167.878  0.00  0.00    +0.000 OA
ATOM     25  H   UNL     1     111.635 143.388 168.844  0.00  0.00    +0.000 HD
ENDBRANCH  11  24
BRANCH   3  26
ATOM     26  O   UNL     1     104.570 142.824 164.624  0.00  0.00    +0.000 OA
BRANCH  26  32
ATOM     27  O   UNL     1     103.337 143.890 166.296  0.00  0.00    +0.000 OA
ATOM     28  C   UNL     1     101.464 144.908 164.378  0.00  0.00    +0.000 C 
ATOM     29  C   UNL     1     101.162 144.885 165.877  0.00  0.00    +0.000 C 
ATOM     30  C   UNL     1     102.494 143.841 164.009  0.00  0.00    +0.000 C 
ATOM     31  C   UNL     1     102.470 144.968 166.671  0.00  0.00    +0.000 C 
ATOM     32  C   UNL     1     103.719 143.931 164.922  0.00  0.00    +0.000 C 
BRANCH  28  33
ATOM     33  O   UNL     1     100.270 144.686 163.633  0.00  0.00    +0.000 OA
ATOM     34  H   UNL     1      99.591 144.377 164.257  0.00  0.00    +0.000 HD
ENDBRANCH  28  33
BRANCH  29  35
ATOM     35  O   UNL     1     100.490 143.668 166.211  0.00  0.00    +0.000 OA
ATOM     36  H   UNL     1     100.420 143.634 167.180  0.00  0.00    +0.000 HD
ENDBRANCH  29  35
BRANCH  30  37
ATOM     37  O   UNL     1     102.918 144.044 162.661  0.00  0.00    +0.000 OA
ATOM     38  H   UNL     1     103.883 143.927 162.645  0.00  0.00    +0.000 HD
ENDBRANCH  30  37
BRANCH  31  39
ATOM     39  C   UNL     1     102.243 144.867 168.175  0.00  0.00    +0.000 C 
BRANCH  39  40
ATOM     40  O   UNL     1     101.189 145.741 168.533  0.00  0.00    +0.000 OA
ATOM     41  H   UNL     1     100.439 145.194 168.824  0.00  0.00    +0.000 HD
ENDBRANCH  39  40
ENDBRANCH  31  39
ENDBRANCH  26  32
ENDBRANCH   3  26
TORSDOF 12
ENDMDL
MODEL 2
REMARK VINA RESULT:    -9.224      1.723      5.304
REMARK INTER + INTRA:         -14.748
REMARK INTER:                 -13.589
REMARK INTRA:                  -1.158
REMARK UNBOUND:                -1.210
REMARK  Name = 5281643
REMARK  12 active torsions:
REMARK  status: ('A' for Active; 'I' for Inactive)
REMARK    1  A    between atoms: O_2  and  C_17
REMARK    2  A    between atoms: O_2  and  C_19
REMARK    3  A    between atoms: O_3  and  C_13
REMARK    4  A    between atoms: O_4  and  C_14
REMARK    5  A    between atoms: O_5  and  C_15
REMARK    6  A    between atoms: O_6  and  C_18
REMARK    7  A    between atoms: O_9  and  C_25
REMARK    8  A    between atoms: O_10  and  C_30
REMARK    9  A    between atoms: O_11  and  C_31
REMARK   10  A    between atoms: O_12  and  C_33
REMARK   11  A    between atoms: C_16  and  C_18
REMARK   12  A    between atoms: C_20  and  C_24
REMARK                            x       y       z     vdW  Elec       q    Type
REMARK                         _______ _______ _______ _____ _____    ______ ____
ROOT
ATOM      1  O   UNL     1     108.125 144.817 164.309  0.00  0.00    +0.000 OA
ATOM      2  O   UNL     1     104.661 145.236 162.205  0.00  0.00    +0.000 OA
ATOM      3  C   UNL     1     105.850 144.104 163.911  0.00  0.00    +0.000 A 
ATOM      4  C   UNL     1     107.024 144.015 164.562  0.00  0.00    +0.000 A 
ATOM      5  C   UNL     1     105.705 145.110 162.832  0.00  0.00    +0.000 A 
ATOM      6  C   UNL     1     106.882 145.947 162.558  0.00  0.00    +0.000 A 
ATOM      7  C   UNL     1     108.036 145.757 163.314  0.00  0.00    +0.000 A 
ATOM      8  C   UNL     1     106.849 146.922 161.557  0.00  0.00    +0.000 A 
ATOM      9  C   UNL     1     109.165 146.541 163.076  0.00  0.00    +0.000 A 
ATOM     10  C   UNL     1     107.979 147.704 161.320  0.00  0.00    +0.000 A 
ATOM     11  C   UNL     1     109.135 147.514 162.077  0.00  0.00    +0.000 A 
ENDROOT
BRANCH   4  12
ATOM     12  C   UNL     1     107.253 143.052 165.654  0.00  0.00    +0.000 A 
ATOM     13  C   UNL     1     107.443 143.509 166.959  0.00  0.00    +0.000 A 
ATOM     14  C   UNL     1     107.279 141.684 165.384  0.00  0.00    +0.000 A 
ATOM     15  C   UNL     1     107.659 142.598 167.993  0.00  0.00    +0.000 A 
ATOM     16  C   UNL     1     107.495 140.772 166.417  0.00  0.00    +0.000 A 
ATOM     17  C   UNL     1     107.685 141.229 167.722  0.00  0.00    +0.000 A 
BRANCH  15  18
ATOM     18  O   UNL     1     107.845 143.055 169.262  0.00  0.00    +0.000 OA
ATOM     19  H   UNL     1     106.992 143.014 169.730  0.00  0.00    +0.000 HD
ENDBRANCH  15  18
BRANCH  17  20
ATOM     20  O   UNL     1     107.895 140.329 168.723  0.00  0.00    +0.000 OA
ATOM     21  H   UNL     1     108.824 140.383 169.007  0.00  0.00    +0.000 HD
ENDBRANCH  17  20
ENDBRANCH   4  12
BRANCH   8  22
ATOM     22  O   UNL     1     105.746 147.149 160.790  0.00  0.00    +0.000 OA
ATOM     23  H   UNL     1     104.980 146.670 161.142  0.00  0.00    +0.000 HD
ENDBRANCH   8  22
BRANCH  11  24
ATOM     24  O   UNL     1     110.234 148.282 161.844  0.00  0.00    +0.000 OA
ATOM     25  H   UNL     1     111.026 147.796 162.130  0.00  0.00    +0.000 HD
ENDBRANCH  11  24
BRANCH   3  26
ATOM     26  O   UNL     1     104.762 143.313 164.211  0.00  0.00    +0.000 OA
BRANCH  26  32
ATOM     27  O   UNL     1     103.569 144.087 166.063  0.00  0.00    +0.000 OA
ATOM     28  C   UNL     1     101.132 144.182 164.554  0.00  0.00    +0.000 C 
ATOM     29  C   UNL     1     101.146 144.233 166.082  0.00  0.00    +0.000 C 
ATOM     30  C   UNL     1     102.385 143.490 164.017  0.00  0.00    +0.000 C 
ATOM     31  C   UNL     1     102.464 144.844 166.569  0.00  0.00    +0.000 C 
ATOM     32  C   UNL     1     103.646 144.094 164.638  0.00  0.00    +0.000 C 
BRANCH  28  33
ATOM     33  O   UNL     1      99.977 143.484 164.097  0.00  0.00    +0.000 OA
ATOM     34  H   UNL     1      99.964 142.620 164.542  0.00  0.00    +0.000 HD
ENDBRANCH  28  33
BRANCH  29  35
ATOM     35  O   UNL     1     101.024 142.908 166.607  0.00  0.00    +0.000 OA
ATOM     36  H   UNL     1     100.091 142.776 166.843  0.00  0.00    +0.000 HD
ENDBRANCH  29  35
BRANCH  30  37
ATOM     37  O   UNL     1     102.447 143.665 162.602  0.00  0.00    +0.000 OA
ATOM     38  H   UNL     1     102.552 142.781 162.210  0.00  0.00    +0.000 HD
ENDBRANCH  30  37
BRANCH  31  39
ATOM     39  C   UNL     1     102.575 144.848 168.090  0.00  0.00    +0.000 C 
BRANCH  39  40
ATOM     40  O   UNL     1     103.310 143.708 168.493  0.00  0.00    +0.000 OA
ATOM     41  H   UNL     1     104.212 143.801 168.143  0.00  0.00    +0.000 HD
ENDBRANCH  39  40
ENDBRANCH  31  39
ENDBRANCH  26  32
ENDBRANCH   3  26
TORSDOF 12
ENDMDL
MODEL 3
REMARK VINA RESULT:    -9.126     20.409     24.553
REMARK INTER + INTRA:         -14.604
REMARK INTER:                 -13.033
REMARK INTRA:                  -1.571
REMARK UNBOUND:                -1.210
REMARK  Name = 5281643
REMARK  12 active torsions:
REMARK  status: ('A' for Active; 'I' for Inactive)
REMARK    1  A    between atoms: O_2  and  C_17
REMARK    2  A    between atoms: O_2  and  C_19
REMARK    3  A    between atoms: O_3  and  C_13
REMARK    4  A    between atoms: O_4  and  C_14
REMARK    5  A    between atoms: O_5  and  C_15
REMARK    6  A    between atoms: O_6  and  C_18
REMARK    7  A    between atoms: O_9  and  C_25
REMARK    8  A    between atoms: O_10  and  C_30
REMARK    9  A    between atoms: O_11  and  C_31
REMARK   10  A    between atoms: O_12  and  C_33
REMARK   11  A    between atoms: C_16  and  C_18
REMARK   12  A    between atoms: C_20  and  C_24
REMARK                            x       y       z     vdW  Elec       q    Type
REMARK                         _______ _______ _______ _____ _____    ______ ____
ROOT
ATOM      1  O   UNL     1     117.168 147.077 146.720  0.00  0.00    +0.000 OA
ATOM      2  O   UNL     1     114.034 149.119 145.105  0.00  0.00    +0.000 OA
ATOM      3  C   UNL     1     116.324 149.104 145.709  0.00  0.00    +0.000 A 
ATOM      4  C   UNL     1     117.312 148.376 146.259  0.00  0.00    +0.000 A 
ATOM      5  C   UNL     1     114.972 148.504 145.594  0.00  0.00    +0.000 A 
ATOM      6  C   UNL     1     114.823 147.131 146.100  0.00  0.00    +0.000 A 
ATOM      7  C   UNL     1     115.934 146.486 146.639  0.00  0.00    +0.000 A 
ATOM      8  C   UNL     1     113.589 146.478 146.041  0.00  0.00    +0.000 A 
ATOM      9  C   UNL     1     115.819 145.183 147.122  0.00  0.00    +0.000 A 
ATOM     10  C   UNL     1     113.476 145.175 146.525  0.00  0.00    +0.000 A 
ATOM     11  C   UNL     1     114.588 144.528 147.065  0.00  0.00    +0.000 A 
ENDROOT
BRANCH   4  12
ATOM     12  C   UNL     1     118.687 148.889 146.404  0.00  0.00    +0.000 A 
ATOM     13  C   UNL     1     119.734 148.283 145.708  0.00  0.00    +0.000 A 
ATOM     14  C   UNL     1     118.941 149.979 147.235  0.00  0.00    +0.000 A 
ATOM     15  C   UNL     1     121.034 148.768 145.844  0.00  0.00    +0.000 A 
ATOM     16  C   UNL     1     120.241 150.465 147.371  0.00  0.00    +0.000 A 
ATOM     17  C   UNL     1     121.288 149.859 146.677  0.00  0.00    +0.000 A 
BRANCH  15  18
ATOM     18  O   UNL     1     122.049 148.169 145.161  0.00  0.00    +0.000 OA
ATOM     19  H   UNL     1     122.227 148.689 144.358  0.00  0.00    +0.000 HD
ENDBRANCH  15  18
BRANCH  17  20
ATOM     20  O   UNL     1     122.554 150.343 146.817  0.00  0.00    +0.000 OA
ATOM     21  H   UNL     1     123.146 149.612 147.065  0.00  0.00    +0.000 HD
ENDBRANCH  17  20
ENDBRANCH   4  12
BRANCH   8  22
ATOM     22  O   UNL     1     112.473 147.063 145.524  0.00  0.00    +0.000 OA
ATOM     23  H   UNL     1     112.684 147.539 144.706  0.00  0.00    +0.000 HD
ENDBRANCH   8  22
BRANCH  11  24
ATOM     24  O   UNL     1     114.473 143.256 147.532  0.00  0.00    +0.000 OA
ATOM     25  H   UNL     1     115.054 143.149 148.305  0.00  0.00    +0.000 HD
ENDBRANCH  11  24
BRANCH   3  26
ATOM     26  O   UNL     1     116.508 150.383 145.230  0.00  0.00    +0.000 OA
BRANCH  26  32
ATOM     27  O   UNL     1     118.333 150.609 143.791  0.00  0.00    +0.000 OA
ATOM     28  C   UNL     1     116.659 151.625 141.697  0.00  0.00    +0.000 C 
ATOM     29  C   UNL     1     118.180 151.774 141.667  0.00  0.00    +0.000 C 
ATOM     30  C   UNL     1     116.150 151.470 143.129  0.00  0.00    +0.000 C 
ATOM     31  C   UNL     1     118.830 150.627 142.447  0.00  0.00    +0.000 C 
ATOM     32  C   UNL     1     116.928 150.376 143.865  0.00  0.00    +0.000 C 
BRANCH  28  33
ATOM     33  O   UNL     1     116.042 152.762 141.100  0.00  0.00    +0.000 OA
ATOM     34  H   UNL     1     116.507 152.941 140.265  0.00  0.00    +0.000 HD
ENDBRANCH  28  33
BRANCH  29  35
ATOM     35  O   UNL     1     118.551 153.017 142.269  0.00  0.00    +0.000 OA
ATOM     36  H   UNL     1     117.892 153.213 142.956  0.00  0.00    +0.000 HD
ENDBRANCH  29  35
BRANCH  30  37
ATOM     37  O   UNL     1     114.770 151.105 143.101  0.00  0.00    +0.000 OA
ATOM     38  H   UNL     1     114.691 150.255 143.568  0.00  0.00    +0.000 HD
ENDBRANCH  30  37
BRANCH  31  39
ATOM     39  C   UNL     1     120.347 150.764 142.525  0.00  0.00    +0.000 C 
BRANCH  39  40
ATOM     40  O   UNL     1     120.670 151.596 143.624  0.00  0.00    +0.000 OA
ATOM     41  H   UNL     1     120.512 151.085 144.436  0.00  0.00    +0.000 HD
ENDBRANCH  39  40
ENDBRANCH  31  39
ENDBRANCH  26  32
ENDBRANCH   3  26
TORSDOF 12
ENDMDL
MODEL 4
REMARK VINA RESULT:    -8.560     30.841     33.579
REMARK INTER + INTRA:         -13.772
REMARK INTER:                 -13.044
REMARK INTRA:                  -0.728
REMARK UNBOUND:                -1.210
REMARK  Name = 5281643
REMARK  12 active torsions:
REMARK  status: ('A' for Active; 'I' for Inactive)
REMARK    1  A    between atoms: O_2  and  C_17
REMARK    2  A    between atoms: O_2  and  C_19
REMARK    3  A    between atoms: O_3  and  C_13
REMARK    4  A    between atoms: O_4  and  C_14
REMARK    5  A    between atoms: O_5  and  C_15
REMARK    6  A    between atoms: O_6  and  C_18
REMARK    7  A    between atoms: O_9  and  C_25
REMARK    8  A    between atoms: O_10  and  C_30
REMARK    9  A    between atoms: O_11  and  C_31
REMARK   10  A    between atoms: O_12  and  C_33
REMARK   11  A    between atoms: C_16  and  C_18
REMARK   12  A    between atoms: C_20  and  C_24
REMARK                            x       y       z     vdW  Elec       q    Type
REMARK                         _______ _______ _______ _____ _____    ______ ____
ROOT
ATOM      1  O   UNL     1     131.679 148.428 144.972  0.00  0.00    +0.000 OA
ATOM      2  O   UNL     1     131.859 152.453 145.576  0.00  0.00    +0.000 OA
ATOM      3  C   UNL     1     131.220 150.661 144.167  0.00  0.00    +0.000 A 
ATOM      4  C   UNL     1     131.198 149.322 144.029  0.00  0.00    +0.000 A 
ATOM      5  C   UNL     1     131.811 151.244 145.396  0.00  0.00    +0.000 A 
ATOM      6  C   UNL     1     132.333 150.289 146.385  0.00  0.00    +0.000 A 
ATOM      7  C   UNL     1     132.239 148.924 146.120  0.00  0.00    +0.000 A 
ATOM      8  C   UNL     1     132.913 150.737 147.575  0.00  0.00    +0.000 A 
ATOM      9  C   UNL     1     132.724 147.999 147.044  0.00  0.00    +0.000 A 
ATOM     10  C   UNL     1     133.398 149.809 148.497  0.00  0.00    +0.000 A 
ATOM     11  C   UNL     1     133.304 148.443 148.232  0.00  0.00    +0.000 A 
ENDROOT
BRANCH   4  12
ATOM     12  C   UNL     1     130.623 148.658 142.846  0.00  0.00    +0.000 A 
ATOM     13  C   UNL     1     131.457 147.997 141.943  0.00  0.00    +0.000 A 
ATOM     14  C   UNL     1     129.245 148.689 142.629  0.00  0.00    +0.000 A 
ATOM     15  C   UNL     1     130.912 147.367 140.824  0.00  0.00    +0.000 A 
ATOM     16  C   UNL     1     128.701 148.059 141.510  0.00  0.00    +0.000 A 
ATOM     17  C   UNL     1     129.534 147.399 140.607  0.00  0.00    +0.000 A 
BRANCH  15  18
ATOM     18  O   UNL     1     131.736 146.726 139.948  0.00  0.00    +0.000 OA
ATOM     19  H   UNL     1     131.594 145.768 140.041  0.00  0.00    +0.000 HD
ENDBRANCH  15  18
BRANCH  17  20
ATOM     20  O   UNL     1     128.991 146.787 139.518  0.00  0.00    +0.000 OA
ATOM     21  H   UNL     1     128.753 145.873 139.754  0.00  0.00    +0.000 HD
ENDBRANCH  17  20
ENDBRANCH   4  12
BRANCH   8  22
ATOM     22  O   UNL     1     133.028 152.059 147.882  0.00  0.00    +0.000 OA
ATOM     23  H   UNL     1     133.876 152.410 147.569  0.00  0.00    +0.000 HD
ENDBRANCH   8  22
BRANCH  11  24
ATOM     24  O   UNL     1     133.776 147.542 149.137  0.00  0.00    +0.000 OA
ATOM     25  H   UNL     1     133.023 147.074 149.539  0.00  0.00    +0.000 HD
ENDBRANCH  11  24
BRANCH   3  26
ATOM     26  O   UNL     1     130.703 151.523 143.225  0.00  0.00    +0.000 OA
BRANCH  26  32
ATOM     27  O   UNL     1     128.592 152.231 143.928  0.00  0.00    +0.000 OA
ATOM     28  C   UNL     1     129.275 154.979 143.475  0.00  0.00    +0.000 C 
ATOM     29  C   UNL     1     127.828 154.519 143.652  0.00  0.00    +0.000 C 
ATOM     30  C   UNL     1     130.157 153.838 142.970  0.00  0.00    +0.000 C 
ATOM     31  C   UNL     1     127.787 153.258 144.521  0.00  0.00    +0.000 C 
ATOM     32  C   UNL     1     129.971 152.587 143.833  0.00  0.00    +0.000 C 
BRANCH  28  33
ATOM     33  O   UNL     1     129.337 156.063 142.552  0.00  0.00    +0.000 OA
ATOM     34  H   UNL     1     128.787 155.825 141.786  0.00  0.00    +0.000 HD
ENDBRANCH  28  33
BRANCH  29  35
ATOM     35  O   UNL     1     127.260 154.224 142.374  0.00  0.00    +0.000 OA
ATOM     36  H   UNL     1     127.586 154.895 141.751  0.00  0.00    +0.000 HD
ENDBRANCH  29  35
BRANCH  30  37
ATOM     37  O   UNL     1     131.526 154.236 143.037  0.00  0.00    +0.000 OA
ATOM     38  H   UNL     1     132.020 153.492 143.421  0.00  0.00    +0.000 HD
ENDBRANCH  30  37
BRANCH  31  39
ATOM     39  C   UNL     1     126.376 152.700 144.668  0.00  0.00    +0.000 C 
BRANCH  39  40
ATOM     40  O   UNL     1     126.204 151.652 143.732  0.00  0.00    +0.000 OA
ATOM     41  H   UNL     1     125.615 151.977 143.030  0.00  0.00    +0.000 HD
ENDBRANCH  39  40
ENDBRANCH  31  39
ENDBRANCH  26  32
ENDBRANCH   3  26
TORSDOF 12
ENDMDL
MODEL 5
REMARK VINA RESULT:    -8.490     29.094     32.517
REMARK INTER + INTRA:         -13.670
REMARK INTER:                 -12.301
REMARK INTRA:                  -1.369
REMARK UNBOUND:                -1.210
REMARK  Name = 5281643
REMARK  12 active torsions:
REMARK  status: ('A' for Active; 'I' for Inactive)
REMARK    1  A    between atoms: O_2  and  C_17
REMARK    2  A    between atoms: O_2  and  C_19
REMARK    3  A    between atoms: O_3  and  C_13
REMARK    4  A    between atoms: O_4  and  C_14
REMARK    5  A    between atoms: O_5  and  C_15
REMARK    6  A    between atoms: O_6  and  C_18
REMARK    7  A    between atoms: O_9  and  C_25
REMARK    8  A    between atoms: O_10  and  C_30
REMARK    9  A    between atoms: O_11  and  C_31
REMARK   10  A    between atoms: O_12  and  C_33
REMARK   11  A    between atoms: C_16  and  C_18
REMARK   12  A    between atoms: C_20  and  C_24
REMARK                            x       y       z     vdW  Elec       q    Type
REMARK                         _______ _______ _______ _____ _____    ______ ____
ROOT
ATOM      1  O   UNL     1     130.863 150.502 142.468  0.00  0.00    +0.000 OA
ATOM      2  O   UNL     1     128.472 148.094 144.723  0.00  0.00    +0.000 OA
ATOM      3  C   UNL     1     129.338 150.262 144.329  0.00  0.00    +0.000 A 
ATOM      4  C   UNL     1     130.150 150.998 143.548  0.00  0.00    +0.000 A 
ATOM      5  C   UNL     1     129.194 148.814 144.046  0.00  0.00    +0.000 A 
ATOM      6  C   UNL     1     129.966 148.291 142.909  0.00  0.00    +0.000 A 
ATOM      7  C   UNL     1     130.763 149.167 142.175  0.00  0.00    +0.000 A 
ATOM      8  C   UNL     1     129.902 146.939 142.563  0.00  0.00    +0.000 A 
ATOM      9  C   UNL     1     131.502 148.696 141.090  0.00  0.00    +0.000 A 
ATOM     10  C   UNL     1     130.642 146.470 141.477  0.00  0.00    +0.000 A 
ATOM     11  C   UNL     1     131.440 147.347 140.742  0.00  0.00    +0.000 A 
ENDROOT
BRANCH   4  12
ATOM     12  C   UNL     1     130.344 152.445 143.750  0.00  0.00    +0.000 A 
ATOM     13  C   UNL     1     129.553 153.360 143.054  0.00  0.00    +0.000 A 
ATOM     14  C   UNL     1     131.319 152.901 144.638  0.00  0.00    +0.000 A 
ATOM     15  C   UNL     1     129.736 154.729 143.246  0.00  0.00    +0.000 A 
ATOM     16  C   UNL     1     131.502 154.270 144.831  0.00  0.00    +0.000 A 
ATOM     17  C   UNL     1     130.711 155.185 144.134  0.00  0.00    +0.000 A 
BRANCH  15  18
ATOM     18  O   UNL     1     128.959 155.612 142.560  0.00  0.00    +0.000 OA
ATOM     19  H   UNL     1     129.123 156.504 142.914  0.00  0.00    +0.000 HD
ENDBRANCH  15  18
BRANCH  17  20
ATOM     20  O   UNL     1     130.899 156.519 144.331  0.00  0.00    +0.000 OA
ATOM     21  H   UNL     1     131.230 156.917 143.506  0.00  0.00    +0.000 HD
ENDBRANCH  17  20
ENDBRANCH   4  12
BRANCH   8  22
ATOM     22  O   UNL     1     129.137 146.042 143.246  0.00  0.00    +0.000 OA
ATOM     23  H   UNL     1     128.823 145.340 142.654  0.00  0.00    +0.000 HD
ENDBRANCH   8  22
BRANCH  11  24
ATOM     24  O   UNL     1     132.158 146.885 139.682  0.00  0.00    +0.000 OA
ATOM     25  H   UNL     1     132.665 147.621 139.299  0.00  0.00    +0.000 HD
ENDBRANCH  11  24
BRANCH   3  26
ATOM     26  O   UNL     1     128.616 150.793 145.376  0.00  0.00    +0.000 OA
BRANCH  26  32
ATOM     27  O   UNL     1     127.278 152.661 144.961  0.00  0.00    +0.000 OA
ATOM     28  C   UNL     1     124.898 151.201 145.615  0.00  0.00    +0.000 C 
ATOM     29  C   UNL     1     124.921 152.728 145.538  0.00  0.00    +0.000 C 
ATOM     30  C   UNL     1     126.290 150.645 145.913  0.00  0.00    +0.000 C 
ATOM     31  C   UNL     1     126.006 153.183 144.557  0.00  0.00    +0.000 C 
ATOM     32  C   UNL     1     127.327 151.235 144.953  0.00  0.00    +0.000 C 
BRANCH  28  33
ATOM     33  O   UNL     1     123.995 150.773 146.630  0.00  0.00    +0.000 OA
ATOM     34  H   UNL     1     123.177 150.486 146.190  0.00  0.00    +0.000 HD
ENDBRANCH  28  33
BRANCH  29  35
ATOM     35  O   UNL     1     125.206 153.268 146.831  0.00  0.00    +0.000 OA
ATOM     36  H   UNL     1     125.080 152.552 147.477  0.00  0.00    +0.000 HD
ENDBRANCH  29  35
BRANCH  30  37
ATOM     37  O   UNL     1     126.275 149.227 145.749  0.00  0.00    +0.000 OA
ATOM     38  H   UNL     1     126.910 149.016 145.043  0.00  0.00    +0.000 HD
ENDBRANCH  30  37
BRANCH  31  39
ATOM     39  C   UNL     1     126.136 154.701 144.497  0.00  0.00    +0.000 C 
BRANCH  39  40
ATOM     40  O   UNL     1     124.866 155.273 144.752  0.00  0.00    +0.000 OA
ATOM     41  H   UNL     1     124.933 155.781 145.579  0.00  0.00    +0.000 HD
ENDBRANCH  39  40
ENDBRANCH  31  39
ENDBRANCH  26  32
ENDBRANCH   3  26
TORSDOF 12
ENDMDL
MODEL 6
REMARK VINA RESULT:    -8.440     30.621     34.053
REMARK INTER + INTRA:         -13.597
REMARK INTER:                 -12.918
REMARK INTRA:                  -0.679
REMARK UNBOUND:                -1.210
REMARK  Name = 5281643
REMARK  12 active torsions:
REMARK  status: ('A' for Active; 'I' for Inactive)
REMARK    1  A    between atoms: O_2  and  C_17
REMARK    2  A    between atoms: O_2  and  C_19
REMARK    3  A    between atoms: O_3  and  C_13
REMARK    4  A    between atoms: O_4  and  C_14
REMARK    5  A    between atoms: O_5  and  C_15
REMARK    6  A    between atoms: O_6  and  C_18
REMARK    7  A    between atoms: O_9  and  C_25
REMARK    8  A    between atoms: O_10  and  C_30
REMARK    9  A    between atoms: O_11  and  C_31
REMARK   10  A    between atoms: O_12  and  C_33
REMARK   11  A    between atoms: C_16  and  C_18
REMARK   12  A    between atoms: C_20  and  C_24
REMARK                            x       y       z     vdW  Elec       q    Type
REMARK                         _______ _______ _______ _____ _____    ______ ____
ROOT
ATOM      1  O   UNL     1     131.586 150.006 142.159  0.00  0.00    +0.000 OA
ATOM      2  O   UNL     1     128.324 149.825 144.593  0.00  0.00    +0.000 OA
ATOM      3  C   UNL     1     130.207 151.051 143.848  0.00  0.00    +0.000 A 
ATOM      4  C   UNL     1     131.271 151.042 143.024  0.00  0.00    +0.000 A 
ATOM      5  C   UNL     1     129.305 149.874 143.864  0.00  0.00    +0.000 A 
ATOM      6  C   UNL     1     129.654 148.772 142.955  0.00  0.00    +0.000 A 
ATOM      7  C   UNL     1     130.781 148.896 142.146  0.00  0.00    +0.000 A 
ATOM      8  C   UNL     1     128.870 147.617 142.898  0.00  0.00    +0.000 A 
ATOM      9  C   UNL     1     131.132 147.866 141.274  0.00  0.00    +0.000 A 
ATOM     10  C   UNL     1     129.222 146.588 142.025  0.00  0.00    +0.000 A 
ATOM     11  C   UNL     1     130.351 146.711 141.214  0.00  0.00    +0.000 A 
ENDROOT
BRANCH   4  12
ATOM     12  C   UNL     1     132.214 152.172 142.936  0.00  0.00    +0.000 A 
ATOM     13  C   UNL     1     131.753 153.479 143.100  0.00  0.00    +0.000 A 
ATOM     14  C   UNL     1     133.566 151.935 142.691  0.00  0.00    +0.000 A 
ATOM     15  C   UNL     1     132.644 154.548 143.018  0.00  0.00    +0.000 A 
ATOM     16  C   UNL     1     134.458 153.005 142.609  0.00  0.00    +0.000 A 
ATOM     17  C   UNL     1     133.997 154.311 142.772  0.00  0.00    +0.000 A 
BRANCH  15  18
ATOM     18  O   UNL     1     132.183 155.820 143.178  0.00  0.00    +0.000 OA
ATOM     19  H   UNL     1     131.353 155.910 142.678  0.00  0.00    +0.000 HD
ENDBRANCH  15  18
BRANCH  17  20
ATOM     20  O   UNL     1     134.878 155.347 142.691  0.00  0.00    +0.000 OA
ATOM     21  H   UNL     1     135.345 155.300 141.838  0.00  0.00    +0.000 HD
ENDBRANCH  17  20
ENDBRANCH   4  12
BRANCH   8  22
ATOM     22  O   UNL     1     127.758 147.446 143.666  0.00  0.00    +0.000 OA
ATOM     23  H   UNL     1     127.934 146.825 144.389  0.00  0.00    +0.000 HD
ENDBRANCH   8  22
BRANCH  11  24
ATOM     24  O   UNL     1     130.689 145.706 140.362  0.00  0.00    +0.000 OA
ATOM     25  H   UNL     1     129.903 145.160 140.190  0.00  0.00    +0.000 HD
ENDBRANCH  11  24
BRANCH   3  26
ATOM     26  O   UNL     1     129.903 152.112 144.672  0.00  0.00    +0.000 OA
BRANCH  26  32
ATOM     27  O   UNL     1     128.879 153.803 143.429  0.00  0.00    +0.000 OA
ATOM     28  C   UNL     1     126.709 153.972 145.295  0.00  0.00    +0.000 C 
ATOM     29  C   UNL     1     126.982 155.067 144.264  0.00  0.00    +0.000 C 
ATOM     30  C   UNL     1     127.979 153.182 145.608  0.00  0.00    +0.000 C 
ATOM     31  C   UNL     1     127.670 154.463 143.036  0.00  0.00    +0.000 C 
ATOM     32  C   UNL     1     128.656 152.710 144.319  0.00  0.00    +0.000 C 
BRANCH  28  33
ATOM     33  O   UNL     1     126.204 154.545 146.498  0.00  0.00    +0.000 OA
ATOM     34  H   UNL     1     125.310 154.877 146.310  0.00  0.00    +0.000 HD
ENDBRANCH  28  33
BRANCH  29  35
ATOM     35  O   UNL     1     127.838 156.060 144.836  0.00  0.00    +0.000 OA
ATOM     36  H   UNL     1     127.363 156.452 145.589  0.00  0.00    +0.000 HD
ENDBRANCH  29  35
BRANCH  30  37
ATOM     37  O   UNL     1     127.640 152.036 146.389  0.00  0.00    +0.000 OA
ATOM     38  H   UNL     1     126.706 151.836 146.209  0.00  0.00    +0.000 HD
ENDBRANCH  30  37
BRANCH  31  39
ATOM     39  C   UNL     1     128.045 155.520 142.002  0.00  0.00    +0.000 C 
BRANCH  39  40
ATOM     40  O   UNL     1     129.369 155.953 142.258  0.00  0.00    +0.000 OA
ATOM     41  H   UNL     1     129.875 155.183 142.569  0.00  0.00    +0.000 HD
ENDBRANCH  39  40
ENDBRANCH  31  39
ENDBRANCH  26  32
ENDBRANCH   3  26
TORSDOF 12
ENDMDL
MODEL 7
REMARK VINA RESULT:    -8.350     30.586     33.710
REMARK INTER + INTRA:         -13.465
REMARK INTER:                 -12.816
REMARK INTRA:                  -0.650
REMARK UNBOUND:                -1.210
REMARK  Name = 5281643
REMARK  12 active torsions:
REMARK  status: ('A' for Active; 'I' for Inactive)
REMARK    1  A    between atoms: O_2  and  C_17
REMARK    2  A    between atoms: O_2  and  C_19
REMARK    3  A    between atoms: O_3  and  C_13
REMARK    4  A    between atoms: O_4  and  C_14
REMARK    5  A    between atoms: O_5  and  C_15
REMARK    6  A    between atoms: O_6  and  C_18
REMARK    7  A    between atoms: O_9  and  C_25
REMARK    8  A    between atoms: O_10  and  C_30
REMARK    9  A    between atoms: O_11  and  C_31
REMARK   10  A    between atoms: O_12  and  C_33
REMARK   11  A    between atoms: C_16  and  C_18
REMARK   12  A    between atoms: C_20  and  C_24
REMARK                            x       y       z     vdW  Elec       q    Type
REMARK                         _______ _______ _______ _____ _____    ______ ____
ROOT
ATOM      1  O   UNL     1     128.786 151.434 142.975  0.00  0.00    +0.000 OA
ATOM      2  O   UNL     1     131.831 153.167 145.054  0.00  0.00    +0.000 OA
ATOM      3  C   UNL     1     130.974 151.236 143.985  0.00  0.00    +0.000 A 
ATOM      4  C   UNL     1     129.930 150.725 143.308  0.00  0.00    +0.000 A 
ATOM      5  C   UNL     1     130.913 152.649 144.434  0.00  0.00    +0.000 A 
ATOM      6  C   UNL     1     129.690 153.390 144.091  0.00  0.00    +0.000 A 
ATOM      7  C   UNL     1     128.686 152.741 143.376  0.00  0.00    +0.000 A 
ATOM      8  C   UNL     1     129.534 154.725 144.471  0.00  0.00    +0.000 A 
ATOM      9  C   UNL     1     127.518 153.424 143.036  0.00  0.00    +0.000 A 
ATOM     10  C   UNL     1     128.365 155.406 144.130  0.00  0.00    +0.000 A 
ATOM     11  C   UNL     1     127.359 154.757 143.414  0.00  0.00    +0.000 A 
ENDROOT
BRANCH   4  12
ATOM     12  C   UNL     1     129.909 149.336 142.816  0.00  0.00    +0.000 A 
ATOM     13  C   UNL     1     130.941 148.869 142.001  0.00  0.00    +0.000 A 
ATOM     14  C   UNL     1     128.859 148.487 143.166  0.00  0.00    +0.000 A 
ATOM     15  C   UNL     1     130.923 147.554 141.536  0.00  0.00    +0.000 A 
ATOM     16  C   UNL     1     128.840 147.172 142.701  0.00  0.00    +0.000 A 
ATOM     17  C   UNL     1     129.872 146.705 141.886  0.00  0.00    +0.000 A 
BRANCH  15  18
ATOM     18  O   UNL     1     131.935 147.110 140.740  0.00  0.00    +0.000 OA
ATOM     19  H   UNL     1     132.138 147.803 140.088  0.00  0.00    +0.000 HD
ENDBRANCH  15  18
BRANCH  17  20
ATOM     20  O   UNL     1     129.843 145.419 141.439  0.00  0.00    +0.000 OA
ATOM     21  H   UNL     1     130.332 145.364 140.600  0.00  0.00    +0.000 HD
ENDBRANCH  17  20
ENDBRANCH   4  12
BRANCH   8  22
ATOM     22  O   UNL     1     130.485 155.406 145.170  0.00  0.00    +0.000 OA
ATOM     23  H   UNL     1     131.288 155.514 144.638  0.00  0.00    +0.000 HD
ENDBRANCH   8  22
BRANCH  11  24
ATOM     24  O   UNL     1     126.222 155.426 143.081  0.00  0.00    +0.000 OA
ATOM     25  H   UNL     1     126.191 155.536 142.115  0.00  0.00    +0.000 HD
ENDBRANCH  11  24
BRANCH   3  26
ATOM     26  O   UNL     1     132.112 150.514 144.271  0.00  0.00    +0.000 OA
BRANCH  26  32
ATOM     27  O   UNL     1     130.970 150.488 146.308  0.00  0.00    +0.000 OA
ATOM     28  C   UNL     1     133.323 149.635 147.708  0.00  0.00    +0.000 C 
ATOM     29  C   UNL     1     132.108 150.211 148.435  0.00  0.00    +0.000 C 
ATOM     30  C   UNL     1     133.381 150.125 146.261  0.00  0.00    +0.000 C 
ATOM     31  C   UNL     1     130.838 149.935 147.623  0.00  0.00    +0.000 C 
ATOM     32  C   UNL     1     132.037 149.906 145.561  0.00  0.00    +0.000 C 
BRANCH  28  33
ATOM     33  O   UNL     1     134.522 150.012 148.379  0.00  0.00    +0.000 OA
ATOM     34  H   UNL     1     134.332 150.020 149.332  0.00  0.00    +0.000 HD
ENDBRANCH  28  33
BRANCH  29  35
ATOM     35  O   UNL     1     132.266 151.624 148.586  0.00  0.00    +0.000 OA
ATOM     36  H   UNL     1     132.982 151.768 149.228  0.00  0.00    +0.000 HD
ENDBRANCH  29  35
BRANCH  30  37
ATOM     37  O   UNL     1     134.384 149.393 145.557  0.00  0.00    +0.000 OA
ATOM     38  H   UNL     1     134.657 148.658 146.133  0.00  0.00    +0.000 HD
ENDBRANCH  30  37
BRANCH  31  39
ATOM     39  C   UNL     1     129.598 150.558 148.255  0.00  0.00    +0.000 C 
BRANCH  39  40
ATOM     40  O   UNL     1     129.372 151.821 147.658  0.00  0.00    +0.000 OA
ATOM     41  H   UNL     1     128.490 152.124 147.935  0.00  0.00    +0.000 HD
ENDBRANCH  39  40
ENDBRANCH  31  39
ENDBRANCH  26  32
ENDBRANCH   3  26
TORSDOF 12
ENDMDL
MODEL 8
REMARK VINA RESULT:    -8.335     28.625     32.337
REMARK INTER + INTRA:         -13.443
REMARK INTER:                 -11.848
REMARK INTRA:                  -1.595
REMARK UNBOUND:                -1.210
REMARK  Name = 5281643
REMARK  12 active torsions:
REMARK  status: ('A' for Active; 'I' for Inactive)
REMARK    1  A    between atoms: O_2  and  C_17
REMARK    2  A    between atoms: O_2  and  C_19
REMARK    3  A    between atoms: O_3  and  C_13
REMARK    4  A    between atoms: O_4  and  C_14
REMARK    5  A    between atoms: O_5  and  C_15
REMARK    6  A    between atoms: O_6  and  C_18
REMARK    7  A    between atoms: O_9  and  C_25
REMARK    8  A    between atoms: O_10  and  C_30
REMARK    9  A    between atoms: O_11  and  C_31
REMARK   10  A    between atoms: O_12  and  C_33
REMARK   11  A    between atoms: C_16  and  C_18
REMARK   12  A    between atoms: C_20  and  C_24
REMARK                            x       y       z     vdW  Elec       q    Type
REMARK                         _______ _______ _______ _____ _____    ______ ____
ROOT
ATOM      1  O   UNL     1     126.531 153.703 145.764  0.00  0.00    +0.000 OA
ATOM      2  O   UNL     1     126.896 149.657 145.459  0.00  0.00    +0.000 OA
ATOM      3  C   UNL     1     127.302 151.787 144.508  0.00  0.00    +0.000 A 
ATOM      4  C   UNL     1     127.143 153.113 144.670  0.00  0.00    +0.000 A 
ATOM      5  C   UNL     1     126.780 150.872 145.552  0.00  0.00    +0.000 A 
ATOM      6  C   UNL     1     126.119 151.504 146.703  0.00  0.00    +0.000 A 
ATOM      7  C   UNL     1     126.028 152.893 146.749  0.00  0.00    +0.000 A 
ATOM      8  C   UNL     1     125.590 150.728 147.737  0.00  0.00    +0.000 A 
ATOM      9  C   UNL     1     125.409 153.517 147.832  0.00  0.00    +0.000 A 
ATOM     10  C   UNL     1     124.970 151.354 148.819  0.00  0.00    +0.000 A 
ATOM     11  C   UNL     1     124.879 152.745 148.867  0.00  0.00    +0.000 A 
ENDROOT
BRANCH   4  12
ATOM     12  C   UNL     1     127.638 154.096 143.689  0.00  0.00    +0.000 A 
ATOM     13  C   UNL     1     129.001 154.393 143.627  0.00  0.00    +0.000 A 
ATOM     14  C   UNL     1     126.747 154.728 142.822  0.00  0.00    +0.000 A 
ATOM     15  C   UNL     1     129.470 155.321 142.698  0.00  0.00    +0.000 A 
ATOM     16  C   UNL     1     127.216 155.656 141.893  0.00  0.00    +0.000 A 
ATOM     17  C   UNL     1     128.578 155.953 141.831  0.00  0.00    +0.000 A 
BRANCH  15  18
ATOM     18  O   UNL     1     130.802 155.604 142.647  0.00  0.00    +0.000 OA
ATOM     19  H   UNL     1     131.198 155.369 143.504  0.00  0.00    +0.000 HD
ENDBRANCH  15  18
BRANCH  17  20
ATOM     20  O   UNL     1     129.024 156.861 140.919  0.00  0.00    +0.000 OA
ATOM     21  H   UNL     1     128.521 157.688 141.023  0.00  0.00    +0.000 HD
ENDBRANCH  17  20
ENDBRANCH   4  12
BRANCH   8  22
ATOM     22  O   UNL     1     125.652 149.368 147.741  0.00  0.00    +0.000 OA
ATOM     23  H   UNL     1     125.210 149.007 148.525  0.00  0.00    +0.000 HD
ENDBRANCH   8  22
BRANCH  11  24
ATOM     24  O   UNL     1     124.276 153.351 149.926  0.00  0.00    +0.000 OA
ATOM     25  H   UNL     1     124.913 153.949 150.352  0.00  0.00    +0.000 HD
ENDBRANCH  11  24
BRANCH   3  26
ATOM     26  O   UNL     1     127.946 151.233 143.423  0.00  0.00    +0.000 OA
BRANCH  26  32
ATOM     27  O   UNL     1     130.245 151.612 143.578  0.00  0.00    +0.000 OA
ATOM     28  C   UNL     1     130.811 148.830 143.170  0.00  0.00    +0.000 C 
ATOM     29  C   UNL     1     131.885 149.909 143.025  0.00  0.00    +0.000 C 
ATOM     30  C   UNL     1     129.416 149.409 142.940  0.00  0.00    +0.000 C 
ATOM     31  C   UNL     1     131.542 151.106 143.917  0.00  0.00    +0.000 C 
ATOM     32  C   UNL     1     129.201 150.662 143.792  0.00  0.00    +0.000 C 
BRANCH  28  33
ATOM     33  O   UNL     1     131.042 147.778 142.238  0.00  0.00    +0.000 OA
ATOM     34  H   UNL     1     130.295 147.770 141.617  0.00  0.00    +0.000 HD
ENDBRANCH  28  33
BRANCH  29  35
ATOM     35  O   UNL     1     131.944 150.344 141.664  0.00  0.00    +0.000 OA
ATOM     36  H   UNL     1     131.034 150.355 141.323  0.00  0.00    +0.000 HD
ENDBRANCH  29  35
BRANCH  30  37
ATOM     37  O   UNL     1     128.437 148.437 143.307  0.00  0.00    +0.000 OA
ATOM     38  H   UNL     1     128.237 148.577 144.249  0.00  0.00    +0.000 HD
ENDBRANCH  30  37
BRANCH  31  39
ATOM     39  C   UNL     1     132.533 152.254 143.755  0.00  0.00    +0.000 C 
BRANCH  39  40
ATOM     40  O   UNL     1     132.147 153.030 142.636  0.00  0.00    +0.000 OA
ATOM     41  H   UNL     1     131.528 152.497 142.108  0.00  0.00    +0.000 HD
ENDBRANCH  39  40
ENDBRANCH  31  39
ENDBRANCH  26  32
ENDBRANCH   3  26
TORSDOF 12
ENDMDL
MODEL 9
REMARK VINA RESULT:    -8.308     23.535     26.733
REMARK INTER + INTRA:         -13.404
REMARK INTER:                 -12.172
REMARK INTRA:                  -1.232
REMARK UNBOUND:                -1.210
REMARK  Name = 5281643
REMARK  12 active torsions:
REMARK  status: ('A' for Active; 'I' for Inactive)
REMARK    1  A    between atoms: O_2  and  C_17
REMARK    2  A    between atoms: O_2  and  C_19
REMARK    3  A    between atoms: O_3  and  C_13
REMARK    4  A    between atoms: O_4  and  C_14
REMARK    5  A    between atoms: O_5  and  C_15
REMARK    6  A    between atoms: O_6  and  C_18
REMARK    7  A    between atoms: O_9  and  C_25
REMARK    8  A    between atoms: O_10  and  C_30
REMARK    9  A    between atoms: O_11  and  C_31
REMARK   10  A    between atoms: O_12  and  C_33
REMARK   11  A    between atoms: C_16  and  C_18
REMARK   12  A    between atoms: C_20  and  C_24
REMARK                            x       y       z     vdW  Elec       q    Type
REMARK                         _______ _______ _______ _____ _____    ______ ____
ROOT
ATOM      1  O   UNL     1     125.303 150.181 148.174  0.00  0.00    +0.000 OA
ATOM      2  O   UNL     1     122.946 147.100 146.929  0.00  0.00    +0.000 OA
ATOM      3  C   UNL     1     123.905 149.213 146.456  0.00  0.00    +0.000 A 
ATOM      4  C   UNL     1     124.689 150.197 146.932  0.00  0.00    +0.000 A 
ATOM      5  C   UNL     1     123.651 148.025 147.308  0.00  0.00    +0.000 A 
ATOM      6  C   UNL     1     124.294 148.022 148.631  0.00  0.00    +0.000 A 
ATOM      7  C   UNL     1     125.090 149.105 148.996  0.00  0.00    +0.000 A 
ATOM      8  C   UNL     1     124.114 146.951 149.510  0.00  0.00    +0.000 A 
ATOM      9  C   UNL     1     125.713 149.123 150.244  0.00  0.00    +0.000 A 
ATOM     10  C   UNL     1     124.738 146.972 150.757  0.00  0.00    +0.000 A 
ATOM     11  C   UNL     1     125.536 148.056 151.124  0.00  0.00    +0.000 A 
ENDROOT
BRANCH   4  12
ATOM     12  C   UNL     1     125.002 151.407 146.151  0.00  0.00    +0.000 A 
ATOM     13  C   UNL     1     125.952 151.352 145.130  0.00  0.00    +0.000 A 
ATOM     14  C   UNL     1     124.348 152.608 146.431  0.00  0.00    +0.000 A 
ATOM     15  C   UNL     1     126.248 152.497 144.390  0.00  0.00    +0.000 A 
ATOM     16  C   UNL     1     124.644 153.752 145.691  0.00  0.00    +0.000 A 
ATOM     17  C   UNL     1     125.594 153.697 144.671  0.00  0.00    +0.000 A 
BRANCH  15  18
ATOM     18  O   UNL     1     127.178 152.431 143.397  0.00  0.00    +0.000 OA
ATOM     19  H   UNL     1     127.708 153.247 143.420  0.00  0.00    +0.000 HD
ENDBRANCH  15  18
BRANCH  17  20
ATOM     20  O   UNL     1     125.874 154.821 143.955  0.00  0.00    +0.000 OA
ATOM     21  H   UNL     1     126.162 155.522 144.565  0.00  0.00    +0.000 HD
ENDBRANCH  17  20
ENDBRANCH   4  12
BRANCH   8  22
ATOM     22  O   UNL     1     123.347 145.868 149.201  0.00  0.00    +0.000 OA
ATOM     23  H   UNL     1     122.630 145.763 149.845  0.00  0.00    +0.000 HD
ENDBRANCH   8  22
BRANCH  11  24
ATOM     24  O   UNL     1     126.145 148.070 152.341  0.00  0.00    +0.000 OA
ATOM     25  H   UNL     1     125.876 147.279 152.838  0.00  0.00    +0.000 HD
ENDBRANCH  11  24
BRANCH   3  26
ATOM     26  O   UNL     1     123.335 149.244 145.202  0.00  0.00    +0.000 OA
BRANCH  26  32
ATOM     27  O   UNL     1     121.097 149.509 145.815  0.00  0.00    +0.000 OA
ATOM     28  C   UNL     1     120.598 151.211 143.562  0.00  0.00    +0.000 C 
ATOM     29  C   UNL     1     119.466 150.567 144.361  0.00  0.00    +0.000 C 
ATOM     30  C   UNL     1     121.890 150.404 143.689  0.00  0.00    +0.000 C 
ATOM     31  C   UNL     1     119.920 150.326 145.804  0.00  0.00    +0.000 C 
ATOM     32  C   UNL     1     122.208 150.120 145.159  0.00  0.00    +0.000 C 
BRANCH  28  33
ATOM     33  O   UNL     1     120.238 151.305 142.186  0.00  0.00    +0.000 OA
ATOM     34  H   UNL     1     120.827 150.713 141.690  0.00  0.00    +0.000 HD
ENDBRANCH  28  33
BRANCH  29  35
ATOM     35  O   UNL     1     119.114 149.314 143.768  0.00  0.00    +0.000 OA
ATOM     36  H   UNL     1     118.220 149.089 144.075  0.00  0.00    +0.000 HD
ENDBRANCH  29  35
BRANCH  30  37
ATOM     37  O   UNL     1     122.968 151.151 143.128  0.00  0.00    +0.000 OA
ATOM     38  H   UNL     1     123.243 151.802 143.796  0.00  0.00    +0.000 HD
ENDBRANCH  30  37
BRANCH  31  39
ATOM     39  C   UNL     1     118.862 149.608 146.635  0.00  0.00    +0.000 C 
BRANCH  39  40
ATOM     40  O   UNL     1     117.582 149.991 146.164  0.00  0.00    +0.000 OA
ATOM     41  H   UNL     1     117.541 149.774 145.216  0.00  0.00    +0.000 HD
ENDBRANCH  39  40
ENDBRANCH  31  39
ENDBRANCH  26  32
ENDBRANCH   3  26
TORSDOF 12
ENDMDL
MODEL 10
REMARK VINA RESULT:    -8.301     25.138     27.302
REMARK INTER + INTRA:         -13.392
REMARK INTER:                 -11.727
REMARK INTRA:                  -1.666
REMARK UNBOUND:                -1.210
REMARK  Name = 5281643
REMARK  12 active torsions:
REMARK  status: ('A' for Active; 'I' for Inactive)
REMARK    1  A    between atoms: O_2  and  C_17
REMARK    2  A    between atoms: O_2  and  C_19
REMARK    3  A    between atoms: O_3  and  C_13
REMARK    4  A    between atoms: O_4  and  C_14
REMARK    5  A    between atoms: O_5  and  C_15
REMARK    6  A    between atoms: O_6  and  C_18
REMARK    7  A    between atoms: O_9  and  C_25
REMARK    8  A    between atoms: O_10  and  C_30
REMARK    9  A    between atoms: O_11  and  C_31
REMARK   10  A    between atoms: O_12  and  C_33
REMARK   11  A    between atoms: C_16  and  C_18
REMARK   12  A    between atoms: C_20  and  C_24
REMARK                            x       y       z     vdW  Elec       q    Type
REMARK                         _______ _______ _______ _____ _____    ______ ____
ROOT
ATOM      1  O   UNL     1     121.707 151.659 144.625  0.00  0.00    +0.000 OA
ATOM      2  O   UNL     1     121.630 147.608 145.056  0.00  0.00    +0.000 OA
ATOM      3  C   UNL     1     122.841 149.629 145.289  0.00  0.00    +0.000 A 
ATOM      4  C   UNL     1     122.801 150.963 145.115  0.00  0.00    +0.000 A 
ATOM      5  C   UNL     1     121.651 148.824 144.921  0.00  0.00    +0.000 A 
ATOM      6  C   UNL     1     120.500 149.567 144.387  0.00  0.00    +0.000 A 
ATOM      7  C   UNL     1     120.588 150.952 144.267  0.00  0.00    +0.000 A 
ATOM      8  C   UNL     1     119.332 148.900 144.008  0.00  0.00    +0.000 A 
ATOM      9  C   UNL     1     119.509 151.680 143.766  0.00  0.00    +0.000 A 
ATOM     10  C   UNL     1     118.254 149.630 143.507  0.00  0.00    +0.000 A 
ATOM     11  C   UNL     1     118.342 151.017 143.386  0.00  0.00    +0.000 A 
ENDROOT
BRANCH   4  12
ATOM     12  C   UNL     1     123.933 151.840 145.462  0.00  0.00    +0.000 A 
ATOM     13  C   UNL     1     124.015 152.402 146.737  0.00  0.00    +0.000 A 
ATOM     14  C   UNL     1     124.923 152.110 144.517  0.00  0.00    +0.000 A 
ATOM     15  C   UNL     1     125.087 153.231 147.066  0.00  0.00    +0.000 A 
ATOM     16  C   UNL     1     125.995 152.940 144.846  0.00  0.00    +0.000 A 
ATOM     17  C   UNL     1     126.077 153.501 146.120  0.00  0.00    +0.000 A 
BRANCH  15  18
ATOM     18  O   UNL     1     125.156 153.774 148.314  0.00  0.00    +0.000 OA
ATOM     19  H   UNL     1     124.883 153.097 148.958  0.00  0.00    +0.000 HD
ENDBRANCH  15  18
BRANCH  17  20
ATOM     20  O   UNL     1     127.128 154.309 146.430  0.00  0.00    +0.000 OA
ATOM     21  H   UNL     1     126.794 155.103 146.884  0.00  0.00    +0.000 HD
ENDBRANCH  17  20
ENDBRANCH   4  12
BRANCH   8  22
ATOM     22  O   UNL     1     119.194 147.549 144.107  0.00  0.00    +0.000 OA
ATOM     23  H   UNL     1     119.683 147.210 144.872  0.00  0.00    +0.000 HD
ENDBRANCH   8  22
BRANCH  11  24
ATOM     24  O   UNL     1     117.286 151.725 142.900  0.00  0.00    +0.000 OA
ATOM     25  H   UNL     1     117.542 152.660 142.820  0.00  0.00    +0.000 HD
ENDBRANCH  11  24
BRANCH   3  26
ATOM     26  O   UNL     1     123.933 148.970 145.810  0.00  0.00    +0.000 OA
BRANCH  26  32
ATOM     27  O   UNL     1     124.572 149.615 147.962  0.00  0.00    +0.000 OA
ATOM     28  C   UNL     1     124.192 146.953 148.958  0.00  0.00    +0.000 C 
ATOM     29  C   UNL     1     124.981 148.008 149.735  0.00  0.00    +0.000 C 
ATOM     30  C   UNL     1     124.192 147.259 147.461  0.00  0.00    +0.000 C 
ATOM     31  C   UNL     1     124.471 149.407 149.376  0.00  0.00    +0.000 C 
ATOM     32  C   UNL     1     123.772 148.708 147.204  0.00  0.00    +0.000 C 
BRANCH  28  33
ATOM     33  O   UNL     1     124.755 145.661 149.173  0.00  0.00    +0.000 OA
ATOM     34  H   UNL     1     124.179 145.194 149.802  0.00  0.00    +0.000 HD
ENDBRANCH  28  33
BRANCH  29  35
ATOM     35  O   UNL     1     126.367 147.915 149.393  0.00  0.00    +0.000 OA
ATOM     36  H   UNL     1     126.559 146.980 149.213  0.00  0.00    +0.000 HD
ENDBRANCH  29  35
BRANCH  30  37
ATOM     37  O   UNL     1     123.264 146.395 146.805  0.00  0.00    +0.000 OA
ATOM     38  H   UNL     1     122.839 146.915 146.102  0.00  0.00    +0.000 HD
ENDBRANCH  30  37
BRANCH  31  39
ATOM     39  C   UNL     1     125.274 150.510 150.056  0.00  0.00    +0.000 C 
BRANCH  39  40
ATOM     40  O   UNL     1     126.310 150.918 149.183  0.00  0.00    +0.000 OA
ATOM     41  H   UNL     1     126.126 150.536 148.308  0.00  0.00    +0.000 HD
ENDBRANCH  39  40
ENDBRANCH  31  39
ENDBRANCH  26  32
ENDBRANCH   3  26
TORSDOF 12
ENDMDL
