MODEL 1
REMARK VINA RESULT:     -10.8      0.000      0.000
REMARK  26 active torsions:
REMARK  status: ('A' for Active; 'I' for Inactive)
REMARK    1  A    between atoms: C_1  and  C_7 
REMARK    2  A    between atoms: C_4  and  O_9 
REMARK    3  A    between atoms: C_5  and  O_11 
REMARK    4  A    between atoms: C_6  and  O_10 
REMARK    5  A    between atoms: C_12  and  C_18 
REMARK    6  A    between atoms: C_15  and  O_76 
REMARK    7  A    between atoms: C_18  and  O_74 
REMARK    8  A    between atoms: C_21  and  O_25 
REMARK    9  A    between atoms: C_23  and  O_26 
REMARK   10  A    between atoms: C_30  and  O_35 
REMARK   11  A    between atoms: C_32  and  O_36 
REMARK   12  A    between atoms: O_36  and  C_67 
REMARK   13  A    between atoms: C_39  and  O_60 
REMARK   14  A    between atoms: C_41  and  O_58 
REMARK   15  A    between atoms: C_42  and  C_45 
REMARK   16  A    between atoms: C_43  and  O_59 
REMARK   17  A    between atoms: C_45  and  O_53 
REMARK   18  A    between atoms: C_47  and  O_53 
REMARK   19  A    between atoms: C_50  and  O_55 
REMARK   20  A    between atoms: C_51  and  C_54 
REMARK   21  A    between atoms: C_54  and  O_74 
REMARK   22  A    between atoms: C_64  and  O_69 
REMARK   23  A    between atoms: C_65  and  C_72 
REMARK   24  A    between atoms: C_66  and  O_70 
REMARK   25  A    between atoms: C_68  and  O_71 
REMARK   26  A    between atoms: C_72  and  O_73 
ROOT
HETATM    1  C   UNK     0      28.149  38.215  19.181  0.00  0.00     0.026 A 
HETATM    2  C   UNK     0      27.020  39.020  18.952  0.00  0.00     0.006 A 
HETATM    3  C   UNK     0      29.353  38.349  18.515  0.00  0.00     0.111 A 
HETATM    4  C   UNK     0      27.191  39.957  17.890  0.00  0.00     0.054 A 
HETATM    5  C   UNK     0      29.494  39.303  17.541  0.00  0.00     0.100 A 
HETATM    6  C   UNK     0      28.405  40.081  17.229  0.00  0.00     0.058 A 
HETATM    7  O   UNK     0      28.081  37.218  20.096  0.00  0.00     0.000 OA
HETATM    8  C   UNK     0      26.349  37.906  21.039  0.00  0.00     0.026 A 
HETATM    9  C   UNK     0      25.813  38.618  19.963  0.00  0.00     0.006 A 
HETATM   10  C   UNK     0      25.597  37.288  22.003  0.00  0.00     0.111 A 
HETATM   11  C   UNK     0      24.385  38.780  20.007  0.00  0.00     0.054 A 
HETATM   12  C   UNK     0      24.235  37.362  21.982  0.00  0.00     0.111 A 
HETATM   13  C   UNK     0      23.634  38.132  21.001  0.00  0.00     0.058 A 
HETATM   14  C   UNK     0      23.510  39.569  19.096  0.00  0.00     0.294 C 
HETATM   15  O   UNK     0      27.693  37.798  21.164  0.00  0.00     0.000 OA
HETATM   16  O   UNK     0      23.404  39.236  17.939  0.00  0.00    -0.259 OA
HETATM   17  C   UNK     0      22.547  43.103  18.975  0.00  0.00     0.302 C 
HETATM   18  C   UNK     0      23.136  41.747  18.663  0.00  0.00     0.219 C 
HETATM   19  O   UNK     0      23.165  44.099  18.072  0.00  0.00    -0.348 OA
HETATM   20  C   UNK     0      24.512  41.938  18.717  0.00  0.00     0.184 C 
HETATM   21  C   UNK     0      24.470  43.922  17.385  0.00  0.00     0.181 C 
HETATM   22  C   UNK     0      24.891  42.445  17.438  0.00  0.00     0.194 C 
HETATM   23  O   UNK     0      26.272  42.217  17.297  0.00  0.00    -0.307 OA
HETATM   24  O   UNK     0      22.810  40.700  19.554  0.00  0.00    -0.304 OA
HETATM   25  C   UNK     0      26.207  40.833  17.309  0.00  0.00     0.294 C 
HETATM   26  O   UNK     0      25.229  40.321  16.817  0.00  0.00    -0.259 OA
HETATM   27  H   UNK     0      28.884  36.625  20.258  0.00  0.00     0.000 HD
HETATM   28  H   UNK     0      28.090  37.282  21.939  0.00  0.00     0.000 HD
ENDROOT
BRANCH  21  29
HETATM   29  C   UNK     0      24.342  44.337  15.898  0.00  0.00     0.213 C 
BRANCH  29  30
HETATM   30  O   UNK     0      23.067  44.172  15.279  0.00  0.00    -0.315 OA
BRANCH  30  31
HETATM   31  C   UNK     0      22.918  43.265  14.269  0.00  0.00     0.293 C 
HETATM   32  O   UNK     0      23.569  42.246  14.295  0.00  0.00    -0.259 OA
BRANCH  31  33
HETATM   33  C   UNK     0      21.953  43.471  13.156  0.00  0.00     0.044 A 
HETATM   34  C   UNK     0      22.303  44.350  12.144  0.00  0.00     0.055 A 
HETATM   35  C   UNK     0      21.436  44.591  11.093  0.00  0.00     0.080 A 
HETATM   36  C   UNK     0      20.212  43.950  11.048  0.00  0.00     0.047 A 
HETATM   37  C   UNK     0      19.843  43.063  12.052  0.00  0.00     0.091 A 
HETATM   38  O   UNK     0      19.366  44.193  10.010  0.00  0.00     0.000 OA
HETATM   39  C   UNK     0      20.719  42.826  13.110  0.00  0.00     0.056 A 
HETATM   40  O   UNK     0      18.619  42.439  11.994  0.00  0.00    -0.306 OA
HETATM   41  C   UNK     0      17.756  42.698  10.962  0.00  0.00     0.121 A 
HETATM   42  O   UNK     0      18.074  43.507  10.121  0.00  0.00     0.000 OA
HETATM   43  H   UNK     0      18.468  43.729   9.971  0.00  0.00     0.000 HD
BRANCH  35  44
HETATM   44  O   UNK     0      21.782  45.462  10.106  0.00  0.00    -0.360 OA
HETATM   45  H   UNK     0      21.064  45.975   9.610  0.00  0.00     0.217 HD
ENDBRANCH  35  44
BRANCH  41  46
HETATM   46  C   UNK     0      16.452  42.023  10.828  0.00  0.00     0.006 A 
HETATM   47  C   UNK     0      16.112  41.459   9.608  0.00  0.00     0.054 A 
HETATM   48  C   UNK     0      14.899  40.805   9.453  0.00  0.00     0.102 A 
HETATM   49  C   UNK     0      14.023  40.718  10.521  0.00  0.00     0.132 A 
HETATM   50  C   UNK     0      14.357  41.284  11.743  0.00  0.00     0.102 A 
HETATM   51  C   UNK     0      15.574  41.935  11.898  0.00  0.00     0.054 A 
BRANCH  48  52
HETATM   52  O   UNK     0      14.572  40.251   8.256  0.00  0.00    -0.358 OA
HETATM   53  H   UNK     0      14.823  40.721   7.395  0.00  0.00     0.217 HD
ENDBRANCH  48  52
BRANCH  49  54
HETATM   54  O   UNK     0      12.834  40.075  10.370  0.00  0.00    -0.356 OA
HETATM   55  H   UNK     0      12.361  39.688  11.177  0.00  0.00     0.218 HD
ENDBRANCH  49  54
BRANCH  50  56
HETATM   56  O   UNK     0      13.493  41.198  12.790  0.00  0.00    -0.358 OA
HETATM   57  H   UNK     0      13.058  42.034  13.157  0.00  0.00     0.217 HD
ENDBRANCH  50  56
ENDBRANCH  41  46
ENDBRANCH  31  33
ENDBRANCH  30  31
ENDBRANCH  29  30
ENDBRANCH  21  29
BRANCH  17  58
HETATM   58  O   UNK     0      21.143  43.078  18.781  0.00  0.00    -0.283 OA
BRANCH  58  59
HETATM   59  C   UNK     0      20.610  43.294  17.550  0.00  0.00     0.295 C 
HETATM   60  O   UNK     0      20.668  42.436  16.699  0.00  0.00    -0.259 OA
BRANCH  59  61
HETATM   61  C   UNK     0      19.966  44.583  17.259  0.00  0.00     0.045 A 
HETATM   62  C   UNK     0      19.988  45.087  15.968  0.00  0.00     0.057 A 
HETATM   63  C   UNK     0      19.377  46.298  15.684  0.00  0.00     0.102 A 
HETATM   64  C   UNK     0      18.747  47.008  16.693  0.00  0.00     0.132 A 
HETATM   65  C   UNK     0      18.725  46.504  17.985  0.00  0.00     0.102 A 
HETATM   66  C   UNK     0      19.332  45.290  18.269  0.00  0.00     0.057 A 
BRANCH  63  67
HETATM   67  O   UNK     0      19.396  46.788  14.415  0.00  0.00    -0.358 OA
HETATM   68  H   UNK     0      20.040  46.405  13.735  0.00  0.00     0.217 HD
ENDBRANCH  63  67
BRANCH  64  69
HETATM   69  O   UNK     0      18.152  48.200  16.418  0.00  0.00    -0.356 OA
HETATM   70  H   UNK     0      17.307  48.469  16.906  0.00  0.00     0.218 HD
ENDBRANCH  64  69
BRANCH  65  71
HETATM   71  O   UNK     0      18.105  47.200  18.974  0.00  0.00    -0.358 OA
HETATM   72  H   UNK     0      18.595  47.401  19.836  0.00  0.00     0.217 HD
ENDBRANCH  65  71
ENDBRANCH  59  61
ENDBRANCH  58  59
ENDBRANCH  17  58
BRANCH  20  73
HETATM   73  O   UNK     0      25.175  40.711  18.983  0.00  0.00    -0.390 OA
HETATM   74  H   UNK     0      25.042  39.920  18.366  0.00  0.00     0.210 HD
ENDBRANCH  20  73
BRANCH   5  75
HETATM   75  O   UNK     0      30.675  39.458  16.886  0.00  0.00    -0.358 OA
HETATM   76  H   UNK     0      30.868  40.318  16.389  0.00  0.00     0.217 HD
ENDBRANCH   5  75
BRANCH   3  77
HETATM   77  O   UNK     0      30.396  37.535  18.824  0.00  0.00    -0.357 OA
HETATM   78  H   UNK     0      31.151  37.407  18.163  0.00  0.00     0.217 HD
ENDBRANCH   3  77
BRANCH  12  79
HETATM   79  O   UNK     0      23.641  36.622  22.970  0.00  0.00    -0.304 OA
BRANCH  79  80
HETATM   80  C   UNK     0      22.636  35.758  23.301  0.00  0.00     0.129 A 
HETATM   81  C   UNK     0      22.667  34.378  23.150  0.00  0.00     0.077 A 
HETATM   82  C   UNK     0      21.552  33.625  23.498  0.00  0.00     0.060 A 
HETATM   83  C   UNK     0      20.412  34.237  23.997  0.00  0.00     0.102 A 
HETATM   84  C   UNK     0      20.386  35.611  24.157  0.00  0.00     0.135 A 
HETATM   85  C   UNK     0      21.494  36.361  23.811  0.00  0.00     0.137 A 
BRANCH  81  86
HETATM   86  C   UNK     0      23.854  33.693  22.632  0.00  0.00     0.179 C 
HETATM   87  O   UNK     0      23.751  32.893  21.731  0.00  0.00    -0.646 OA
BRANCH  86  88
HETATM   88  O   UNK     0      25.073  33.962  23.173  0.00  0.00    -0.773 OA
HETATM   89  H   UNK     0      25.668  33.204  23.481  0.00  0.00     0.167 HD
ENDBRANCH  86  88
ENDBRANCH  81  86
BRANCH  83  90
HETATM   90  O   UNK     0      19.322  33.496  24.330  0.00  0.00    -0.358 OA
HETATM   91  H   UNK     0      18.869  33.638  25.223  0.00  0.00     0.217 HD
ENDBRANCH  83  90
BRANCH  84  92
HETATM   92  O   UNK     0      19.276  36.225  24.650  0.00  0.00    -0.356 OA
HETATM   93  H   UNK     0      18.952  37.090  24.236  0.00  0.00     0.218 HD
ENDBRANCH  84  92
BRANCH  85  94
HETATM   94  O   UNK     0      21.465  37.711  23.971  0.00  0.00    -0.356 OA
HETATM   95  H   UNK     0      22.047  38.151  24.674  0.00  0.00     0.218 HD
ENDBRANCH  85  94
ENDBRANCH  79  80
ENDBRANCH  12  79
BRANCH  10  96
HETATM   96  O   UNK     0      26.211  36.576  22.985  0.00  0.00    -0.357 OA
HETATM   97  H   UNK     0      27.222  36.527  23.020  0.00  0.00     0.217 HD
ENDBRANCH  10  96
TORSDOF 26
ENDMDL
MODEL 2
REMARK VINA RESULT:     -10.8      0.523      1.512
REMARK  26 active torsions:
REMARK  status: ('A' for Active; 'I' for Inactive)
REMARK    1  A    between atoms: C_1  and  C_7 
REMARK    2  A    between atoms: C_4  and  O_9 
REMARK    3  A    between atoms: C_5  and  O_11 
REMARK    4  A    between atoms: C_6  and  O_10 
REMARK    5  A    between atoms: C_12  and  C_18 
REMARK    6  A    between atoms: C_15  and  O_76 
REMARK    7  A    between atoms: C_18  and  O_74 
REMARK    8  A    between atoms: C_21  and  O_25 
REMARK    9  A    between atoms: C_23  and  O_26 
REMARK   10  A    between atoms: C_30  and  O_35 
REMARK   11  A    between atoms: C_32  and  O_36 
REMARK   12  A    between atoms: O_36  and  C_67 
REMARK   13  A    between atoms: C_39  and  O_60 
REMARK   14  A    between atoms: C_41  and  O_58 
REMARK   15  A    between atoms: C_42  and  C_45 
REMARK   16  A    between atoms: C_43  and  O_59 
REMARK   17  A    between atoms: C_45  and  O_53 
REMARK   18  A    between atoms: C_47  and  O_53 
REMARK   19  A    between atoms: C_50  and  O_55 
REMARK   20  A    between atoms: C_51  and  C_54 
REMARK   21  A    between atoms: C_54  and  O_74 
REMARK   22  A    between atoms: C_64  and  O_69 
REMARK   23  A    between atoms: C_65  and  C_72 
REMARK   24  A    between atoms: C_66  and  O_70 
REMARK   25  A    between atoms: C_68  and  O_71 
REMARK   26  A    between atoms: C_72  and  O_73 
ROOT
HETATM    1  C   UNK     0      27.917  38.111  19.399  0.00  0.00     0.026 A 
HETATM    2  C   UNK     0      26.795  38.917  19.140  0.00  0.00     0.006 A 
HETATM    3  C   UNK     0      29.141  38.250  18.774  0.00  0.00     0.111 A 
HETATM    4  C   UNK     0      27.000  39.860  18.090  0.00  0.00     0.054 A 
HETATM    5  C   UNK     0      29.313  39.211  17.811  0.00  0.00     0.100 A 
HETATM    6  C   UNK     0      28.234  39.990  17.470  0.00  0.00     0.058 A 
HETATM    7  O   UNK     0      27.820  37.107  20.304  0.00  0.00     0.000 OA
HETATM    8  C   UNK     0      26.058  37.788  21.196  0.00  0.00     0.026 A 
HETATM    9  C   UNK     0      25.556  38.506  20.108  0.00  0.00     0.006 A 
HETATM   10  C   UNK     0      25.276  37.163  22.131  0.00  0.00     0.111 A 
HETATM   11  C   UNK     0      24.128  38.668  20.107  0.00  0.00     0.054 A 
HETATM   12  C   UNK     0      23.916  37.235  22.067  0.00  0.00     0.111 A 
HETATM   13  C   UNK     0      23.345  38.012  21.072  0.00  0.00     0.058 A 
HETATM   14  C   UNK     0      23.281  39.462  19.174  0.00  0.00     0.294 C 
HETATM   15  O   UNK     0      27.398  37.680  21.364  0.00  0.00     0.000 OA
HETATM   16  O   UNK     0      23.213  39.137  18.012  0.00  0.00    -0.259 OA
HETATM   17  C   UNK     0      22.320  42.997  19.046  0.00  0.00     0.302 C 
HETATM   18  C   UNK     0      22.920  41.643  18.744  0.00  0.00     0.219 C 
HETATM   19  O   UNK     0      22.967  43.999  18.170  0.00  0.00    -0.348 OA
HETATM   20  C   UNK     0      24.294  41.834  18.844  0.00  0.00     0.184 C 
HETATM   21  C   UNK     0      24.293  43.827  17.525  0.00  0.00     0.181 C 
HETATM   22  C   UNK     0      24.713  42.351  17.581  0.00  0.00     0.194 C 
HETATM   23  O   UNK     0      26.098  42.124  17.483  0.00  0.00    -0.307 OA
HETATM   24  O   UNK     0      22.566  40.589  19.617  0.00  0.00    -0.304 OA
HETATM   25  C   UNK     0      26.034  40.740  17.484  0.00  0.00     0.294 C 
HETATM   26  O   UNK     0      25.073  40.232  16.957  0.00  0.00    -0.259 OA
HETATM   27  H   UNK     0      28.618  36.513  20.489  0.00  0.00     0.000 HD
HETATM   28  H   UNK     0      27.770  37.158  22.147  0.00  0.00     0.000 HD
ENDROOT
BRANCH  21  29
HETATM   29  C   UNK     0      24.213  44.253  16.038  0.00  0.00     0.213 C 
BRANCH  29  30
HETATM   30  O   UNK     0      22.955  44.100  15.379  0.00  0.00    -0.315 OA
BRANCH  30  31
HETATM   31  C   UNK     0      22.832  43.201  14.359  0.00  0.00     0.293 C 
HETATM   32  O   UNK     0      23.473  42.176  14.399  0.00  0.00    -0.259 OA
BRANCH  31  33
HETATM   33  C   UNK     0      21.905  43.422  13.218  0.00  0.00     0.044 A 
HETATM   34  C   UNK     0      22.301  44.292  12.215  0.00  0.00     0.055 A 
HETATM   35  C   UNK     0      21.470  44.547  11.137  0.00  0.00     0.080 A 
HETATM   36  C   UNK     0      20.237  43.928  11.057  0.00  0.00     0.047 A 
HETATM   37  C   UNK     0      19.821  43.051  12.051  0.00  0.00     0.091 A 
HETATM   38  O   UNK     0      19.427  44.185   9.994  0.00  0.00     0.000 OA
HETATM   39  C   UNK     0      20.661  42.800  13.135  0.00  0.00     0.056 A 
HETATM   40  O   UNK     0      18.589  42.449  11.958  0.00  0.00    -0.306 OA
HETATM   41  C   UNK     0      17.762  42.722  10.899  0.00  0.00     0.121 A 
HETATM   42  O   UNK     0      18.120  43.522  10.067  0.00  0.00     0.000 OA
HETATM   43  H   UNK     0      18.522  43.737   9.928  0.00  0.00     0.000 HD
BRANCH  35  44
HETATM   44  O   UNK     0      21.862  45.408  10.160  0.00  0.00    -0.360 OA
HETATM   45  H   UNK     0      22.536  45.112   9.465  0.00  0.00     0.217 HD
ENDBRANCH  35  44
BRANCH  41  46
HETATM   46  C   UNK     0      16.450  42.070  10.727  0.00  0.00     0.006 A 
HETATM   47  C   UNK     0      16.031  41.736   9.448  0.00  0.00     0.054 A 
HETATM   48  C   UNK     0      14.809  41.111   9.254  0.00  0.00     0.102 A 
HETATM   49  C   UNK     0      14.003  40.821  10.342  0.00  0.00     0.132 A 
HETATM   50  C   UNK     0      14.417  41.157  11.623  0.00  0.00     0.102 A 
HETATM   51  C   UNK     0      15.643  41.780  11.817  0.00  0.00     0.054 A 
BRANCH  48  52
HETATM   52  O   UNK     0      14.404  40.783   7.999  0.00  0.00    -0.358 OA
HETATM   53  H   UNK     0      14.067  41.502   7.371  0.00  0.00     0.217 HD
ENDBRANCH  48  52
BRANCH  49  54
HETATM   54  O   UNK     0      12.805  40.206  10.152  0.00  0.00    -0.356 OA
HETATM   55  H   UNK     0      12.456  40.056   9.213  0.00  0.00     0.218 HD
ENDBRANCH  49  54
BRANCH  50  56
HETATM   56  O   UNK     0      13.622  40.872  12.690  0.00  0.00    -0.358 OA
HETATM   57  H   UNK     0      14.033  40.553  13.557  0.00  0.00     0.217 HD
ENDBRANCH  50  56
ENDBRANCH  41  46
ENDBRANCH  31  33
ENDBRANCH  30  31
ENDBRANCH  29  30
ENDBRANCH  21  29
BRANCH  17  58
HETATM   58  O   UNK     0      20.924  42.972  18.807  0.00  0.00    -0.283 OA
BRANCH  58  59
HETATM   59  C   UNK     0      20.428  43.232  17.569  0.00  0.00     0.295 C 
HETATM   60  O   UNK     0      20.464  42.385  16.706  0.00  0.00    -0.259 OA
BRANCH  59  61
HETATM   61  C   UNK     0      19.853  44.555  17.285  0.00  0.00     0.045 A 
HETATM   62  C   UNK     0      19.945  45.085  16.008  0.00  0.00     0.057 A 
HETATM   63  C   UNK     0      19.399  46.328  15.730  0.00  0.00     0.102 A 
HETATM   64  C   UNK     0      18.764  47.044  16.733  0.00  0.00     0.132 A 
HETATM   65  C   UNK     0      18.671  46.513  18.011  0.00  0.00     0.102 A 
HETATM   66  C   UNK     0      19.214  45.268  18.288  0.00  0.00     0.057 A 
BRANCH  63  67
HETATM   67  O   UNK     0      19.486  46.844  14.475  0.00  0.00    -0.358 OA
HETATM   68  H   UNK     0      18.662  47.224  14.026  0.00  0.00     0.217 HD
ENDBRANCH  63  67
BRANCH  64  69
HETATM   69  O   UNK     0      18.232  48.267  16.464  0.00  0.00    -0.356 OA
HETATM   70  H   UNK     0      17.273  48.469  16.718  0.00  0.00     0.218 HD
ENDBRANCH  64  69
BRANCH  65  71
HETATM   71  O   UNK     0      18.047  47.215  18.993  0.00  0.00    -0.358 OA
HETATM   72  H   UNK     0      18.520  47.390  19.870  0.00  0.00     0.217 HD
ENDBRANCH  65  71
ENDBRANCH  59  61
ENDBRANCH  58  59
ENDBRANCH  17  58
BRANCH  20  73
HETATM   73  O   UNK     0      24.949  40.606  19.122  0.00  0.00    -0.390 OA
HETATM   74  H   UNK     0      24.446  39.732  19.034  0.00  0.00     0.210 HD
ENDBRANCH  20  73
BRANCH   5  75
HETATM   75  O   UNK     0      30.515  39.371  17.196  0.00  0.00    -0.358 OA
HETATM   76  H   UNK     0      30.828  38.693  16.514  0.00  0.00     0.217 HD
ENDBRANCH   5  75
BRANCH   3  77
HETATM   77  O   UNK     0      30.175  37.435  19.111  0.00  0.00    -0.357 OA
HETATM   78  H   UNK     0      30.680  37.589  19.973  0.00  0.00     0.217 HD
ENDBRANCH   3  77
BRANCH  12  79
HETATM   79  O   UNK     0      23.291  36.489  23.030  0.00  0.00    -0.304 OA
BRANCH  79  80
HETATM   80  C   UNK     0      22.267  35.633  23.325  0.00  0.00     0.129 A 
HETATM   81  C   UNK     0      20.983  36.000  23.703  0.00  0.00     0.077 A 
HETATM   82  C   UNK     0      20.050  35.016  24.008  0.00  0.00     0.060 A 
HETATM   83  C   UNK     0      20.389  33.673  23.935  0.00  0.00     0.102 A 
HETATM   84  C   UNK     0      21.665  33.308  23.547  0.00  0.00     0.135 A 
HETATM   85  C   UNK     0      22.593  34.285  23.244  0.00  0.00     0.137 A 
BRANCH  81  86
HETATM   86  C   UNK     0      20.584  37.407  23.787  0.00  0.00     0.179 C 
HETATM   87  O   UNK     0      19.718  37.840  23.063  0.00  0.00    -0.646 OA
BRANCH  86  88
HETATM   88  O   UNK     0      21.198  38.224  24.686  0.00  0.00    -0.773 OA
HETATM   89  H   UNK     0      21.961  38.819  24.390  0.00  0.00     0.167 HD
ENDBRANCH  86  88
ENDBRANCH  81  86
BRANCH  83  90
HETATM   90  O   UNK     0      19.473  32.714  24.241  0.00  0.00    -0.358 OA
HETATM   91  H   UNK     0      19.122  32.103  23.516  0.00  0.00     0.217 HD
ENDBRANCH  83  90
BRANCH  84  92
HETATM   92  O   UNK     0      22.010  31.994  23.467  0.00  0.00    -0.356 OA
HETATM   93  H   UNK     0      21.484  31.301  23.984  0.00  0.00     0.218 HD
ENDBRANCH  84  92
BRANCH  85  94
HETATM   94  O   UNK     0      23.848  33.923  22.862  0.00  0.00    -0.356 OA
HETATM   95  H   UNK     0      24.534  34.633  22.638  0.00  0.00     0.218 HD
ENDBRANCH  85  94
ENDBRANCH  79  80
ENDBRANCH  12  79
BRANCH  10  96
HETATM   96  O   UNK     0      25.859  36.444  23.127  0.00  0.00    -0.357 OA
HETATM   97  H   UNK     0      25.493  35.534  23.376  0.00  0.00     0.217 HD
ENDBRANCH  10  96
TORSDOF 26
ENDMDL
MODEL 3
REMARK VINA RESULT:     -10.7      3.793     10.295
REMARK  26 active torsions:
REMARK  status: ('A' for Active; 'I' for Inactive)
REMARK    1  A    between atoms: C_1  and  C_7 
REMARK    2  A    between atoms: C_4  and  O_9 
REMARK    3  A    between atoms: C_5  and  O_11 
REMARK    4  A    between atoms: C_6  and  O_10 
REMARK    5  A    between atoms: C_12  and  C_18 
REMARK    6  A    between atoms: C_15  and  O_76 
REMARK    7  A    between atoms: C_18  and  O_74 
REMARK    8  A    between atoms: C_21  and  O_25 
REMARK    9  A    between atoms: C_23  and  O_26 
REMARK   10  A    between atoms: C_30  and  O_35 
REMARK   11  A    between atoms: C_32  and  O_36 
REMARK   12  A    between atoms: O_36  and  C_67 
REMARK   13  A    between atoms: C_39  and  O_60 
REMARK   14  A    between atoms: C_41  and  O_58 
REMARK   15  A    between atoms: C_42  and  C_45 
REMARK   16  A    between atoms: C_43  and  O_59 
REMARK   17  A    between atoms: C_45  and  O_53 
REMARK   18  A    between atoms: C_47  and  O_53 
REMARK   19  A    between atoms: C_50  and  O_55 
REMARK   20  A    between atoms: C_51  and  C_54 
REMARK   21  A    between atoms: C_54  and  O_74 
REMARK   22  A    between atoms: C_64  and  O_69 
REMARK   23  A    between atoms: C_65  and  C_72 
REMARK   24  A    between atoms: C_66  and  O_70 
REMARK   25  A    between atoms: C_68  and  O_71 
REMARK   26  A    between atoms: C_72  and  O_73 
ROOT
HETATM    1  C   UNK     0      21.064  35.312  24.246  0.00  0.00     0.026 A 
HETATM    2  C   UNK     0      22.025  35.140  23.234  0.00  0.00     0.006 A 
HETATM    3  C   UNK     0      20.876  36.483  24.954  0.00  0.00     0.111 A 
HETATM    4  C   UNK     0      22.869  36.274  23.049  0.00  0.00     0.054 A 
HETATM    5  C   UNK     0      21.671  37.570  24.704  0.00  0.00     0.100 A 
HETATM    6  C   UNK     0      22.669  37.445  23.768  0.00  0.00     0.058 A 
HETATM    7  O   UNK     0      20.266  34.271  24.588  0.00  0.00     0.000 OA
HETATM    8  C   UNK     0      20.654  33.128  22.884  0.00  0.00     0.026 A 
HETATM    9  C   UNK     0      21.912  33.657  22.580  0.00  0.00     0.006 A 
HETATM   10  C   UNK     0      20.276  31.840  22.614  0.00  0.00     0.111 A 
HETATM   11  C   UNK     0      22.761  32.778  21.822  0.00  0.00     0.054 A 
HETATM   12  C   UNK     0      21.126  30.978  21.984  0.00  0.00     0.111 A 
HETATM   13  C   UNK     0      22.355  31.459  21.562  0.00  0.00     0.058 A 
HETATM   14  C   UNK     0      24.101  33.056  21.237  0.00  0.00     0.294 C 
HETATM   15  O   UNK     0      19.729  33.912  23.488  0.00  0.00     0.000 OA
HETATM   16  O   UNK     0      25.037  33.272  21.973  0.00  0.00    -0.259 OA
HETATM   17  C   UNK     0      25.205  34.611  18.107  0.00  0.00     0.302 C 
HETATM   18  C   UNK     0      24.931  34.314  19.563  0.00  0.00     0.219 C 
HETATM   19  O   UNK     0      25.661  36.014  17.996  0.00  0.00    -0.348 OA
HETATM   20  C   UNK     0      24.078  35.330  19.978  0.00  0.00     0.184 C 
HETATM   21  C   UNK     0      25.390  37.073  19.001  0.00  0.00     0.181 C 
HETATM   22  C   UNK     0      24.916  36.435  20.316  0.00  0.00     0.194 C 
HETATM   23  O   UNK     0      24.164  37.283  21.149  0.00  0.00    -0.307 OA
HETATM   24  O   UNK     0      24.301  33.080  19.845  0.00  0.00    -0.304 OA
HETATM   25  C   UNK     0      24.028  36.392  22.201  0.00  0.00     0.294 C 
HETATM   26  O   UNK     0      24.945  35.633  22.405  0.00  0.00    -0.259 OA
HETATM   27  H   UNK     0      19.581  34.381  25.324  0.00  0.00     0.000 HD
HETATM   28  H   UNK     0      18.818  33.536  23.715  0.00  0.00     0.000 HD
ENDROOT
BRANCH  21  29
HETATM   29  C   UNK     0      26.687  37.870  19.288  0.00  0.00     0.213 C 
BRANCH  29  30
HETATM   30  O   UNK     0      26.544  39.173  19.853  0.00  0.00    -0.315 OA
BRANCH  30  31
HETATM   31  C   UNK     0      25.999  40.177  19.107  0.00  0.00     0.293 C 
HETATM   32  O   UNK     0      26.659  40.679  18.226  0.00  0.00    -0.259 OA
BRANCH  31  33
HETATM   33  C   UNK     0      24.604  40.650  19.316  0.00  0.00     0.044 A 
HETATM   34  C   UNK     0      23.850  40.040  20.305  0.00  0.00     0.055 A 
HETATM   35  C   UNK     0      22.541  40.430  20.530  0.00  0.00     0.080 A 
HETATM   36  C   UNK     0      21.981  41.437  19.767  0.00  0.00     0.047 A 
HETATM   37  C   UNK     0      22.721  42.062  18.771  0.00  0.00     0.091 A 
HETATM   38  O   UNK     0      20.694  41.814  19.997  0.00  0.00     0.000 OA
HETATM   39  C   UNK     0      24.037  41.664  18.546  0.00  0.00     0.056 A 
HETATM   40  O   UNK     0      22.145  43.058  18.017  0.00  0.00    -0.306 OA
HETATM   41  C   UNK     0      20.842  43.425  18.232  0.00  0.00     0.121 A 
HETATM   42  O   UNK     0      20.199  42.839  19.071  0.00  0.00     0.000 OA
HETATM   43  H   UNK     0      20.275  42.549  19.441  0.00  0.00     0.000 HD
BRANCH  35  44
HETATM   44  O   UNK     0      21.803  39.822  21.498  0.00  0.00    -0.360 OA
HETATM   45  H   UNK     0      22.231  39.127  22.098  0.00  0.00     0.217 HD
ENDBRANCH  35  44
BRANCH  41  46
HETATM   46  C   UNK     0      20.191  44.516  17.482  0.00  0.00     0.006 A 
HETATM   47  C   UNK     0      19.480  45.478  18.184  0.00  0.00     0.054 A 
HETATM   48  C   UNK     0      18.866  46.523  17.511  0.00  0.00     0.102 A 
HETATM   49  C   UNK     0      18.964  46.606  16.132  0.00  0.00     0.132 A 
HETATM   50  C   UNK     0      19.671  45.643  15.427  0.00  0.00     0.102 A 
HETATM   51  C   UNK     0      20.288  44.598  16.101  0.00  0.00     0.054 A 
BRANCH  48  52
HETATM   52  O   UNK     0      18.174  47.465  18.203  0.00  0.00    -0.358 OA
HETATM   53  H   UNK     0      17.705  48.214  17.710  0.00  0.00     0.217 HD
ENDBRANCH  48  52
BRANCH  49  54
HETATM   54  O   UNK     0      18.364  47.633  15.472  0.00  0.00    -0.356 OA
HETATM   55  H   UNK     0      18.510  48.586  15.779  0.00  0.00     0.218 HD
ENDBRANCH  49  54
BRANCH  50  56
HETATM   56  O   UNK     0      19.763  45.726  14.072  0.00  0.00    -0.358 OA
HETATM   57  H   UNK     0      19.873  44.886  13.519  0.00  0.00     0.217 HD
ENDBRANCH  50  56
ENDBRANCH  41  46
ENDBRANCH  31  33
ENDBRANCH  30  31
ENDBRANCH  29  30
ENDBRANCH  21  29
BRANCH  17  58
HETATM   58  O   UNK     0      26.204  33.735  17.613  0.00  0.00    -0.283 OA
BRANCH  58  59
HETATM   59  C   UNK     0      27.371  33.566  18.287  0.00  0.00     0.295 C 
HETATM   60  O   UNK     0      28.183  34.463  18.337  0.00  0.00    -0.259 OA
BRANCH  59  61
HETATM   61  C   UNK     0      27.643  32.283  18.951  0.00  0.00     0.045 A 
HETATM   62  C   UNK     0      26.781  31.215  18.762  0.00  0.00     0.057 A 
HETATM   63  C   UNK     0      27.034  30.000  19.379  0.00  0.00     0.102 A 
HETATM   64  C   UNK     0      28.149  29.855  20.188  0.00  0.00     0.132 A 
HETATM   65  C   UNK     0      29.013  30.923  20.376  0.00  0.00     0.102 A 
HETATM   66  C   UNK     0      28.762  32.138  19.756  0.00  0.00     0.057 A 
BRANCH  63  67
HETATM   67  O   UNK     0      26.189  28.952  19.189  0.00  0.00    -0.358 OA
HETATM   68  H   UNK     0      26.512  28.122  18.707  0.00  0.00     0.217 HD
ENDBRANCH  63  67
BRANCH  64  69
HETATM   69  O   UNK     0      28.397  28.664  20.799  0.00  0.00    -0.356 OA
HETATM   70  H   UNK     0      28.016  27.809  20.414  0.00  0.00     0.218 HD
ENDBRANCH  64  69
BRANCH  65  71
HETATM   71  O   UNK     0      30.108  30.779  21.169  0.00  0.00    -0.358 OA
HETATM   72  H   UNK     0      30.632  29.915  21.156  0.00  0.00     0.217 HD
ENDBRANCH  65  71
ENDBRANCH  59  61
ENDBRANCH  58  59
ENDBRANCH  17  58
BRANCH  20  73
HETATM   73  O   UNK     0      23.320  34.917  21.105  0.00  0.00    -0.390 OA
HETATM   74  H   UNK     0      23.779  34.464  21.885  0.00  0.00     0.210 HD
ENDBRANCH  20  73
BRANCH   5  75
HETATM   75  O   UNK     0      21.490  38.735  25.381  0.00  0.00    -0.358 OA
HETATM   76  H   UNK     0      22.172  39.478  25.299  0.00  0.00     0.217 HD
ENDBRANCH   5  75
BRANCH   3  77
HETATM   77  O   UNK     0      19.903  36.557  25.901  0.00  0.00    -0.357 OA
HETATM   78  H   UNK     0      20.111  36.312  26.860  0.00  0.00     0.217 HD
ENDBRANCH   3  77
BRANCH  12  79
HETATM   79  O   UNK     0      20.619  29.712  21.866  0.00  0.00    -0.304 OA
BRANCH  79  80
HETATM   80  C   UNK     0      20.421  28.633  21.051  0.00  0.00     0.129 A 
HETATM   81  C   UNK     0      21.404  27.758  20.606  0.00  0.00     0.077 A 
HETATM   82  C   UNK     0      21.060  26.721  19.748  0.00  0.00     0.060 A 
HETATM   83  C   UNK     0      19.747  26.548  19.337  0.00  0.00     0.102 A 
HETATM   84  C   UNK     0      18.767  27.413  19.789  0.00  0.00     0.135 A 
HETATM   85  C   UNK     0      19.107  28.445  20.642  0.00  0.00     0.137 A 
BRANCH  81  86
HETATM   86  C   UNK     0      22.801  27.903  21.022  0.00  0.00     0.179 C 
HETATM   87  O   UNK     0      23.693  27.780  20.215  0.00  0.00    -0.646 OA
BRANCH  86  88
HETATM   88  O   UNK     0      23.087  28.176  22.324  0.00  0.00    -0.773 OA
HETATM   89  H   UNK     0      22.737  29.023  22.752  0.00  0.00     0.167 HD
ENDBRANCH  86  88
ENDBRANCH  81  86
BRANCH  83  90
HETATM   90  O   UNK     0      19.418  25.534  18.492  0.00  0.00    -0.358 OA
HETATM   91  H   UNK     0      19.439  25.683  17.492  0.00  0.00     0.217 HD
ENDBRANCH  83  90
BRANCH  84  92
HETATM   92  O   UNK     0      17.473  27.253  19.397  0.00  0.00    -0.356 OA
HETATM   93  H   UNK     0      17.056  27.912  18.753  0.00  0.00     0.218 HD
ENDBRANCH  84  92
BRANCH  85  94
HETATM   94  O   UNK     0      18.141  29.293  21.086  0.00  0.00    -0.356 OA
HETATM   95  H   UNK     0      17.218  29.270  20.672  0.00  0.00     0.218 HD
ENDBRANCH  85  94
ENDBRANCH  79  80
ENDBRANCH  12  79
BRANCH  10  96
HETATM   96  O   UNK     0      19.046  31.403  22.995  0.00  0.00    -0.357 OA
HETATM   97  H   UNK     0      18.255  32.033  22.972  0.00  0.00     0.217 HD
ENDBRANCH  10  96
TORSDOF 26
ENDMDL
MODEL 4
REMARK VINA RESULT:     -10.7      1.986      3.280
REMARK  26 active torsions:
REMARK  status: ('A' for Active; 'I' for Inactive)
REMARK    1  A    between atoms: C_1  and  C_7 
REMARK    2  A    between atoms: C_4  and  O_9 
REMARK    3  A    between atoms: C_5  and  O_11 
REMARK    4  A    between atoms: C_6  and  O_10 
REMARK    5  A    between atoms: C_12  and  C_18 
REMARK    6  A    between atoms: C_15  and  O_76 
REMARK    7  A    between atoms: C_18  and  O_74 
REMARK    8  A    between atoms: C_21  and  O_25 
REMARK    9  A    between atoms: C_23  and  O_26 
REMARK   10  A    between atoms: C_30  and  O_35 
REMARK   11  A    between atoms: C_32  and  O_36 
REMARK   12  A    between atoms: O_36  and  C_67 
REMARK   13  A    between atoms: C_39  and  O_60 
REMARK   14  A    between atoms: C_41  and  O_58 
REMARK   15  A    between atoms: C_42  and  C_45 
REMARK   16  A    between atoms: C_43  and  O_59 
REMARK   17  A    between atoms: C_45  and  O_53 
REMARK   18  A    between atoms: C_47  and  O_53 
REMARK   19  A    between atoms: C_50  and  O_55 
REMARK   20  A    between atoms: C_51  and  C_54 
REMARK   21  A    between atoms: C_54  and  O_74 
REMARK   22  A    between atoms: C_64  and  O_69 
REMARK   23  A    between atoms: C_65  and  C_72 
REMARK   24  A    between atoms: C_66  and  O_70 
REMARK   25  A    between atoms: C_68  and  O_71 
REMARK   26  A    between atoms: C_72  and  O_73 
ROOT
HETATM    1  C   UNK     0      27.202  37.473  19.585  0.00  0.00     0.026 A 
HETATM    2  C   UNK     0      26.116  38.365  19.596  0.00  0.00     0.006 A 
HETATM    3  C   UNK     0      28.369  37.671  18.872  0.00  0.00     0.111 A 
HETATM    4  C   UNK     0      26.283  39.479  18.721  0.00  0.00     0.054 A 
HETATM    5  C   UNK     0      28.512  38.786  18.090  0.00  0.00     0.100 A 
HETATM    6  C   UNK     0      27.460  39.666  18.010  0.00  0.00     0.058 A 
HETATM    7  O   UNK     0      27.125  36.322  20.297  0.00  0.00     0.000 OA
HETATM    8  C   UNK     0      25.502  36.904  21.476  0.00  0.00     0.026 A 
HETATM    9  C   UNK     0      24.949  37.837  20.596  0.00  0.00     0.006 A 
HETATM   10  C   UNK     0      24.772  36.151  22.357  0.00  0.00     0.111 A 
HETATM   11  C   UNK     0      23.540  38.062  20.772  0.00  0.00     0.054 A 
HETATM   12  C   UNK     0      23.419  36.298  22.449  0.00  0.00     0.111 A 
HETATM   13  C   UNK     0      22.810  37.274  21.677  0.00  0.00     0.058 A 
HETATM   14  C   UNK     0      22.664  39.056  20.094  0.00  0.00     0.294 C 
HETATM   15  O   UNK     0      26.842  36.704  21.481  0.00  0.00     0.000 OA
HETATM   16  O   UNK     0      22.466  38.960  18.905  0.00  0.00    -0.259 OA
HETATM   17  C   UNK     0      21.926  42.593  20.715  0.00  0.00     0.302 C 
HETATM   18  C   UNK     0      22.406  41.294  20.110  0.00  0.00     0.219 C 
HETATM   19  O   UNK     0      22.552  43.711  19.975  0.00  0.00    -0.348 OA
HETATM   20  C   UNK     0      23.793  41.399  20.100  0.00  0.00     0.184 C 
HETATM   21  C   UNK     0      23.798  43.603  19.175  0.00  0.00     0.181 C 
HETATM   22  C   UNK     0      24.125  42.124  18.917  0.00  0.00     0.194 C 
HETATM   23  O   UNK     0      25.478  41.856  18.636  0.00  0.00    -0.307 OA
HETATM   24  O   UNK     0      22.068  40.112  20.808  0.00  0.00    -0.304 OA
HETATM   25  C   UNK     0      25.323  40.501  18.389  0.00  0.00     0.294 C 
HETATM   26  O   UNK     0      24.286  40.146  17.881  0.00  0.00    -0.259 OA
HETATM   27  H   UNK     0      27.896  35.668  20.285  0.00  0.00     0.000 HD
HETATM   28  H   UNK     0      27.250  36.028  22.113  0.00  0.00     0.000 HD
ENDROOT
BRANCH  21  29
HETATM   29  C   UNK     0      23.608  44.304  17.808  0.00  0.00     0.213 C 
BRANCH  29  30
HETATM   30  O   UNK     0      22.301  44.278  17.234  0.00  0.00    -0.315 OA
BRANCH  30  31
HETATM   31  C   UNK     0      22.081  43.575  16.085  0.00  0.00     0.293 C 
HETATM   32  O   UNK     0      22.913  42.777  15.717  0.00  0.00    -0.259 OA
BRANCH  31  33
HETATM   33  C   UNK     0      20.835  43.730  15.288  0.00  0.00     0.044 A 
HETATM   34  C   UNK     0      20.407  45.013  14.989  0.00  0.00     0.055 A 
HETATM   35  C   UNK     0      19.245  45.215  14.265  0.00  0.00     0.080 A 
HETATM   36  C   UNK     0      18.505  44.131  13.833  0.00  0.00     0.047 A 
HETATM   37  C   UNK     0      18.917  42.835  14.122  0.00  0.00     0.091 A 
HETATM   38  O   UNK     0      17.364  44.339  13.122  0.00  0.00     0.000 OA
HETATM   39  C   UNK     0      20.087  42.638  14.854  0.00  0.00     0.056 A 
HETATM   40  O   UNK     0      18.166  41.768  13.689  0.00  0.00    -0.306 OA
HETATM   41  C   UNK     0      17.004  41.975  12.991  0.00  0.00     0.121 A 
HETATM   42  O   UNK     0      16.636  43.109  12.789  0.00  0.00     0.000 OA
HETATM   43  H   UNK     0      16.816  43.550  12.803  0.00  0.00     0.000 HD
BRANCH  35  44
HETATM   44  O   UNK     0      18.827  46.478  13.981  0.00  0.00    -0.360 OA
HETATM   45  H   UNK     0      18.061  46.886  14.503  0.00  0.00     0.217 HD
ENDBRANCH  35  44
BRANCH  41  46
HETATM   46  C   UNK     0      16.184  40.867  12.467  0.00  0.00     0.006 A 
HETATM   47  C   UNK     0      14.812  40.896  12.667  0.00  0.00     0.054 A 
HETATM   48  C   UNK     0      14.012  39.877  12.176  0.00  0.00     0.102 A 
HETATM   49  C   UNK     0      14.585  38.824  11.482  0.00  0.00     0.132 A 
HETATM   50  C   UNK     0      15.958  38.790  11.282  0.00  0.00     0.102 A 
HETATM   51  C   UNK     0      16.759  39.812  11.772  0.00  0.00     0.054 A 
BRANCH  48  52
HETATM   52  O   UNK     0      12.668  39.912  12.372  0.00  0.00    -0.358 OA
HETATM   53  H   UNK     0      12.040  39.940  11.579  0.00  0.00     0.217 HD
ENDBRANCH  48  52
BRANCH  49  54
HETATM   54  O   UNK     0      13.800  37.825  10.998  0.00  0.00    -0.356 OA
HETATM   55  H   UNK     0      14.116  36.865  11.045  0.00  0.00     0.218 HD
ENDBRANCH  49  54
BRANCH  50  56
HETATM   56  O   UNK     0      16.519  37.753  10.603  0.00  0.00    -0.358 OA
HETATM   57  H   UNK     0      17.130  37.933   9.818  0.00  0.00     0.217 HD
ENDBRANCH  50  56
ENDBRANCH  41  46
ENDBRANCH  31  33
ENDBRANCH  30  31
ENDBRANCH  29  30
ENDBRANCH  21  29
BRANCH  17  58
HETATM   58  O   UNK     0      20.515  42.679  20.622  0.00  0.00    -0.283 OA
BRANCH  58  59
HETATM   59  C   UNK     0      19.923  43.154  19.495  0.00  0.00     0.295 C 
HETATM   60  O   UNK     0      19.922  44.342  19.261  0.00  0.00    -0.259 OA
BRANCH  59  61
HETATM   61  C   UNK     0      19.277  42.215  18.567  0.00  0.00     0.045 A 
HETATM   62  C   UNK     0      19.854  40.978  18.329  0.00  0.00     0.057 A 
HETATM   63  C   UNK     0      19.247  40.084  17.460  0.00  0.00     0.102 A 
HETATM   64  C   UNK     0      18.066  40.432  16.825  0.00  0.00     0.132 A 
HETATM   65  C   UNK     0      17.489  41.670  17.063  0.00  0.00     0.102 A 
HETATM   66  C   UNK     0      18.093  42.562  17.936  0.00  0.00     0.057 A 
BRANCH  63  67
HETATM   67  O   UNK     0      19.812  38.869  17.232  0.00  0.00    -0.358 OA
HETATM   68  H   UNK     0      20.131  38.626  16.303  0.00  0.00     0.217 HD
ENDBRANCH  63  67
BRANCH  64  69
HETATM   69  O   UNK     0      17.472  39.558  15.967  0.00  0.00    -0.356 OA
HETATM   70  H   UNK     0      17.971  39.236  15.147  0.00  0.00     0.218 HD
ENDBRANCH  64  69
BRANCH  65  71
HETATM   71  O   UNK     0      16.329  42.009  16.442  0.00  0.00    -0.358 OA
HETATM   72  H   UNK     0      16.174  42.963  16.143  0.00  0.00     0.217 HD
ENDBRANCH  65  71
ENDBRANCH  59  61
ENDBRANCH  58  59
ENDBRANCH  17  58
BRANCH  20  73
HETATM   73  O   UNK     0      24.390  40.111  20.079  0.00  0.00    -0.390 OA
HETATM   74  H   UNK     0      24.841  39.749  20.910  0.00  0.00     0.210 HD
ENDBRANCH  20  73
BRANCH   5  75
HETATM   75  O   UNK     0      29.660  39.004  17.393  0.00  0.00    -0.358 OA
HETATM   76  H   UNK     0      30.516  38.545  17.673  0.00  0.00     0.217 HD
ENDBRANCH   5  75
BRANCH   3  77
HETATM   77  O   UNK     0      29.374  36.759  18.945  0.00  0.00    -0.357 OA
HETATM   78  H   UNK     0      29.358  36.044  19.660  0.00  0.00     0.217 HD
ENDBRANCH   3  77
BRANCH  12  79
HETATM   79  O   UNK     0      22.839  35.413  23.318  0.00  0.00    -0.304 OA
BRANCH  79  80
HETATM   80  C   UNK     0      21.981  34.361  23.473  0.00  0.00     0.129 A 
HETATM   81  C   UNK     0      20.646  34.448  23.844  0.00  0.00     0.077 A 
HETATM   82  C   UNK     0      19.900  33.285  23.997  0.00  0.00     0.060 A 
HETATM   83  C   UNK     0      20.474  32.042  23.779  0.00  0.00     0.102 A 
HETATM   84  C   UNK     0      21.802  31.957  23.399  0.00  0.00     0.135 A 
HETATM   85  C   UNK     0      22.544  33.112  23.247  0.00  0.00     0.137 A 
BRANCH  81  86
HETATM   86  C   UNK     0      20.000  35.742  24.078  0.00  0.00     0.179 C 
HETATM   87  O   UNK     0      18.864  35.931  23.710  0.00  0.00    -0.646 OA
BRANCH  86  88
HETATM   88  O   UNK     0      20.691  36.730  24.709  0.00  0.00    -0.773 OA
HETATM   89  H   UNK     0      20.584  37.691  24.411  0.00  0.00     0.167 HD
ENDBRANCH  86  88
ENDBRANCH  81  86
BRANCH  83  90
HETATM   90  O   UNK     0      19.741  30.907  23.937  0.00  0.00    -0.358 OA
HETATM   91  H   UNK     0      19.773  30.403  24.813  0.00  0.00     0.217 HD
ENDBRANCH  83  90
BRANCH  84  92
HETATM   92  O   UNK     0      22.378  30.743  23.178  0.00  0.00    -0.356 OA
HETATM   93  H   UNK     0      21.907  30.059  22.601  0.00  0.00     0.218 HD
ENDBRANCH  84  92
BRANCH  85  94
HETATM   94  O   UNK     0      23.849  33.025  22.872  0.00  0.00    -0.356 OA
HETATM   95  H   UNK     0      24.146  32.293  22.237  0.00  0.00     0.218 HD
ENDBRANCH  85  94
ENDBRANCH  79  80
ENDBRANCH  12  79
BRANCH  10  96
HETATM   96  O   UNK     0      25.397  35.231  23.139  0.00  0.00    -0.357 OA
HETATM   97  H   UNK     0      24.868  34.473  23.551  0.00  0.00     0.217 HD
ENDBRANCH  10  96
TORSDOF 26
ENDMDL
MODEL 5
REMARK VINA RESULT:     -10.7      2.125      3.446
REMARK  26 active torsions:
REMARK  status: ('A' for Active; 'I' for Inactive)
REMARK    1  A    between atoms: C_1  and  C_7 
REMARK    2  A    between atoms: C_4  and  O_9 
REMARK    3  A    between atoms: C_5  and  O_11 
REMARK    4  A    between atoms: C_6  and  O_10 
REMARK    5  A    between atoms: C_12  and  C_18 
REMARK    6  A    between atoms: C_15  and  O_76 
REMARK    7  A    between atoms: C_18  and  O_74 
REMARK    8  A    between atoms: C_21  and  O_25 
REMARK    9  A    between atoms: C_23  and  O_26 
REMARK   10  A    between atoms: C_30  and  O_35 
REMARK   11  A    between atoms: C_32  and  O_36 
REMARK   12  A    between atoms: O_36  and  C_67 
REMARK   13  A    between atoms: C_39  and  O_60 
REMARK   14  A    between atoms: C_41  and  O_58 
REMARK   15  A    between atoms: C_42  and  C_45 
REMARK   16  A    between atoms: C_43  and  O_59 
REMARK   17  A    between atoms: C_45  and  O_53 
REMARK   18  A    between atoms: C_47  and  O_53 
REMARK   19  A    between atoms: C_50  and  O_55 
REMARK   20  A    between atoms: C_51  and  C_54 
REMARK   21  A    between atoms: C_54  and  O_74 
REMARK   22  A    between atoms: C_64  and  O_69 
REMARK   23  A    between atoms: C_65  and  C_72 
REMARK   24  A    between atoms: C_66  and  O_70 
REMARK   25  A    between atoms: C_68  and  O_71 
REMARK   26  A    between atoms: C_72  and  O_73 
ROOT
HETATM    1  C   UNK     0      26.896  35.120  19.134  0.00  0.00     0.026 A 
HETATM    2  C   UNK     0      26.007  36.206  19.219  0.00  0.00     0.006 A 
HETATM    3  C   UNK     0      28.007  35.081  18.314  0.00  0.00     0.111 A 
HETATM    4  C   UNK     0      26.304  37.259  18.304  0.00  0.00     0.054 A 
HETATM    5  C   UNK     0      28.288  36.140  17.492  0.00  0.00     0.100 A 
HETATM    6  C   UNK     0      27.423  37.207  17.485  0.00  0.00     0.058 A 
HETATM    7  O   UNK     0      26.665  34.012  19.880  0.00  0.00     0.000 OA
HETATM    8  C   UNK     0      25.303  34.908  21.185  0.00  0.00     0.026 A 
HETATM    9  C   UNK     0      24.860  35.924  20.334  0.00  0.00     0.006 A 
HETATM   10  C   UNK     0      24.527  34.319  22.148  0.00  0.00     0.111 A 
HETATM   11  C   UNK     0      23.544  36.420  20.632  0.00  0.00     0.054 A 
HETATM   12  C   UNK     0      23.242  34.727  22.358  0.00  0.00     0.111 A 
HETATM   13  C   UNK     0      22.764  35.796  21.619  0.00  0.00     0.058 A 
HETATM   14  C   UNK     0      22.816  37.560  20.009  0.00  0.00     0.294 C 
HETATM   15  O   UNK     0      26.573  34.451  21.075  0.00  0.00     0.000 OA
HETATM   16  O   UNK     0      22.493  37.494  18.846  0.00  0.00    -0.259 OA
HETATM   17  C   UNK     0      22.836  41.177  20.600  0.00  0.00     0.302 C 
HETATM   18  C   UNK     0      22.998  39.805  19.989  0.00  0.00     0.219 C 
HETATM   19  O   UNK     0      23.594  42.146  19.777  0.00  0.00    -0.348 OA
HETATM   20  C   UNK     0      24.371  39.638  19.851  0.00  0.00     0.184 C 
HETATM   21  C   UNK     0      24.715  41.791  18.871  0.00  0.00     0.181 C 
HETATM   22  C   UNK     0      24.725  40.275  18.623  0.00  0.00     0.194 C 
HETATM   23  O   UNK     0      25.968  39.746  18.228  0.00  0.00    -0.307 OA
HETATM   24  O   UNK     0      22.505  38.718  20.745  0.00  0.00    -0.304 OA
HETATM   25  C   UNK     0      25.533  38.445  18.033  0.00  0.00     0.294 C 
HETATM   26  O   UNK     0      24.403  38.294  17.630  0.00  0.00    -0.259 OA
HETATM   27  H   UNK     0      27.291  33.220  19.816  0.00  0.00     0.000 HD
HETATM   28  H   UNK     0      26.901  33.714  21.685  0.00  0.00     0.000 HD
ENDROOT
BRANCH  21  29
HETATM   29  C   UNK     0      24.536  42.504  17.508  0.00  0.00     0.213 C 
BRANCH  29  30
HETATM   30  O   UNK     0      23.228  42.975  17.181  0.00  0.00    -0.315 OA
BRANCH  30  31
HETATM   31  C   UNK     0      22.501  42.335  16.220  0.00  0.00     0.293 C 
HETATM   32  O   UNK     0      22.732  41.171  15.986  0.00  0.00    -0.259 OA
BRANCH  31  33
HETATM   33  C   UNK     0      21.406  43.012  15.474  0.00  0.00     0.044 A 
HETATM   34  C   UNK     0      21.373  44.397  15.480  0.00  0.00     0.055 A 
HETATM   35  C   UNK     0      20.367  45.078  14.816  0.00  0.00     0.080 A 
HETATM   36  C   UNK     0      19.389  44.374  14.139  0.00  0.00     0.047 A 
HETATM   37  C   UNK     0      19.405  42.984  14.120  0.00  0.00     0.091 A 
HETATM   38  O   UNK     0      18.405  45.052  13.490  0.00  0.00     0.000 OA
HETATM   39  C   UNK     0      20.419  42.304  14.793  0.00  0.00     0.056 A 
HETATM   40  O   UNK     0      18.421  42.300  13.447  0.00  0.00    -0.306 OA
HETATM   41  C   UNK     0      17.416  42.980  12.810  0.00  0.00     0.121 A 
HETATM   42  O   UNK     0      17.391  44.187  12.875  0.00  0.00     0.000 OA
HETATM   43  H   UNK     0      17.684  44.543  12.993  0.00  0.00     0.000 HD
BRANCH  35  44
HETATM   44  O   UNK     0      20.336  46.438  14.832  0.00  0.00    -0.360 OA
HETATM   45  H   UNK     0      21.176  46.960  15.049  0.00  0.00     0.217 HD
ENDBRANCH  35  44
BRANCH  41  46
HETATM   46  C   UNK     0      16.361  42.297  12.037  0.00  0.00     0.006 A 
HETATM   47  C   UNK     0      15.315  41.694  12.719  0.00  0.00     0.054 A 
HETATM   48  C   UNK     0      14.301  41.056  12.022  0.00  0.00     0.102 A 
HETATM   49  C   UNK     0      14.334  41.019  10.638  0.00  0.00     0.132 A 
HETATM   50  C   UNK     0      15.380  41.618   9.952  0.00  0.00     0.102 A 
HETATM   51  C   UNK     0      16.394  42.260  10.651  0.00  0.00     0.054 A 
BRANCH  48  52
HETATM   52  O   UNK     0      13.276  40.469  12.695  0.00  0.00    -0.358 OA
HETATM   53  H   UNK     0      13.068  39.490  12.547  0.00  0.00     0.217 HD
ENDBRANCH  48  52
BRANCH  49  54
HETATM   54  O   UNK     0      13.338  40.395   9.954  0.00  0.00    -0.356 OA
HETATM   55  H   UNK     0      12.468  40.879   9.771  0.00  0.00     0.218 HD
ENDBRANCH  49  54
BRANCH  50  56
HETATM   56  O   UNK     0      15.411  41.578   8.592  0.00  0.00    -0.358 OA
HETATM   57  H   UNK     0      14.809  42.188   8.054  0.00  0.00     0.217 HD
ENDBRANCH  50  56
ENDBRANCH  41  46
ENDBRANCH  31  33
ENDBRANCH  30  31
ENDBRANCH  29  30
ENDBRANCH  21  29
BRANCH  17  58
HETATM   58  O   UNK     0      21.466  41.535  20.633  0.00  0.00    -0.283 OA
BRANCH  58  59
HETATM   59  C   UNK     0      21.025  42.649  19.991  0.00  0.00     0.295 C 
HETATM   60  O   UNK     0      21.568  43.715  20.175  0.00  0.00    -0.259 OA
BRANCH  59  61
HETATM   61  C   UNK     0      19.879  42.549  19.076  0.00  0.00     0.045 A 
HETATM   62  C   UNK     0      19.356  43.697  18.502  0.00  0.00     0.057 A 
HETATM   63  C   UNK     0      18.279  43.611  17.633  0.00  0.00     0.102 A 
HETATM   64  C   UNK     0      17.723  42.376  17.342  0.00  0.00     0.132 A 
HETATM   65  C   UNK     0      18.247  41.227  17.916  0.00  0.00     0.102 A 
HETATM   66  C   UNK     0      19.326  41.313  18.783  0.00  0.00     0.057 A 
BRANCH  63  67
HETATM   67  O   UNK     0      17.771  44.738  17.067  0.00  0.00    -0.358 OA
HETATM   68  H   UNK     0      16.945  44.683  16.485  0.00  0.00     0.217 HD
ENDBRANCH  63  67
BRANCH  64  69
HETATM   69  O   UNK     0      16.662  42.290  16.494  0.00  0.00    -0.356 OA
HETATM   70  H   UNK     0      16.708  42.725  15.581  0.00  0.00     0.218 HD
ENDBRANCH  64  69
BRANCH  65  71
HETATM   71  O   UNK     0      17.702  40.016  17.629  0.00  0.00    -0.358 OA
HETATM   72  H   UNK     0      18.238  39.328  17.118  0.00  0.00     0.217 HD
ENDBRANCH  65  71
ENDBRANCH  59  61
ENDBRANCH  58  59
ENDBRANCH  17  58
BRANCH  20  73
HETATM   73  O   UNK     0      24.704  38.259  19.810  0.00  0.00    -0.390 OA
HETATM   74  H   UNK     0      25.650  37.972  19.594  0.00  0.00     0.210 HD
ENDBRANCH  20  73
BRANCH   5  75
HETATM   75  O   UNK     0      29.386  36.125  16.689  0.00  0.00    -0.358 OA
HETATM   76  H   UNK     0      30.291  35.891  17.074  0.00  0.00     0.217 HD
ENDBRANCH   5  75
BRANCH   3  77
HETATM   77  O   UNK     0      28.820  33.991  18.320  0.00  0.00    -0.357 OA
HETATM   78  H   UNK     0      29.470  33.849  19.082  0.00  0.00     0.217 HD
ENDBRANCH   3  77
BRANCH  12  79
HETATM   79  O   UNK     0      22.587  33.979  23.300  0.00  0.00    -0.304 OA
BRANCH  79  80
HETATM   80  C   UNK     0      21.504  33.196  23.584  0.00  0.00     0.129 A 
HETATM   81  C   UNK     0      20.270  33.647  24.034  0.00  0.00     0.077 A 
HETATM   82  C   UNK     0      19.267  32.729  24.318  0.00  0.00     0.060 A 
HETATM   83  C   UNK     0      19.484  31.369  24.151  0.00  0.00     0.102 A 
HETATM   84  C   UNK     0      20.710  30.922  23.691  0.00  0.00     0.135 A 
HETATM   85  C   UNK     0      21.708  31.834  23.410  0.00  0.00     0.137 A 
BRANCH  81  86
HETATM   86  C   UNK     0      19.999  35.075  24.218  0.00  0.00     0.179 C 
HETATM   87  O   UNK     0      18.982  35.563  23.783  0.00  0.00    -0.646 OA
BRANCH  86  88
HETATM   88  O   UNK     0      20.902  35.848  24.881  0.00  0.00    -0.773 OA
HETATM   89  H   UNK     0      21.876  35.577  24.907  0.00  0.00     0.167 HD
ENDBRANCH  86  88
ENDBRANCH  81  86
BRANCH  83  90
HETATM   90  O   UNK     0      18.499  30.474  24.435  0.00  0.00    -0.358 OA
HETATM   91  H   UNK     0      18.481  30.014  25.335  0.00  0.00     0.217 HD
ENDBRANCH  83  90
BRANCH  84  92
HETATM   92  O   UNK     0      20.936  29.591  23.519  0.00  0.00    -0.356 OA
HETATM   93  H   UNK     0      20.797  28.951  24.290  0.00  0.00     0.218 HD
ENDBRANCH  84  92
BRANCH  85  94
HETATM   94  O   UNK     0      22.912  31.391  22.957  0.00  0.00    -0.356 OA
HETATM   95  H   UNK     0      22.952  30.715  22.204  0.00  0.00     0.218 HD
ENDBRANCH  85  94
ENDBRANCH  79  80
ENDBRANCH  12  79
BRANCH  10  96
HETATM   96  O   UNK     0      25.034  33.302  22.895  0.00  0.00    -0.357 OA
HETATM   97  H   UNK     0      25.691  33.498  23.639  0.00  0.00     0.217 HD
ENDBRANCH  10  96
TORSDOF 26
ENDMDL
MODEL 6
REMARK VINA RESULT:     -10.7      1.679      3.042
REMARK  26 active torsions:
REMARK  status: ('A' for Active; 'I' for Inactive)
REMARK    1  A    between atoms: C_1  and  C_7 
REMARK    2  A    between atoms: C_4  and  O_9 
REMARK    3  A    between atoms: C_5  and  O_11 
REMARK    4  A    between atoms: C_6  and  O_10 
REMARK    5  A    between atoms: C_12  and  C_18 
REMARK    6  A    between atoms: C_15  and  O_76 
REMARK    7  A    between atoms: C_18  and  O_74 
REMARK    8  A    between atoms: C_21  and  O_25 
REMARK    9  A    between atoms: C_23  and  O_26 
REMARK   10  A    between atoms: C_30  and  O_35 
REMARK   11  A    between atoms: C_32  and  O_36 
REMARK   12  A    between atoms: O_36  and  C_67 
REMARK   13  A    between atoms: C_39  and  O_60 
REMARK   14  A    between atoms: C_41  and  O_58 
REMARK   15  A    between atoms: C_42  and  C_45 
REMARK   16  A    between atoms: C_43  and  O_59 
REMARK   17  A    between atoms: C_45  and  O_53 
REMARK   18  A    between atoms: C_47  and  O_53 
REMARK   19  A    between atoms: C_50  and  O_55 
REMARK   20  A    between atoms: C_51  and  C_54 
REMARK   21  A    between atoms: C_54  and  O_74 
REMARK   22  A    between atoms: C_64  and  O_69 
REMARK   23  A    between atoms: C_65  and  C_72 
REMARK   24  A    between atoms: C_66  and  O_70 
REMARK   25  A    between atoms: C_68  and  O_71 
REMARK   26  A    between atoms: C_72  and  O_73 
ROOT
HETATM    1  C   UNK     0      27.839  38.142  19.145  0.00  0.00     0.026 A 
HETATM    2  C   UNK     0      26.811  39.066  18.891  0.00  0.00     0.006 A 
HETATM    3  C   UNK     0      29.078  38.163  18.534  0.00  0.00     0.111 A 
HETATM    4  C   UNK     0      27.126  40.002  17.861  0.00  0.00     0.054 A 
HETATM    5  C   UNK     0      29.361  39.117  17.592  0.00  0.00     0.100 A 
HETATM    6  C   UNK     0      28.374  40.012  17.254  0.00  0.00     0.058 A 
HETATM    7  O   UNK     0      27.626  37.138  20.031  0.00  0.00     0.000 OA
HETATM    8  C   UNK     0      25.936  37.985  20.919  0.00  0.00     0.026 A 
HETATM    9  C   UNK     0      25.525  38.772  19.839  0.00  0.00     0.006 A 
HETATM   10  C   UNK     0      25.083  37.430  21.834  0.00  0.00     0.111 A 
HETATM   11  C   UNK     0      24.122  39.083  19.828  0.00  0.00     0.054 A 
HETATM   12  C   UNK     0      23.738  37.647  21.759  0.00  0.00     0.111 A 
HETATM   13  C   UNK     0      23.264  38.497  20.773  0.00  0.00     0.058 A 
HETATM   14  C   UNK     0      23.374  39.978  18.903  0.00  0.00     0.294 C 
HETATM   15  O   UNK     0      27.255  37.733  21.097  0.00  0.00     0.000 OA
HETATM   16  O   UNK     0      23.285  39.683  17.734  0.00  0.00    -0.259 OA
HETATM   17  C   UNK     0      22.792  43.597  18.832  0.00  0.00     0.302 C 
HETATM   18  C   UNK     0      23.249  42.193  18.510  0.00  0.00     0.219 C 
HETATM   19  O   UNK     0      23.550  44.540  17.981  0.00  0.00    -0.348 OA
HETATM   20  C   UNK     0      24.634  42.236  18.627  0.00  0.00     0.184 C 
HETATM   21  C   UNK     0      24.858  44.241  17.345  0.00  0.00     0.181 C 
HETATM   22  C   UNK     0      25.120  42.728  17.378  0.00  0.00     0.194 C 
HETATM   23  O   UNK     0      26.475  42.358  17.289  0.00  0.00    -0.307 OA
HETATM   24  O   UNK     0      22.777  41.167  19.360  0.00  0.00    -0.304 OA
HETATM   25  C   UNK     0      26.265  40.989  17.262  0.00  0.00     0.294 C 
HETATM   26  O   UNK     0      25.261  40.594  16.717  0.00  0.00    -0.259 OA
HETATM   27  H   UNK     0      28.355  36.461  20.211  0.00  0.00     0.000 HD
HETATM   28  H   UNK     0      27.561  37.162  21.873  0.00  0.00     0.000 HD
ENDROOT
BRANCH  21  29
HETATM   29  C   UNK     0      24.840  44.699  15.866  0.00  0.00     0.213 C 
BRANCH  29  30
HETATM   30  O   UNK     0      24.363  43.766  14.896  0.00  0.00    -0.315 OA
BRANCH  30  31
HETATM   31  C   UNK     0      23.560  44.197  13.881  0.00  0.00     0.293 C 
HETATM   32  O   UNK     0      24.070  44.632  12.874  0.00  0.00    -0.259 OA
BRANCH  31  33
HETATM   33  C   UNK     0      22.077  44.116  13.956  0.00  0.00     0.044 A 
HETATM   34  C   UNK     0      21.457  44.572  15.108  0.00  0.00     0.055 A 
HETATM   35  C   UNK     0      20.080  44.505  15.237  0.00  0.00     0.080 A 
HETATM   36  C   UNK     0      19.316  43.982  14.211  0.00  0.00     0.047 A 
HETATM   37  C   UNK     0      19.919  43.520  13.047  0.00  0.00     0.091 A 
HETATM   38  O   UNK     0      17.964  43.921  14.348  0.00  0.00     0.000 OA
HETATM   39  C   UNK     0      21.306  43.588  12.923  0.00  0.00     0.056 A 
HETATM   40  O   UNK     0      19.144  42.998  12.039  0.00  0.00    -0.306 OA
HETATM   41  C   UNK     0      17.783  42.914  12.182  0.00  0.00     0.121 A 
HETATM   42  O   UNK     0      17.279  43.278  13.219  0.00  0.00     0.000 OA
HETATM   43  H   UNK     0      17.397  43.538  13.601  0.00  0.00     0.000 HD
BRANCH  35  44
HETATM   44  O   UNK     0      19.478  44.948  16.374  0.00  0.00    -0.360 OA
HETATM   45  H   UNK     0      19.915  45.674  16.928  0.00  0.00     0.217 HD
ENDBRANCH  35  44
BRANCH  41  46
HETATM   46  C   UNK     0      16.902  42.404  11.115  0.00  0.00     0.006 A 
HETATM   47  C   UNK     0      17.350  42.438   9.804  0.00  0.00     0.054 A 
HETATM   48  C   UNK     0      16.551  41.954   8.779  0.00  0.00     0.102 A 
HETATM   49  C   UNK     0      15.300  41.435   9.067  0.00  0.00     0.132 A 
HETATM   50  C   UNK     0      14.847  41.403  10.378  0.00  0.00     0.102 A 
HETATM   51  C   UNK     0      15.648  41.885  11.404  0.00  0.00     0.054 A 
BRANCH  48  52
HETATM   52  O   UNK     0      16.996  41.986   7.495  0.00  0.00    -0.358 OA
HETATM   53  H   UNK     0      16.358  41.798   6.733  0.00  0.00     0.217 HD
ENDBRANCH  48  52
BRANCH  49  54
HETATM   54  O   UNK     0      14.518  40.958   8.063  0.00  0.00    -0.356 OA
HETATM   55  H   UNK     0      13.535  41.197   8.029  0.00  0.00     0.218 HD
ENDBRANCH  49  54
BRANCH  50  56
HETATM   56  O   UNK     0      13.616  40.895  10.658  0.00  0.00    -0.358 OA
HETATM   57  H   UNK     0      12.823  41.515  10.758  0.00  0.00     0.217 HD
ENDBRANCH  50  56
ENDBRANCH  41  46
ENDBRANCH  31  33
ENDBRANCH  30  31
ENDBRANCH  29  30
ENDBRANCH  21  29
BRANCH  17  58
HETATM   58  O   UNK     0      21.403  43.723  18.580  0.00  0.00    -0.283 OA
BRANCH  58  59
HETATM   59  C   UNK     0      20.494  43.111  19.382  0.00  0.00     0.295 C 
HETATM   60  O   UNK     0      20.444  43.376  20.562  0.00  0.00    -0.259 OA
BRANCH  59  61
HETATM   61  C   UNK     0      19.576  42.118  18.807  0.00  0.00     0.045 A 
HETATM   62  C   UNK     0      18.573  42.528  17.942  0.00  0.00     0.057 A 
HETATM   63  C   UNK     0      17.708  41.598  17.390  0.00  0.00     0.102 A 
HETATM   64  C   UNK     0      17.842  40.255  17.707  0.00  0.00     0.132 A 
HETATM   65  C   UNK     0      18.845  39.845  18.572  0.00  0.00     0.102 A 
HETATM   66  C   UNK     0      19.714  40.775  19.121  0.00  0.00     0.057 A 
BRANCH  63  67
HETATM   67  O   UNK     0      16.728  42.002  16.538  0.00  0.00    -0.358 OA
HETATM   68  H   UNK     0      16.967  42.325  15.609  0.00  0.00     0.217 HD
ENDBRANCH  63  67
BRANCH  64  69
HETATM   69  O   UNK     0      16.989  39.341  17.171  0.00  0.00    -0.356 OA
HETATM   70  H   UNK     0      17.314  38.404  16.967  0.00  0.00     0.218 HD
ENDBRANCH  64  69
BRANCH  65  71
HETATM   71  O   UNK     0      18.977  38.528  18.881  0.00  0.00    -0.358 OA
HETATM   72  H   UNK     0      18.175  37.914  18.834  0.00  0.00     0.217 HD
ENDBRANCH  65  71
ENDBRANCH  59  61
ENDBRANCH  58  59
ENDBRANCH  17  58
BRANCH  20  73
HETATM   73  O   UNK     0      25.154  40.941  18.888  0.00  0.00    -0.390 OA
HETATM   74  H   UNK     0      25.244  40.271  18.135  0.00  0.00     0.210 HD
ENDBRANCH  20  73
BRANCH   5  75
HETATM   75  O   UNK     0      30.580  39.160  16.991  0.00  0.00    -0.358 OA
HETATM   76  H   UNK     0      30.953  38.333  16.544  0.00  0.00     0.217 HD
ENDBRANCH   5  75
BRANCH   3  77
HETATM   77  O   UNK     0      30.016  37.237  18.865  0.00  0.00    -0.357 OA
HETATM   78  H   UNK     0      30.593  36.822  18.146  0.00  0.00     0.217 HD
ENDBRANCH   3  77
BRANCH  12  79
HETATM   79  O   UNK     0      23.027  36.953  22.702  0.00  0.00    -0.304 OA
BRANCH  79  80
HETATM   80  C   UNK     0      22.081  35.997  22.943  0.00  0.00     0.129 A 
HETATM   81  C   UNK     0      20.711  36.208  23.020  0.00  0.00     0.077 A 
HETATM   82  C   UNK     0      19.868  35.142  23.308  0.00  0.00     0.060 A 
HETATM   83  C   UNK     0      20.381  33.870  23.514  0.00  0.00     0.102 A 
HETATM   84  C   UNK     0      21.745  33.658  23.426  0.00  0.00     0.135 A 
HETATM   85  C   UNK     0      22.584  34.717  23.140  0.00  0.00     0.137 A 
BRANCH  81  86
HETATM   86  C   UNK     0      20.130  37.535  22.803  0.00  0.00     0.179 C 
HETATM   87  O   UNK     0      20.038  37.985  21.684  0.00  0.00    -0.646 OA
BRANCH  86  88
HETATM   88  O   UNK     0      19.696  38.259  23.871  0.00  0.00    -0.773 OA
HETATM   89  H   UNK     0      18.779  38.085  24.260  0.00  0.00     0.167 HD
ENDBRANCH  86  88
ENDBRANCH  81  86
BRANCH  83  90
HETATM   90  O   UNK     0      19.551  32.831  23.802  0.00  0.00    -0.358 OA
HETATM   91  H   UNK     0      18.783  32.962  24.447  0.00  0.00     0.217 HD
ENDBRANCH  83  90
BRANCH  84  92
HETATM   92  O   UNK     0      22.262  32.414  23.622  0.00  0.00    -0.356 OA
HETATM   93  H   UNK     0      22.609  31.882  22.835  0.00  0.00     0.218 HD
ENDBRANCH  84  92
BRANCH  85  94
HETATM   94  O   UNK     0      23.925  34.505  23.053  0.00  0.00    -0.356 OA
HETATM   95  H   UNK     0      24.296  33.568  23.148  0.00  0.00     0.218 HD
ENDBRANCH  85  94
ENDBRANCH  79  80
ENDBRANCH  12  79
BRANCH  10  96
HETATM   96  O   UNK     0      25.575  36.636  22.822  0.00  0.00    -0.357 OA
HETATM   97  H   UNK     0      25.661  36.995  23.765  0.00  0.00     0.217 HD
ENDBRANCH  10  96
TORSDOF 26
ENDMDL
MODEL 7
REMARK VINA RESULT:     -10.7      2.337      3.718
REMARK  26 active torsions:
REMARK  status: ('A' for Active; 'I' for Inactive)
REMARK    1  A    between atoms: C_1  and  C_7 
REMARK    2  A    between atoms: C_4  and  O_9 
REMARK    3  A    between atoms: C_5  and  O_11 
REMARK    4  A    between atoms: C_6  and  O_10 
REMARK    5  A    between atoms: C_12  and  C_18 
REMARK    6  A    between atoms: C_15  and  O_76 
REMARK    7  A    between atoms: C_18  and  O_74 
REMARK    8  A    between atoms: C_21  and  O_25 
REMARK    9  A    between atoms: C_23  and  O_26 
REMARK   10  A    between atoms: C_30  and  O_35 
REMARK   11  A    between atoms: C_32  and  O_36 
REMARK   12  A    between atoms: O_36  and  C_67 
REMARK   13  A    between atoms: C_39  and  O_60 
REMARK   14  A    between atoms: C_41  and  O_58 
REMARK   15  A    between atoms: C_42  and  C_45 
REMARK   16  A    between atoms: C_43  and  O_59 
REMARK   17  A    between atoms: C_45  and  O_53 
REMARK   18  A    between atoms: C_47  and  O_53 
REMARK   19  A    between atoms: C_50  and  O_55 
REMARK   20  A    between atoms: C_51  and  C_54 
REMARK   21  A    between atoms: C_54  and  O_74 
REMARK   22  A    between atoms: C_64  and  O_69 
REMARK   23  A    between atoms: C_65  and  C_72 
REMARK   24  A    between atoms: C_66  and  O_70 
REMARK   25  A    between atoms: C_68  and  O_71 
REMARK   26  A    between atoms: C_72  and  O_73 
ROOT
HETATM    1  C   UNK     0      26.965  35.188  19.179  0.00  0.00     0.026 A 
HETATM    2  C   UNK     0      26.099  36.292  19.267  0.00  0.00     0.006 A 
HETATM    3  C   UNK     0      28.081  35.132  18.367  0.00  0.00     0.111 A 
HETATM    4  C   UNK     0      26.424  37.346  18.363  0.00  0.00     0.054 A 
HETATM    5  C   UNK     0      28.391  36.192  17.556  0.00  0.00     0.100 A 
HETATM    6  C   UNK     0      27.549  37.277  17.551  0.00  0.00     0.058 A 
HETATM    7  O   UNK     0      26.705  34.079  19.914  0.00  0.00     0.000 OA
HETATM    8  C   UNK     0      25.352  34.993  21.216  0.00  0.00     0.026 A 
HETATM    9  C   UNK     0      24.937  36.025  20.370  0.00  0.00     0.006 A 
HETATM   10  C   UNK     0      24.556  34.413  22.168  0.00  0.00     0.111 A 
HETATM   11  C   UNK     0      23.629  36.547  20.662  0.00  0.00     0.054 A 
HETATM   12  C   UNK     0      23.279  34.846  22.372  0.00  0.00     0.111 A 
HETATM   13  C   UNK     0      22.828  35.932  21.638  0.00  0.00     0.058 A 
HETATM   14  C   UNK     0      22.931  37.707  20.043  0.00  0.00     0.294 C 
HETATM   15  O   UNK     0      26.613  34.511  21.111  0.00  0.00     0.000 OA
HETATM   16  O   UNK     0      22.616  37.657  18.877  0.00  0.00    -0.259 OA
HETATM   17  C   UNK     0      23.023  41.318  20.665  0.00  0.00     0.302 C 
HETATM   18  C   UNK     0      23.160  39.948  20.043  0.00  0.00     0.219 C 
HETATM   19  O   UNK     0      23.808  42.277  19.856  0.00  0.00    -0.348 OA
HETATM   20  C   UNK     0      24.531  39.753  19.915  0.00  0.00     0.184 C 
HETATM   21  C   UNK     0      24.928  41.906  18.956  0.00  0.00     0.181 C 
HETATM   22  C   UNK     0      24.908  40.392  18.695  0.00  0.00     0.194 C 
HETATM   23  O   UNK     0      26.142  39.840  18.305  0.00  0.00    -0.307 OA
HETATM   24  O   UNK     0      22.638  38.865  20.787  0.00  0.00    -0.304 OA
HETATM   25  C   UNK     0      25.681  38.550  18.096  0.00  0.00     0.294 C 
HETATM   26  O   UNK     0      24.552  38.427  17.683  0.00  0.00    -0.259 OA
HETATM   27  H   UNK     0      27.314  33.275  19.848  0.00  0.00     0.000 HD
HETATM   28  H   UNK     0      26.920  33.761  21.718  0.00  0.00     0.000 HD
ENDROOT
BRANCH  21  29
HETATM   29  C   UNK     0      24.775  42.634  17.597  0.00  0.00     0.213 C 
BRANCH  29  30
HETATM   30  O   UNK     0      23.462  42.715  17.041  0.00  0.00    -0.315 OA
BRANCH  30  31
HETATM   31  C   UNK     0      23.102  41.868  16.034  0.00  0.00     0.293 C 
HETATM   32  O   UNK     0      23.904  41.615  15.164  0.00  0.00    -0.259 OA
BRANCH  31  33
HETATM   33  C   UNK     0      21.766  41.215  15.988  0.00  0.00     0.044 A 
HETATM   34  C   UNK     0      21.460  40.287  16.971  0.00  0.00     0.055 A 
HETATM   35  C   UNK     0      20.238  39.638  16.967  0.00  0.00     0.080 A 
HETATM   36  C   UNK     0      19.312  39.917  15.979  0.00  0.00     0.047 A 
HETATM   37  C   UNK     0      19.599  40.845  14.986  0.00  0.00     0.091 A 
HETATM   38  O   UNK     0      18.114  39.273  15.984  0.00  0.00     0.000 OA
HETATM   39  C   UNK     0      20.833  41.494  14.993  0.00  0.00     0.056 A 
HETATM   40  O   UNK     0      18.669  41.106  14.007  0.00  0.00    -0.306 OA
HETATM   41  C   UNK     0      17.469  40.444  13.997  0.00  0.00     0.121 A 
HETATM   42  O   UNK     0      17.254  39.606  14.842  0.00  0.00     0.000 OA
HETATM   43  H   UNK     0      17.431  39.471  15.263  0.00  0.00     0.000 HD
BRANCH  35  44
HETATM   44  O   UNK     0      19.947  38.722  17.930  0.00  0.00    -0.360 OA
HETATM   45  H   UNK     0      19.519  39.019  18.798  0.00  0.00     0.217 HD
ENDBRANCH  35  44
BRANCH  41  46
HETATM   46  C   UNK     0      16.419  40.717  12.997  0.00  0.00     0.006 A 
HETATM   47  C   UNK     0      16.771  41.349  11.814  0.00  0.00     0.054 A 
HETATM   48  C   UNK     0      15.811  41.608  10.848  0.00  0.00     0.102 A 
HETATM   49  C   UNK     0      14.495  41.237  11.068  0.00  0.00     0.132 A 
HETATM   50  C   UNK     0      14.139  40.608  12.252  0.00  0.00     0.102 A 
HETATM   51  C   UNK     0      15.101  40.346  13.217  0.00  0.00     0.054 A 
BRANCH  48  52
HETATM   52  O   UNK     0      16.160  42.224   9.688  0.00  0.00    -0.358 OA
HETATM   53  H   UNK     0      15.986  43.214   9.568  0.00  0.00     0.217 HD
ENDBRANCH  48  52
BRANCH  49  54
HETATM   54  O   UNK     0      13.553  41.489  10.120  0.00  0.00    -0.356 OA
HETATM   55  H   UNK     0      13.296  40.769   9.456  0.00  0.00     0.218 HD
ENDBRANCH  49  54
BRANCH  50  56
HETATM   56  O   UNK     0      12.845  40.247  12.466  0.00  0.00    -0.358 OA
HETATM   57  H   UNK     0      12.219  40.871  12.957  0.00  0.00     0.217 HD
ENDBRANCH  50  56
ENDBRANCH  41  46
ENDBRANCH  31  33
ENDBRANCH  30  31
ENDBRANCH  29  30
ENDBRANCH  21  29
BRANCH  17  58
HETATM   58  O   UNK     0      21.660  41.705  20.690  0.00  0.00    -0.283 OA
BRANCH  58  59
HETATM   59  C   UNK     0      21.298  42.986  20.421  0.00  0.00     0.295 C 
HETATM   60  O   UNK     0      21.672  43.889  21.135  0.00  0.00    -0.259 OA
BRANCH  59  61
HETATM   61  C   UNK     0      20.444  43.267  19.258  0.00  0.00     0.045 A 
HETATM   62  C   UNK     0      20.774  44.301  18.396  0.00  0.00     0.057 A 
HETATM   63  C   UNK     0      19.977  44.567  17.294  0.00  0.00     0.102 A 
HETATM   64  C   UNK     0      18.848  43.800  17.055  0.00  0.00     0.132 A 
HETATM   65  C   UNK     0      18.519  42.765  17.917  0.00  0.00     0.102 A 
HETATM   66  C   UNK     0      19.318  42.496  19.018  0.00  0.00     0.057 A 
BRANCH  63  67
HETATM   67  O   UNK     0      20.305  45.580  16.447  0.00  0.00    -0.358 OA
HETATM   68  H   UNK     0      19.802  45.693  15.576  0.00  0.00     0.217 HD
ENDBRANCH  63  67
BRANCH  64  69
HETATM   69  O   UNK     0      18.061  44.064  15.977  0.00  0.00    -0.356 OA
HETATM   70  H   UNK     0      17.883  45.022  15.702  0.00  0.00     0.218 HD
ENDBRANCH  64  69
BRANCH  65  71
HETATM   71  O   UNK     0      17.412  42.012  17.682  0.00  0.00    -0.358 OA
HETATM   72  H   UNK     0      16.550  42.456  17.394  0.00  0.00     0.217 HD
ENDBRANCH  65  71
ENDBRANCH  59  61
ENDBRANCH  58  59
ENDBRANCH  17  58
BRANCH  20  73
HETATM   73  O   UNK     0      24.835  38.367  19.865  0.00  0.00    -0.390 OA
HETATM   74  H   UNK     0      25.573  37.989  20.446  0.00  0.00     0.210 HD
ENDBRANCH  20  73
BRANCH   5  75
HETATM   75  O   UNK     0      29.494  36.160  16.761  0.00  0.00    -0.358 OA
HETATM   76  H   UNK     0      29.613  35.410  16.093  0.00  0.00     0.217 HD
ENDBRANCH   5  75
BRANCH   3  77
HETATM   77  O   UNK     0      28.871  34.026  18.370  0.00  0.00    -0.357 OA
HETATM   78  H   UNK     0      28.471  33.120  18.574  0.00  0.00     0.217 HD
ENDBRANCH   3  77
BRANCH  12  79
HETATM   79  O   UNK     0      22.600  34.105  23.302  0.00  0.00    -0.304 OA
BRANCH  79  80
HETATM   80  C   UNK     0      21.517  33.314  23.562  0.00  0.00     0.129 A 
HETATM   81  C   UNK     0      20.266  33.757  23.971  0.00  0.00     0.077 A 
HETATM   82  C   UNK     0      19.263  32.831  24.233  0.00  0.00     0.060 A 
HETATM   83  C   UNK     0      19.498  31.472  24.086  0.00  0.00     0.102 A 
HETATM   84  C   UNK     0      20.741  31.033  23.668  0.00  0.00     0.135 A 
HETATM   85  C   UNK     0      21.739  31.952  23.407  0.00  0.00     0.137 A 
BRANCH  81  86
HETATM   86  C   UNK     0      19.976  35.183  24.133  0.00  0.00     0.179 C 
HETATM   87  O   UNK     0      18.944  35.648  23.707  0.00  0.00    -0.646 OA
BRANCH  86  88
HETATM   88  O   UNK     0      20.879  35.983  24.764  0.00  0.00    -0.773 OA
HETATM   89  H   UNK     0      20.561  36.785  25.293  0.00  0.00     0.167 HD
ENDBRANCH  86  88
ENDBRANCH  81  86
BRANCH  83  90
HETATM   90  O   UNK     0      18.514  30.571  24.350  0.00  0.00    -0.358 OA
HETATM   91  H   UNK     0      18.435  29.732  23.789  0.00  0.00     0.217 HD
ENDBRANCH  83  90
BRANCH  84  92
HETATM   92  O   UNK     0      20.985  29.702  23.515  0.00  0.00    -0.356 OA
HETATM   93  H   UNK     0      20.219  29.065  23.340  0.00  0.00     0.218 HD
ENDBRANCH  84  92
BRANCH  85  94
HETATM   94  O   UNK     0      22.960  31.516  22.994  0.00  0.00    -0.356 OA
HETATM   95  H   UNK     0      23.716  31.422  23.661  0.00  0.00     0.218 HD
ENDBRANCH  85  94
ENDBRANCH  79  80
ENDBRANCH  12  79
BRANCH  10  96
HETATM   96  O   UNK     0      25.035  33.379  22.910  0.00  0.00    -0.357 OA
HETATM   97  H   UNK     0      25.808  33.527  23.546  0.00  0.00     0.217 HD
ENDBRANCH  10  96
TORSDOF 26
ENDMDL
MODEL 8
REMARK VINA RESULT:     -10.6      1.787      3.130
REMARK  26 active torsions:
REMARK  status: ('A' for Active; 'I' for Inactive)
REMARK    1  A    between atoms: C_1  and  C_7 
REMARK    2  A    between atoms: C_4  and  O_9 
REMARK    3  A    between atoms: C_5  and  O_11 
REMARK    4  A    between atoms: C_6  and  O_10 
REMARK    5  A    between atoms: C_12  and  C_18 
REMARK    6  A    between atoms: C_15  and  O_76 
REMARK    7  A    between atoms: C_18  and  O_74 
REMARK    8  A    between atoms: C_21  and  O_25 
REMARK    9  A    between atoms: C_23  and  O_26 
REMARK   10  A    between atoms: C_30  and  O_35 
REMARK   11  A    between atoms: C_32  and  O_36 
REMARK   12  A    between atoms: O_36  and  C_67 
REMARK   13  A    between atoms: C_39  and  O_60 
REMARK   14  A    between atoms: C_41  and  O_58 
REMARK   15  A    between atoms: C_42  and  C_45 
REMARK   16  A    between atoms: C_43  and  O_59 
REMARK   17  A    between atoms: C_45  and  O_53 
REMARK   18  A    between atoms: C_47  and  O_53 
REMARK   19  A    between atoms: C_50  and  O_55 
REMARK   20  A    between atoms: C_51  and  C_54 
REMARK   21  A    between atoms: C_54  and  O_74 
REMARK   22  A    between atoms: C_64  and  O_69 
REMARK   23  A    between atoms: C_65  and  C_72 
REMARK   24  A    between atoms: C_66  and  O_70 
REMARK   25  A    between atoms: C_68  and  O_71 
REMARK   26  A    between atoms: C_72  and  O_73 
ROOT
HETATM    1  C   UNK     0      27.360  37.514  19.421  0.00  0.00     0.026 A 
HETATM    2  C   UNK     0      26.291  38.426  19.454  0.00  0.00     0.006 A 
HETATM    3  C   UNK     0      28.517  37.691  18.687  0.00  0.00     0.111 A 
HETATM    4  C   UNK     0      26.464  39.539  18.579  0.00  0.00     0.054 A 
HETATM    5  C   UNK     0      28.667  38.805  17.904  0.00  0.00     0.100 A 
HETATM    6  C   UNK     0      27.631  39.705  17.846  0.00  0.00     0.058 A 
HETATM    7  O   UNK     0      27.273  36.362  20.131  0.00  0.00     0.000 OA
HETATM    8  C   UNK     0      25.685  36.972  21.342  0.00  0.00     0.026 A 
HETATM    9  C   UNK     0      25.133  37.919  20.474  0.00  0.00     0.006 A 
HETATM   10  C   UNK     0      24.956  36.231  22.234  0.00  0.00     0.111 A 
HETATM   11  C   UNK     0      23.732  38.170  20.678  0.00  0.00     0.054 A 
HETATM   12  C   UNK     0      23.608  36.404  22.352  0.00  0.00     0.111 A 
HETATM   13  C   UNK     0      23.004  37.394  21.594  0.00  0.00     0.058 A 
HETATM   14  C   UNK     0      22.863  39.184  20.018  0.00  0.00     0.294 C 
HETATM   15  O   UNK     0      27.020  36.746  21.321  0.00  0.00     0.000 OA
HETATM   16  O   UNK     0      22.642  39.095  18.833  0.00  0.00    -0.259 OA
HETATM   17  C   UNK     0      22.207  42.732  20.662  0.00  0.00     0.302 C 
HETATM   18  C   UNK     0      22.650  41.426  20.045  0.00  0.00     0.219 C 
HETATM   19  O   UNK     0      22.841  43.840  19.913  0.00  0.00    -0.348 OA
HETATM   20  C   UNK     0      24.038  41.503  20.009  0.00  0.00     0.184 C 
HETATM   21  C   UNK     0      24.070  43.710  19.090  0.00  0.00     0.181 C 
HETATM   22  C   UNK     0      24.363  42.226  18.821  0.00  0.00     0.194 C 
HETATM   23  O   UNK     0      25.704  41.932  18.514  0.00  0.00    -0.307 OA
HETATM   24  O   UNK     0      22.302  40.249  20.746  0.00  0.00    -0.304 OA
HETATM   25  C   UNK     0      25.519  40.581  18.268  0.00  0.00     0.294 C 
HETATM   26  O   UNK     0      24.465  40.248  17.778  0.00  0.00    -0.259 OA
HETATM   27  H   UNK     0      28.031  35.693  20.103  0.00  0.00     0.000 HD
HETATM   28  H   UNK     0      27.427  36.060  21.943  0.00  0.00     0.000 HD
ENDROOT
BRANCH  21  29
HETATM   29  C   UNK     0      23.868  44.419  17.728  0.00  0.00     0.213 C 
BRANCH  29  30
HETATM   30  O   UNK     0      23.978  43.619  16.550  0.00  0.00    -0.315 OA
BRANCH  30  31
HETATM   31  C   UNK     0      23.098  43.804  15.523  0.00  0.00     0.293 C 
HETATM   32  O   UNK     0      23.198  44.793  14.835  0.00  0.00    -0.259 OA
BRANCH  31  33
HETATM   33  C   UNK     0      22.041  42.809  15.198  0.00  0.00     0.044 A 
HETATM   34  C   UNK     0      21.929  41.688  16.005  0.00  0.00     0.055 A 
HETATM   35  C   UNK     0      20.974  40.723  15.738  0.00  0.00     0.080 A 
HETATM   36  C   UNK     0      20.122  40.876  14.661  0.00  0.00     0.047 A 
HETATM   37  C   UNK     0      20.216  41.993  13.839  0.00  0.00     0.091 A 
HETATM   38  O   UNK     0      19.186  39.922  14.406  0.00  0.00     0.000 OA
HETATM   39  C   UNK     0      21.182  42.961  14.111  0.00  0.00     0.056 A 
HETATM   40  O   UNK     0      19.364  42.127  12.768  0.00  0.00    -0.306 OA
HETATM   41  C   UNK     0      18.435  41.157  12.497  0.00  0.00     0.121 A 
HETATM   42  O   UNK     0      18.397  40.169  13.194  0.00  0.00     0.000 OA
HETATM   43  H   UNK     0      18.559  40.026  13.618  0.00  0.00     0.000 HD
BRANCH  35  44
HETATM   44  O   UNK     0      20.875  39.621  16.530  0.00  0.00    -0.360 OA
HETATM   45  H   UNK     0      21.129  38.711  16.165  0.00  0.00     0.217 HD
ENDBRANCH  35  44
BRANCH  41  46
HETATM   46  C   UNK     0      17.468  41.271  11.389  0.00  0.00     0.006 A 
HETATM   47  C   UNK     0      17.894  41.806  10.182  0.00  0.00     0.054 A 
HETATM   48  C   UNK     0      17.014  41.915   9.116  0.00  0.00     0.102 A 
HETATM   49  C   UNK     0      15.704  41.488   9.258  0.00  0.00     0.132 A 
HETATM   50  C   UNK     0      15.274  40.955  10.465  0.00  0.00     0.102 A 
HETATM   51  C   UNK     0      16.156  40.844  11.531  0.00  0.00     0.054 A 
BRANCH  48  52
HETATM   52  O   UNK     0      17.436  42.437   7.935  0.00  0.00    -0.358 OA
HETATM   53  H   UNK     0      18.251  42.052   7.474  0.00  0.00     0.217 HD
ENDBRANCH  48  52
BRANCH  49  54
HETATM   54  O   UNK     0      14.841  41.593   8.212  0.00  0.00    -0.356 OA
HETATM   55  H   UNK     0      15.127  41.294   7.288  0.00  0.00     0.218 HD
ENDBRANCH  49  54
BRANCH  50  56
HETATM   56  O   UNK     0      13.985  40.540  10.602  0.00  0.00    -0.358 OA
HETATM   57  H   UNK     0      13.708  40.010  11.418  0.00  0.00     0.217 HD
ENDBRANCH  50  56
ENDBRANCH  41  46
ENDBRANCH  31  33
ENDBRANCH  30  31
ENDBRANCH  29  30
ENDBRANCH  21  29
BRANCH  17  58
HETATM   58  O   UNK     0      20.797  42.845  20.595  0.00  0.00    -0.283 OA
BRANCH  58  59
HETATM   59  C   UNK     0      20.212  43.733  19.749  0.00  0.00     0.295 C 
HETATM   60  O   UNK     0      20.383  44.922  19.897  0.00  0.00    -0.259 OA
BRANCH  59  61
HETATM   61  C   UNK     0      19.365  43.237  18.654  0.00  0.00     0.045 A 
HETATM   62  C   UNK     0      18.767  41.991  18.757  0.00  0.00     0.057 A 
HETATM   63  C   UNK     0      17.962  41.520  17.732  0.00  0.00     0.102 A 
HETATM   64  C   UNK     0      17.759  42.294  16.601  0.00  0.00     0.132 A 
HETATM   65  C   UNK     0      18.358  43.541  16.498  0.00  0.00     0.102 A 
HETATM   66  C   UNK     0      19.160  44.014  17.525  0.00  0.00     0.057 A 
BRANCH  63  67
HETATM   67  O   UNK     0      17.372  40.299  17.838  0.00  0.00    -0.358 OA
HETATM   68  H   UNK     0      16.998  39.846  17.014  0.00  0.00     0.217 HD
ENDBRANCH  63  67
BRANCH  64  69
HETATM   69  O   UNK     0      16.974  41.830  15.591  0.00  0.00    -0.356 OA
HETATM   70  H   UNK     0      17.372  41.243  14.869  0.00  0.00     0.218 HD
ENDBRANCH  64  69
BRANCH  65  71
HETATM   71  O   UNK     0      18.156  44.300  15.389  0.00  0.00    -0.358 OA
HETATM   72  H   UNK     0      18.806  44.250  14.616  0.00  0.00     0.217 HD
ENDBRANCH  65  71
ENDBRANCH  59  61
ENDBRANCH  58  59
ENDBRANCH  17  58
BRANCH  20  73
HETATM   73  O   UNK     0      24.610  40.205  19.974  0.00  0.00    -0.390 OA
HETATM   74  H   UNK     0      25.453  40.036  19.440  0.00  0.00     0.210 HD
ENDBRANCH  20  73
BRANCH   5  75
HETATM   75  O   UNK     0      29.805  39.003  17.186  0.00  0.00    -0.358 OA
HETATM   76  H   UNK     0      30.447  39.739  17.449  0.00  0.00     0.217 HD
ENDBRANCH   5  75
BRANCH   3  77
HETATM   77  O   UNK     0      29.505  36.759  18.738  0.00  0.00    -0.357 OA
HETATM   78  H   UNK     0      29.894  36.483  19.630  0.00  0.00     0.217 HD
ENDBRANCH   3  77
BRANCH  12  79
HETATM   79  O   UNK     0      23.028  35.528  23.230  0.00  0.00    -0.304 OA
BRANCH  79  80
HETATM   80  C   UNK     0      21.980  34.687  23.478  0.00  0.00     0.129 A 
HETATM   81  C   UNK     0      20.718  35.067  23.918  0.00  0.00     0.077 A 
HETATM   82  C   UNK     0      19.757  34.095  24.164  0.00  0.00     0.060 A 
HETATM   83  C   UNK     0      20.042  32.752  23.969  0.00  0.00     0.102 A 
HETATM   84  C   UNK     0      21.295  32.375  23.520  0.00  0.00     0.135 A 
HETATM   85  C   UNK     0      22.252  33.341  23.276  0.00  0.00     0.137 A 
BRANCH  81  86
HETATM   86  C   UNK     0      20.376  36.476  24.130  0.00  0.00     0.179 C 
HETATM   87  O   UNK     0      19.401  36.953  23.597  0.00  0.00    -0.646 OA
BRANCH  86  88
HETATM   88  O   UNK     0      21.165  37.244  24.930  0.00  0.00    -0.773 OA
HETATM   89  H   UNK     0      21.972  36.837  25.384  0.00  0.00     0.167 HD
ENDBRANCH  86  88
ENDBRANCH  81  86
BRANCH  83  90
HETATM   90  O   UNK     0      19.098  31.804  24.217  0.00  0.00    -0.358 OA
HETATM   91  H   UNK     0      19.038  30.985  23.626  0.00  0.00     0.217 HD
ENDBRANCH  83  90
BRANCH  84  92
HETATM   92  O   UNK     0      21.588  31.061  23.321  0.00  0.00    -0.356 OA
HETATM   93  H   UNK     0      20.891  30.442  22.928  0.00  0.00     0.218 HD
ENDBRANCH  84  92
BRANCH  85  94
HETATM   94  O   UNK     0      23.483  32.967  22.833  0.00  0.00    -0.356 OA
HETATM   95  H   UNK     0      24.234  33.645  22.792  0.00  0.00     0.218 HD
ENDBRANCH  85  94
ENDBRANCH  79  80
ENDBRANCH  12  79
BRANCH  10  96
HETATM   96  O   UNK     0      25.578  35.297  23.002  0.00  0.00    -0.357 OA
HETATM   97  H   UNK     0      25.174  34.374  23.103  0.00  0.00     0.217 HD
ENDBRANCH  10  96
TORSDOF 26
ENDMDL
MODEL 9
REMARK VINA RESULT:     -10.5      1.269      2.150
REMARK  26 active torsions:
REMARK  status: ('A' for Active; 'I' for Inactive)
REMARK    1  A    between atoms: C_1  and  C_7 
REMARK    2  A    between atoms: C_4  and  O_9 
REMARK    3  A    between atoms: C_5  and  O_11 
REMARK    4  A    between atoms: C_6  and  O_10 
REMARK    5  A    between atoms: C_12  and  C_18 
REMARK    6  A    between atoms: C_15  and  O_76 
REMARK    7  A    between atoms: C_18  and  O_74 
REMARK    8  A    between atoms: C_21  and  O_25 
REMARK    9  A    between atoms: C_23  and  O_26 
REMARK   10  A    between atoms: C_30  and  O_35 
REMARK   11  A    between atoms: C_32  and  O_36 
REMARK   12  A    between atoms: O_36  and  C_67 
REMARK   13  A    between atoms: C_39  and  O_60 
REMARK   14  A    between atoms: C_41  and  O_58 
REMARK   15  A    between atoms: C_42  and  C_45 
REMARK   16  A    between atoms: C_43  and  O_59 
REMARK   17  A    between atoms: C_45  and  O_53 
REMARK   18  A    between atoms: C_47  and  O_53 
REMARK   19  A    between atoms: C_50  and  O_55 
REMARK   20  A    between atoms: C_51  and  C_54 
REMARK   21  A    between atoms: C_54  and  O_74 
REMARK   22  A    between atoms: C_64  and  O_69 
REMARK   23  A    between atoms: C_65  and  C_72 
REMARK   24  A    between atoms: C_66  and  O_70 
REMARK   25  A    between atoms: C_68  and  O_71 
REMARK   26  A    between atoms: C_72  and  O_73 
ROOT
HETATM    1  C   UNK     0      27.622  37.623  19.395  0.00  0.00     0.026 A 
HETATM    2  C   UNK     0      26.512  38.486  19.381  0.00  0.00     0.006 A 
HETATM    3  C   UNK     0      28.798  37.850  18.706  0.00  0.00     0.111 A 
HETATM    4  C   UNK     0      26.668  39.603  18.508  0.00  0.00     0.054 A 
HETATM    5  C   UNK     0      28.928  38.968  17.924  0.00  0.00     0.100 A 
HETATM    6  C   UNK     0      27.855  39.819  17.820  0.00  0.00     0.058 A 
HETATM    7  O   UNK     0      27.560  36.472  20.108  0.00  0.00     0.000 OA
HETATM    8  C   UNK     0      25.898  37.013  21.252  0.00  0.00     0.026 A 
HETATM    9  C   UNK     0      25.339  37.930  20.358  0.00  0.00     0.006 A 
HETATM   10  C   UNK     0      25.170  36.243  22.119  0.00  0.00     0.111 A 
HETATM   11  C   UNK     0      23.921  38.118  20.505  0.00  0.00     0.054 A 
HETATM   12  C   UNK     0      23.812  36.354  22.182  0.00  0.00     0.111 A 
HETATM   13  C   UNK     0      23.194  37.313  21.396  0.00  0.00     0.058 A 
HETATM   14  C   UNK     0      23.034  39.088  19.806  0.00  0.00     0.294 C 
HETATM   15  O   UNK     0      27.242  36.848  21.285  0.00  0.00     0.000 OA
HETATM   16  O   UNK     0      22.864  38.985  18.613  0.00  0.00    -0.259 OA
HETATM   17  C   UNK     0      22.192  42.605  20.404  0.00  0.00     0.302 C 
HETATM   18  C   UNK     0      22.718  41.319  19.811  0.00  0.00     0.219 C 
HETATM   19  O   UNK     0      22.803  43.738  19.674  0.00  0.00    -0.348 OA
HETATM   20  C   UNK     0      24.101  41.459  19.830  0.00  0.00     0.184 C 
HETATM   21  C   UNK     0      24.068  43.661  18.900  0.00  0.00     0.181 C 
HETATM   22  C   UNK     0      24.439  42.191  18.652  0.00  0.00     0.194 C 
HETATM   23  O   UNK     0      25.803  41.958  18.400  0.00  0.00    -0.307 OA
HETATM   24  O   UNK     0      22.396  40.129  20.505  0.00  0.00    -0.304 OA
HETATM   25  C   UNK     0      25.690  40.599  18.153  0.00  0.00     0.294 C 
HETATM   26  O   UNK     0      24.673  40.216  17.625  0.00  0.00    -0.259 OA
HETATM   27  H   UNK     0      28.348  35.838  20.114  0.00  0.00     0.000 HD
HETATM   28  H   UNK     0      27.655  36.184  21.927  0.00  0.00     0.000 HD
ENDROOT
BRANCH  21  29
HETATM   29  C   UNK     0      23.888  44.355  17.527  0.00  0.00     0.213 C 
BRANCH  29  30
HETATM   30  O   UNK     0      23.008  43.734  16.590  0.00  0.00    -0.315 OA
BRANCH  30  31
HETATM   31  C   UNK     0      23.469  43.400  15.349  0.00  0.00     0.293 C 
HETATM   32  O   UNK     0      24.582  42.939  15.241  0.00  0.00    -0.259 OA
BRANCH  31  33
HETATM   33  C   UNK     0      22.634  43.549  14.128  0.00  0.00     0.044 A 
HETATM   34  C   UNK     0      23.193  44.179  13.028  0.00  0.00     0.055 A 
HETATM   35  C   UNK     0      22.455  44.359  11.871  0.00  0.00     0.080 A 
HETATM   36  C   UNK     0      21.151  43.905  11.808  0.00  0.00     0.047 A 
HETATM   37  C   UNK     0      20.572  43.268  12.899  0.00  0.00     0.091 A 
HETATM   38  O   UNK     0      20.433  44.086  10.667  0.00  0.00     0.000 OA
HETATM   39  C   UNK     0      21.319  43.092  14.063  0.00  0.00     0.056 A 
HETATM   40  O   UNK     0      19.272  42.828  12.821  0.00  0.00    -0.306 OA
HETATM   41  C   UNK     0      18.539  43.028  11.680  0.00  0.00     0.121 A 
HETATM   42  O   UNK     0      19.043  43.624  10.757  0.00  0.00     0.000 OA
HETATM   43  H   UNK     0      19.477  43.757  10.613  0.00  0.00     0.000 HD
BRANCH  35  44
HETATM   44  O   UNK     0      23.007  44.987  10.798  0.00  0.00    -0.360 OA
HETATM   45  H   UNK     0      22.652  44.804   9.867  0.00  0.00     0.217 HD
ENDBRANCH  35  44
BRANCH  41  46
HETATM   46  C   UNK     0      17.157  42.537  11.527  0.00  0.00     0.006 A 
HETATM   47  C   UNK     0      16.714  42.166  10.267  0.00  0.00     0.054 A 
HETATM   48  C   UNK     0      15.425  41.688  10.091  0.00  0.00     0.102 A 
HETATM   49  C   UNK     0      14.575  41.582  11.180  0.00  0.00     0.132 A 
HETATM   50  C   UNK     0      15.014  41.956  12.442  0.00  0.00     0.102 A 
HETATM   51  C   UNK     0      16.306  42.431  12.618  0.00  0.00     0.054 A 
BRANCH  48  52
HETATM   52  O   UNK     0      14.996  41.323   8.854  0.00  0.00    -0.358 OA
HETATM   53  H   UNK     0      14.542  40.429   8.719  0.00  0.00     0.217 HD
ENDBRANCH  48  52
BRANCH  49  54
HETATM   54  O   UNK     0      13.311  41.111  11.008  0.00  0.00    -0.356 OA
HETATM   55  H   UNK     0      12.994  40.835  10.087  0.00  0.00     0.218 HD
ENDBRANCH  49  54
BRANCH  50  56
HETATM   56  O   UNK     0      14.176  41.853  13.509  0.00  0.00    -0.358 OA
HETATM   57  H   UNK     0      14.445  42.240  14.404  0.00  0.00     0.217 HD
ENDBRANCH  50  56
ENDBRANCH  41  46
ENDBRANCH  31  33
ENDBRANCH  30  31
ENDBRANCH  29  30
ENDBRANCH  21  29
BRANCH  17  58
HETATM   58  O   UNK     0      20.781  42.654  20.281  0.00  0.00    -0.283 OA
BRANCH  58  59
HETATM   59  C   UNK     0      20.147  43.830  20.034  0.00  0.00     0.295 C 
HETATM   60  O   UNK     0      19.982  44.633  20.925  0.00  0.00    -0.259 OA
BRANCH  59  61
HETATM   61  C   UNK     0      19.657  44.116  18.678  0.00  0.00     0.045 A 
HETATM   62  C   UNK     0      19.252  43.075  17.859  0.00  0.00     0.057 A 
HETATM   63  C   UNK     0      18.782  43.337  16.582  0.00  0.00     0.102 A 
HETATM   64  C   UNK     0      18.722  44.643  16.123  0.00  0.00     0.132 A 
HETATM   65  C   UNK     0      19.128  45.686  16.942  0.00  0.00     0.102 A 
HETATM   66  C   UNK     0      19.594  45.423  18.221  0.00  0.00     0.057 A 
BRANCH  63  67
HETATM   67  O   UNK     0      18.380  42.314  15.782  0.00  0.00    -0.358 OA
HETATM   68  H   UNK     0      17.399  42.199  15.562  0.00  0.00     0.217 HD
ENDBRANCH  63  67
BRANCH  64  69
HETATM   69  O   UNK     0      18.267  44.903  14.867  0.00  0.00    -0.356 OA
HETATM   70  H   UNK     0      17.975  45.839  14.617  0.00  0.00     0.218 HD
ENDBRANCH  64  69
BRANCH  65  71
HETATM   71  O   UNK     0      19.067  46.966  16.491  0.00  0.00    -0.358 OA
HETATM   72  H   UNK     0      19.887  47.401  16.091  0.00  0.00     0.217 HD
ENDBRANCH  65  71
ENDBRANCH  59  61
ENDBRANCH  58  59
ENDBRANCH  17  58
BRANCH  20  73
HETATM   73  O   UNK     0      24.732  40.188  19.825  0.00  0.00    -0.390 OA
HETATM   74  H   UNK     0      24.610  39.558  20.608  0.00  0.00     0.210 HD
ENDBRANCH  20  73
BRANCH   5  75
HETATM   75  O   UNK     0      30.083  39.214  17.250  0.00  0.00    -0.358 OA
HETATM   76  H   UNK     0      30.418  40.164  17.151  0.00  0.00     0.217 HD
ENDBRANCH   5  75
BRANCH   3  77
HETATM   77  O   UNK     0      29.825  36.965  18.802  0.00  0.00    -0.357 OA
HETATM   78  H   UNK     0      30.569  37.124  19.468  0.00  0.00     0.217 HD
ENDBRANCH   3  77
BRANCH  12  79
HETATM   79  O   UNK     0      23.237  35.456  23.042  0.00  0.00    -0.304 OA
BRANCH  79  80
HETATM   80  C   UNK     0      22.186  34.617  23.280  0.00  0.00     0.129 A 
HETATM   81  C   UNK     0      20.911  35.002  23.677  0.00  0.00     0.077 A 
HETATM   82  C   UNK     0      19.947  34.032  23.918  0.00  0.00     0.060 A 
HETATM   83  C   UNK     0      20.242  32.686  23.763  0.00  0.00     0.102 A 
HETATM   84  C   UNK     0      21.508  32.304  23.358  0.00  0.00     0.135 A 
HETATM   85  C   UNK     0      22.469  33.267  23.118  0.00  0.00     0.137 A 
BRANCH  81  86
HETATM   86  C   UNK     0      20.558  36.413  23.846  0.00  0.00     0.179 C 
HETATM   87  O   UNK     0      19.571  36.863  23.311  0.00  0.00    -0.646 OA
BRANCH  86  88
HETATM   88  O   UNK     0      21.350  37.215  24.609  0.00  0.00    -0.773 OA
HETATM   89  H   UNK     0      22.062  36.807  25.200  0.00  0.00     0.167 HD
ENDBRANCH  86  88
ENDBRANCH  81  86
BRANCH  83  90
HETATM   90  O   UNK     0      19.295  31.740  24.007  0.00  0.00    -0.358 OA
HETATM   91  H   UNK     0      18.443  31.727  23.461  0.00  0.00     0.217 HD
ENDBRANCH  83  90
BRANCH  84  92
HETATM   92  O   UNK     0      21.811  30.987  23.197  0.00  0.00    -0.356 OA
HETATM   93  H   UNK     0      21.069  30.303  23.125  0.00  0.00     0.218 HD
ENDBRANCH  84  92
BRANCH  85  94
HETATM   94  O   UNK     0      23.713  32.889  22.718  0.00  0.00    -0.356 OA
HETATM   95  H   UNK     0      24.066  31.972  22.963  0.00  0.00     0.218 HD
ENDBRANCH  85  94
ENDBRANCH  79  80
ENDBRANCH  12  79
BRANCH  10  96
HETATM   96  O   UNK     0      25.802  35.341  22.916  0.00  0.00    -0.357 OA
HETATM   97  H   UNK     0      25.414  34.415  23.041  0.00  0.00     0.217 HD
ENDBRANCH  10  96
TORSDOF 26
ENDMDL
MODEL 10
REMARK VINA RESULT:     -10.5      1.364      2.488
REMARK  26 active torsions:
REMARK  status: ('A' for Active; 'I' for Inactive)
REMARK    1  A    between atoms: C_1  and  C_7 
REMARK    2  A    between atoms: C_4  and  O_9 
REMARK    3  A    between atoms: C_5  and  O_11 
REMARK    4  A    between atoms: C_6  and  O_10 
REMARK    5  A    between atoms: C_12  and  C_18 
REMARK    6  A    between atoms: C_15  and  O_76 
REMARK    7  A    between atoms: C_18  and  O_74 
REMARK    8  A    between atoms: C_21  and  O_25 
REMARK    9  A    between atoms: C_23  and  O_26 
REMARK   10  A    between atoms: C_30  and  O_35 
REMARK   11  A    between atoms: C_32  and  O_36 
REMARK   12  A    between atoms: O_36  and  C_67 
REMARK   13  A    between atoms: C_39  and  O_60 
REMARK   14  A    between atoms: C_41  and  O_58 
REMARK   15  A    between atoms: C_42  and  C_45 
REMARK   16  A    between atoms: C_43  and  O_59 
REMARK   17  A    between atoms: C_45  and  O_53 
REMARK   18  A    between atoms: C_47  and  O_53 
REMARK   19  A    between atoms: C_50  and  O_55 
REMARK   20  A    between atoms: C_51  and  C_54 
REMARK   21  A    between atoms: C_54  and  O_74 
REMARK   22  A    between atoms: C_64  and  O_69 
REMARK   23  A    between atoms: C_65  and  C_72 
REMARK   24  A    between atoms: C_66  and  O_70 
REMARK   25  A    between atoms: C_68  and  O_71 
REMARK   26  A    between atoms: C_72  and  O_73 
ROOT
HETATM    1  C   UNK     0      27.869  38.097  19.405  0.00  0.00     0.026 A 
HETATM    2  C   UNK     0      26.754  38.912  19.145  0.00  0.00     0.006 A 
HETATM    3  C   UNK     0      29.092  38.220  18.774  0.00  0.00     0.111 A 
HETATM    4  C   UNK     0      26.964  39.847  18.089  0.00  0.00     0.054 A 
HETATM    5  C   UNK     0      29.269  39.172  17.804  0.00  0.00     0.100 A 
HETATM    6  C   UNK     0      28.197  39.960  17.462  0.00  0.00     0.058 A 
HETATM    7  O   UNK     0      27.766  37.100  20.318  0.00  0.00     0.000 OA
HETATM    8  C   UNK     0      26.015  37.805  21.213  0.00  0.00     0.026 A 
HETATM    9  C   UNK     0      25.516  38.521  20.121  0.00  0.00     0.006 A 
HETATM   10  C   UNK     0      25.231  37.194  22.155  0.00  0.00     0.111 A 
HETATM   11  C   UNK     0      24.089  38.697  20.125  0.00  0.00     0.054 A 
HETATM   12  C   UNK     0      23.871  37.280  22.096  0.00  0.00     0.111 A 
HETATM   13  C   UNK     0      23.304  38.056  21.098  0.00  0.00     0.058 A 
HETATM   14  C   UNK     0      23.247  39.493  19.191  0.00  0.00     0.294 C 
HETATM   15  O   UNK     0      27.354  37.684  21.375  0.00  0.00     0.000 OA
HETATM   16  O   UNK     0      23.170  39.161  18.031  0.00  0.00    -0.259 OA
HETATM   17  C   UNK     0      22.320  43.036  19.043  0.00  0.00     0.302 C 
HETATM   18  C   UNK     0      22.905  41.675  18.748  0.00  0.00     0.219 C 
HETATM   19  O   UNK     0      22.973  44.026  18.158  0.00  0.00    -0.348 OA
HETATM   20  C   UNK     0      24.281  41.853  18.841  0.00  0.00     0.184 C 
HETATM   21  C   UNK     0      24.294  43.837  17.508  0.00  0.00     0.181 C 
HETATM   22  C   UNK     0      24.700  42.357  17.572  0.00  0.00     0.194 C 
HETATM   23  O   UNK     0      26.082  42.116  17.470  0.00  0.00    -0.307 OA
HETATM   24  O   UNK     0      22.544  40.631  19.630  0.00  0.00    -0.304 OA
HETATM   25  C   UNK     0      26.004  40.732  17.480  0.00  0.00     0.294 C 
HETATM   26  O   UNK     0      25.035  40.230  16.961  0.00  0.00    -0.259 OA
HETATM   27  H   UNK     0      28.559  36.500  20.503  0.00  0.00     0.000 HD
HETATM   28  H   UNK     0      27.724  37.165  22.160  0.00  0.00     0.000 HD
ENDROOT
BRANCH  21  29
HETATM   29  C   UNK     0      24.212  44.253  16.018  0.00  0.00     0.213 C 
BRANCH  29  30
HETATM   30  O   UNK     0      24.964  43.482  15.080  0.00  0.00    -0.315 OA
BRANCH  30  31
HETATM   31  C   UNK     0      24.376  43.070  13.919  0.00  0.00     0.293 C 
HETATM   32  O   UNK     0      24.845  43.430  12.864  0.00  0.00    -0.259 OA
BRANCH  31  33
HETATM   33  C   UNK     0      23.198  42.162  13.907  0.00  0.00     0.044 A 
HETATM   34  C   UNK     0      23.346  40.895  14.449  0.00  0.00     0.055 A 
HETATM   35  C   UNK     0      22.288  40.004  14.449  0.00  0.00     0.080 A 
HETATM   36  C   UNK     0      21.072  40.377  13.909  0.00  0.00     0.047 A 
HETATM   37  C   UNK     0      20.902  41.644  13.362  0.00  0.00     0.091 A 
HETATM   38  O   UNK     0      20.037  39.494  13.914  0.00  0.00     0.000 OA
HETATM   39  C   UNK     0      21.972  42.537  13.362  0.00  0.00     0.056 A 
HETATM   40  O   UNK     0      19.687  41.997  12.824  0.00  0.00    -0.306 OA
HETATM   41  C   UNK     0      18.649  41.102  12.808  0.00  0.00     0.121 A 
HETATM   42  O   UNK     0      18.827  39.989  13.246  0.00  0.00     0.000 OA
HETATM   43  H   UNK     0      19.143  39.760  13.519  0.00  0.00     0.000 HD
BRANCH  35  44
HETATM   44  O   UNK     0      22.442  38.759  14.975  0.00  0.00    -0.360 OA
HETATM   45  H   UNK     0      21.840  38.003  14.671  0.00  0.00     0.217 HD
ENDBRANCH  35  44
BRANCH  41  46
HETATM   46  C   UNK     0      17.313  41.444  12.283  0.00  0.00     0.006 A 
HETATM   47  C   UNK     0      17.151  41.596  10.914  0.00  0.00     0.054 A 
HETATM   48  C   UNK     0      15.906  41.904  10.388  0.00  0.00     0.102 A 
HETATM   49  C   UNK     0      14.821  42.062  11.233  0.00  0.00     0.132 A 
HETATM   50  C   UNK     0      14.980  41.914  12.604  0.00  0.00     0.102 A 
HETATM   51  C   UNK     0      16.226  41.602  13.130  0.00  0.00     0.054 A 
BRANCH  48  52
HETATM   52  O   UNK     0      15.751  42.049   9.046  0.00  0.00    -0.358 OA
HETATM   53  H   UNK     0      16.564  42.091   8.444  0.00  0.00     0.217 HD
ENDBRANCH  48  52
BRANCH  49  54
HETATM   54  O   UNK     0      13.599  42.362  10.717  0.00  0.00    -0.356 OA
HETATM   55  H   UNK     0      13.458  43.234  10.223  0.00  0.00     0.218 HD
ENDBRANCH  49  54
BRANCH  50  56
HETATM   56  O   UNK     0      13.912  42.072  13.432  0.00  0.00    -0.358 OA
HETATM   57  H   UNK     0      13.841  42.896  14.014  0.00  0.00     0.217 HD
ENDBRANCH  50  56
ENDBRANCH  41  46
ENDBRANCH  31  33
ENDBRANCH  30  31
ENDBRANCH  29  30
ENDBRANCH  21  29
BRANCH  17  58
HETATM   58  O   UNK     0      20.922  43.024  18.810  0.00  0.00    -0.283 OA
BRANCH  58  59
HETATM   59  C   UNK     0      20.176  44.142  19.011  0.00  0.00     0.295 C 
HETATM   60  O   UNK     0      19.952  44.533  20.134  0.00  0.00    -0.259 OA
BRANCH  59  61
HETATM   61  C   UNK     0      19.639  44.869  17.852  0.00  0.00     0.045 A 
HETATM   62  C   UNK     0      19.402  44.193  16.665  0.00  0.00     0.057 A 
HETATM   63  C   UNK     0      18.889  44.871  15.571  0.00  0.00     0.102 A 
HETATM   64  C   UNK     0      18.616  46.226  15.662  0.00  0.00     0.132 A 
HETATM   65  C   UNK     0      18.852  46.902  16.849  0.00  0.00     0.102 A 
HETATM   66  C   UNK     0      19.362  46.224  17.946  0.00  0.00     0.057 A 
BRANCH  63  67
HETATM   67  O   UNK     0      18.653  44.205  14.409  0.00  0.00    -0.358 OA
HETATM   68  H   UNK     0      18.390  44.717  13.577  0.00  0.00     0.217 HD
ENDBRANCH  63  67
BRANCH  64  69
HETATM   69  O   UNK     0      18.118  46.894  14.586  0.00  0.00    -0.356 OA
HETATM   70  H   UNK     0      18.416  47.843  14.397  0.00  0.00     0.218 HD
ENDBRANCH  64  69
BRANCH  65  71
HETATM   71  O   UNK     0      18.583  48.231  16.939  0.00  0.00    -0.358 OA
HETATM   72  H   UNK     0      18.882  48.755  17.750  0.00  0.00     0.217 HD
ENDBRANCH  65  71
ENDBRANCH  59  61
ENDBRANCH  58  59
ENDBRANCH  17  58
BRANCH  20  73
HETATM   73  O   UNK     0      24.925  40.620  19.124  0.00  0.00    -0.390 OA
HETATM   74  H   UNK     0      25.911  40.506  18.924  0.00  0.00     0.210 HD
ENDBRANCH  20  73
BRANCH   5  75
HETATM   75  O   UNK     0      30.470  39.317  17.183  0.00  0.00    -0.358 OA
HETATM   76  H   UNK     0      31.284  38.833  17.538  0.00  0.00     0.217 HD
ENDBRANCH   5  75
BRANCH   3  77
HETATM   77  O   UNK     0      30.119  37.396  19.112  0.00  0.00    -0.357 OA
HETATM   78  H   UNK     0      30.374  36.630  18.503  0.00  0.00     0.217 HD
ENDBRANCH   3  77
BRANCH  12  79
HETATM   79  O   UNK     0      23.243  36.546  23.067  0.00  0.00    -0.304 OA
BRANCH  79  80
HETATM   80  C   UNK     0      22.235  35.672  23.364  0.00  0.00     0.129 A 
HETATM   81  C   UNK     0      20.954  36.017  23.774  0.00  0.00     0.077 A 
HETATM   82  C   UNK     0      20.039  35.016  24.077  0.00  0.00     0.060 A 
HETATM   83  C   UNK     0      20.392  33.678  23.971  0.00  0.00     0.102 A 
HETATM   84  C   UNK     0      21.665  33.336  23.552  0.00  0.00     0.135 A 
HETATM   85  C   UNK     0      22.576  34.331  23.250  0.00  0.00     0.137 A 
BRANCH  81  86
HETATM   86  C   UNK     0      20.541  37.417  23.894  0.00  0.00     0.179 C 
HETATM   87  O   UNK     0      19.634  37.845  23.218  0.00  0.00    -0.646 OA
BRANCH  86  88
HETATM   88  O   UNK     0      21.187  38.233  24.770  0.00  0.00    -0.773 OA
HETATM   89  H   UNK     0      20.714  38.553  25.605  0.00  0.00     0.167 HD
ENDBRANCH  86  88
ENDBRANCH  81  86
BRANCH  83  90
HETATM   90  O   UNK     0      19.494  32.703  24.275  0.00  0.00    -0.358 OA
HETATM   91  H   UNK     0      19.641  31.760  23.941  0.00  0.00     0.217 HD
ENDBRANCH  83  90
BRANCH  84  92
HETATM   92  O   UNK     0      22.024  32.028  23.438  0.00  0.00    -0.356 OA
HETATM   93  H   UNK     0      21.816  31.381  24.188  0.00  0.00     0.218 HD
ENDBRANCH  84  92
BRANCH  85  94
HETATM   94  O   UNK     0      23.826  33.991  22.837  0.00  0.00    -0.356 OA
HETATM   95  H   UNK     0      23.963  33.579  21.922  0.00  0.00     0.218 HD
ENDBRANCH  85  94
ENDBRANCH  79  80
ENDBRANCH  12  79
BRANCH  10  96
HETATM   96  O   UNK     0      25.811  36.476  23.154  0.00  0.00    -0.357 OA
HETATM   97  H   UNK     0      26.795  36.595  23.358  0.00  0.00     0.217 HD
ENDBRANCH  10  96
TORSDOF 26
ENDMDL
