REMARK VINA RESULT:     -10.5      1.364      2.488
REMARK  26 active torsions:
REMARK  status: ('A' for Active; 'I' for Inactive)
REMARK    1  A    between atoms: C_1  and  C_7 
REMARK    2  A    between atoms: C_4  and  O_9 
REMARK    3  A    between atoms: C_5  and  O_11 
REMARK    4  A    between atoms: C_6  and  O_10 
REMARK    5  A    between atoms: C_12  and  C_18 
REMARK    6  A    between atoms: C_15  and  O_76 
REMARK    7  A    between atoms: C_18  and  O_74 
REMARK    8  A    between atoms: C_21  and  O_25 
REMARK    9  A    between atoms: C_23  and  O_26 
REMARK   10  A    between atoms: C_30  and  O_35 
REMARK   11  A    between atoms: C_32  and  O_36 
REMARK   12  A    between atoms: O_36  and  C_67 
REMARK   13  A    between atoms: C_39  and  O_60 
REMARK   14  A    between atoms: C_41  and  O_58 
REMARK   15  A    between atoms: C_42  and  C_45 
REMARK   16  A    between atoms: C_43  and  O_59 
REMARK   17  A    between atoms: C_45  and  O_53 
REMARK   18  A    between atoms: C_47  and  O_53 
REMARK   19  A    between atoms: C_50  and  O_55 
REMARK   20  A    between atoms: C_51  and  C_54 
REMARK   21  A    between atoms: C_54  and  O_74 
REMARK   22  A    between atoms: C_64  and  O_69 
REMARK   23  A    between atoms: C_65  and  C_72 
REMARK   24  A    between atoms: C_66  and  O_70 
REMARK   25  A    between atoms: C_68  and  O_71 
REMARK   26  A    between atoms: C_72  and  O_73 
ROOT
HETATM    1  C   UNK     0      27.869  38.097  19.405  0.00  0.00     0.026 A 
HETATM    2  C   UNK     0      26.754  38.912  19.145  0.00  0.00     0.006 A 
HETATM    3  C   UNK     0      29.092  38.220  18.774  0.00  0.00     0.111 A 
HETATM    4  C   UNK     0      26.964  39.847  18.089  0.00  0.00     0.054 A 
HETATM    5  C   UNK     0      29.269  39.172  17.804  0.00  0.00     0.100 A 
HETATM    6  C   UNK     0      28.197  39.960  17.462  0.00  0.00     0.058 A 
HETATM    7  O   UNK     0      27.766  37.100  20.318  0.00  0.00     0.000 OA
HETATM    8  C   UNK     0      26.015  37.805  21.213  0.00  0.00     0.026 A 
HETATM    9  C   UNK     0      25.516  38.521  20.121  0.00  0.00     0.006 A 
HETATM   10  C   UNK     0      25.231  37.194  22.155  0.00  0.00     0.111 A 
HETATM   11  C   UNK     0      24.089  38.697  20.125  0.00  0.00     0.054 A 
HETATM   12  C   UNK     0      23.871  37.280  22.096  0.00  0.00     0.111 A 
HETATM   13  C   UNK     0      23.304  38.056  21.098  0.00  0.00     0.058 A 
HETATM   14  C   UNK     0      23.247  39.493  19.191  0.00  0.00     0.294 C 
HETATM   15  O   UNK     0      27.354  37.684  21.375  0.00  0.00     0.000 OA
HETATM   16  O   UNK     0      23.170  39.161  18.031  0.00  0.00    -0.259 OA
HETATM   17  C   UNK     0      22.320  43.036  19.043  0.00  0.00     0.302 C 
HETATM   18  C   UNK     0      22.905  41.675  18.748  0.00  0.00     0.219 C 
HETATM   19  O   UNK     0      22.973  44.026  18.158  0.00  0.00    -0.348 OA
HETATM   20  C   UNK     0      24.281  41.853  18.841  0.00  0.00     0.184 C 
HETATM   21  C   UNK     0      24.294  43.837  17.508  0.00  0.00     0.181 C 
HETATM   22  C   UNK     0      24.700  42.357  17.572  0.00  0.00     0.194 C 
HETATM   23  O   UNK     0      26.082  42.116  17.470  0.00  0.00    -0.307 OA
HETATM   24  O   UNK     0      22.544  40.631  19.630  0.00  0.00    -0.304 OA
HETATM   25  C   UNK     0      26.004  40.732  17.480  0.00  0.00     0.294 C 
HETATM   26  O   UNK     0      25.035  40.230  16.961  0.00  0.00    -0.259 OA
HETATM   27  H   UNK     0      28.559  36.500  20.503  0.00  0.00     0.000 HD
HETATM   28  H   UNK     0      27.724  37.165  22.160  0.00  0.00     0.000 HD
ENDROOT
BRANCH  21  29
HETATM   29  C   UNK     0      24.212  44.253  16.018  0.00  0.00     0.213 C 
BRANCH  29  30
HETATM   30  O   UNK     0      24.964  43.482  15.080  0.00  0.00    -0.315 OA
BRANCH  30  31
HETATM   31  C   UNK     0      24.376  43.070  13.919  0.00  0.00     0.293 C 
HETATM   32  O   UNK     0      24.845  43.430  12.864  0.00  0.00    -0.259 OA
BRANCH  31  33
HETATM   33  C   UNK     0      23.198  42.162  13.907  0.00  0.00     0.044 A 
HETATM   34  C   UNK     0      23.346  40.895  14.449  0.00  0.00     0.055 A 
HETATM   35  C   UNK     0      22.288  40.004  14.449  0.00  0.00     0.080 A 
HETATM   36  C   UNK     0      21.072  40.377  13.909  0.00  0.00     0.047 A 
HETATM   37  C   UNK     0      20.902  41.644  13.362  0.00  0.00     0.091 A 
HETATM   38  O   UNK     0      20.037  39.494  13.914  0.00  0.00     0.000 OA
HETATM   39  C   UNK     0      21.972  42.537  13.362  0.00  0.00     0.056 A 
HETATM   40  O   UNK     0      19.687  41.997  12.824  0.00  0.00    -0.306 OA
HETATM   41  C   UNK     0      18.649  41.102  12.808  0.00  0.00     0.121 A 
HETATM   42  O   UNK     0      18.827  39.989  13.246  0.00  0.00     0.000 OA
HETATM   43  H   UNK     0      19.143  39.760  13.519  0.00  0.00     0.000 HD
BRANCH  35  44
HETATM   44  O   UNK     0      22.442  38.759  14.975  0.00  0.00    -0.360 OA
HETATM   45  H   UNK     0      21.840  38.003  14.671  0.00  0.00     0.217 HD
ENDBRANCH  35  44
BRANCH  41  46
HETATM   46  C   UNK     0      17.313  41.444  12.283  0.00  0.00     0.006 A 
HETATM   47  C   UNK     0      17.151  41.596  10.914  0.00  0.00     0.054 A 
HETATM   48  C   UNK     0      15.906  41.904  10.388  0.00  0.00     0.102 A 
HETATM   49  C   UNK     0      14.821  42.062  11.233  0.00  0.00     0.132 A 
HETATM   50  C   UNK     0      14.980  41.914  12.604  0.00  0.00     0.102 A 
HETATM   51  C   UNK     0      16.226  41.602  13.130  0.00  0.00     0.054 A 
BRANCH  48  52
HETATM   52  O   UNK     0      15.751  42.049   9.046  0.00  0.00    -0.358 OA
HETATM   53  H   UNK     0      16.564  42.091   8.444  0.00  0.00     0.217 HD
ENDBRANCH  48  52
BRANCH  49  54
HETATM   54  O   UNK     0      13.599  42.362  10.717  0.00  0.00    -0.356 OA
HETATM   55  H   UNK     0      13.458  43.234  10.223  0.00  0.00     0.218 HD
ENDBRANCH  49  54
BRANCH  50  56
HETATM   56  O   UNK     0      13.912  42.072  13.432  0.00  0.00    -0.358 OA
HETATM   57  H   UNK     0      13.841  42.896  14.014  0.00  0.00     0.217 HD
ENDBRANCH  50  56
ENDBRANCH  41  46
ENDBRANCH  31  33
ENDBRANCH  30  31
ENDBRANCH  29  30
ENDBRANCH  21  29
BRANCH  17  58
HETATM   58  O   UNK     0      20.922  43.024  18.810  0.00  0.00    -0.283 OA
BRANCH  58  59
HETATM   59  C   UNK     0      20.176  44.142  19.011  0.00  0.00     0.295 C 
HETATM   60  O   UNK     0      19.952  44.533  20.134  0.00  0.00    -0.259 OA
BRANCH  59  61
HETATM   61  C   UNK     0      19.639  44.869  17.852  0.00  0.00     0.045 A 
HETATM   62  C   UNK     0      19.402  44.193  16.665  0.00  0.00     0.057 A 
HETATM   63  C   UNK     0      18.889  44.871  15.571  0.00  0.00     0.102 A 
HETATM   64  C   UNK     0      18.616  46.226  15.662  0.00  0.00     0.132 A 
HETATM   65  C   UNK     0      18.852  46.902  16.849  0.00  0.00     0.102 A 
HETATM   66  C   UNK     0      19.362  46.224  17.946  0.00  0.00     0.057 A 
BRANCH  63  67
HETATM   67  O   UNK     0      18.653  44.205  14.409  0.00  0.00    -0.358 OA
HETATM   68  H   UNK     0      18.390  44.717  13.577  0.00  0.00     0.217 HD
ENDBRANCH  63  67
BRANCH  64  69
HETATM   69  O   UNK     0      18.118  46.894  14.586  0.00  0.00    -0.356 OA
HETATM   70  H   UNK     0      18.416  47.843  14.397  0.00  0.00     0.218 HD
ENDBRANCH  64  69
BRANCH  65  71
HETATM   71  O   UNK     0      18.583  48.231  16.939  0.00  0.00    -0.358 OA
HETATM   72  H   UNK     0      18.882  48.755  17.750  0.00  0.00     0.217 HD
ENDBRANCH  65  71
ENDBRANCH  59  61
ENDBRANCH  58  59
ENDBRANCH  17  58
BRANCH  20  73
HETATM   73  O   UNK     0      24.925  40.620  19.124  0.00  0.00    -0.390 OA
HETATM   74  H   UNK     0      25.911  40.506  18.924  0.00  0.00     0.210 HD
ENDBRANCH  20  73
BRANCH   5  75
HETATM   75  O   UNK     0      30.470  39.317  17.183  0.00  0.00    -0.358 OA
HETATM   76  H   UNK     0      31.284  38.833  17.538  0.00  0.00     0.217 HD
ENDBRANCH   5  75
BRANCH   3  77
HETATM   77  O   UNK     0      30.119  37.396  19.112  0.00  0.00    -0.357 OA
HETATM   78  H   UNK     0      30.374  36.630  18.503  0.00  0.00     0.217 HD
ENDBRANCH   3  77
BRANCH  12  79
HETATM   79  O   UNK     0      23.243  36.546  23.067  0.00  0.00    -0.304 OA
BRANCH  79  80
HETATM   80  C   UNK     0      22.235  35.672  23.364  0.00  0.00     0.129 A 
HETATM   81  C   UNK     0      20.954  36.017  23.774  0.00  0.00     0.077 A 
HETATM   82  C   UNK     0      20.039  35.016  24.077  0.00  0.00     0.060 A 
HETATM   83  C   UNK     0      20.392  33.678  23.971  0.00  0.00     0.102 A 
HETATM   84  C   UNK     0      21.665  33.336  23.552  0.00  0.00     0.135 A 
HETATM   85  C   UNK     0      22.576  34.331  23.250  0.00  0.00     0.137 A 
BRANCH  81  86
HETATM   86  C   UNK     0      20.541  37.417  23.894  0.00  0.00     0.179 C 
HETATM   87  O   UNK     0      19.634  37.845  23.218  0.00  0.00    -0.646 OA
BRANCH  86  88
HETATM   88  O   UNK     0      21.187  38.233  24.770  0.00  0.00    -0.773 OA
HETATM   89  H   UNK     0      20.714  38.553  25.605  0.00  0.00     0.167 HD
ENDBRANCH  86  88
ENDBRANCH  81  86
BRANCH  83  90
HETATM   90  O   UNK     0      19.494  32.703  24.275  0.00  0.00    -0.358 OA
HETATM   91  H   UNK     0      19.641  31.760  23.941  0.00  0.00     0.217 HD
ENDBRANCH  83  90
BRANCH  84  92
HETATM   92  O   UNK     0      22.024  32.028  23.438  0.00  0.00    -0.356 OA
HETATM   93  H   UNK     0      21.816  31.381  24.188  0.00  0.00     0.218 HD
ENDBRANCH  84  92
BRANCH  85  94
HETATM   94  O   UNK     0      23.826  33.991  22.837  0.00  0.00    -0.356 OA
HETATM   95  H   UNK     0      23.963  33.579  21.922  0.00  0.00     0.218 HD
ENDBRANCH  85  94
ENDBRANCH  79  80
ENDBRANCH  12  79
BRANCH  10  96
HETATM   96  O   UNK     0      25.811  36.476  23.154  0.00  0.00    -0.357 OA
HETATM   97  H   UNK     0      26.795  36.595  23.358  0.00  0.00     0.217 HD
ENDBRANCH  10  96
TORSDOF 26
