REMARK VINA RESULT:     -10.7      3.793     10.295
REMARK  26 active torsions:
REMARK  status: ('A' for Active; 'I' for Inactive)
REMARK    1  A    between atoms: C_1  and  C_7 
REMARK    2  A    between atoms: C_4  and  O_9 
REMARK    3  A    between atoms: C_5  and  O_11 
REMARK    4  A    between atoms: C_6  and  O_10 
REMARK    5  A    between atoms: C_12  and  C_18 
REMARK    6  A    between atoms: C_15  and  O_76 
REMARK    7  A    between atoms: C_18  and  O_74 
REMARK    8  A    between atoms: C_21  and  O_25 
REMARK    9  A    between atoms: C_23  and  O_26 
REMARK   10  A    between atoms: C_30  and  O_35 
REMARK   11  A    between atoms: C_32  and  O_36 
REMARK   12  A    between atoms: O_36  and  C_67 
REMARK   13  A    between atoms: C_39  and  O_60 
REMARK   14  A    between atoms: C_41  and  O_58 
REMARK   15  A    between atoms: C_42  and  C_45 
REMARK   16  A    between atoms: C_43  and  O_59 
REMARK   17  A    between atoms: C_45  and  O_53 
REMARK   18  A    between atoms: C_47  and  O_53 
REMARK   19  A    between atoms: C_50  and  O_55 
REMARK   20  A    between atoms: C_51  and  C_54 
REMARK   21  A    between atoms: C_54  and  O_74 
REMARK   22  A    between atoms: C_64  and  O_69 
REMARK   23  A    between atoms: C_65  and  C_72 
REMARK   24  A    between atoms: C_66  and  O_70 
REMARK   25  A    between atoms: C_68  and  O_71 
REMARK   26  A    between atoms: C_72  and  O_73 
ROOT
HETATM    1  C   UNK     0      21.064  35.312  24.246  0.00  0.00     0.026 A 
HETATM    2  C   UNK     0      22.025  35.140  23.234  0.00  0.00     0.006 A 
HETATM    3  C   UNK     0      20.876  36.483  24.954  0.00  0.00     0.111 A 
HETATM    4  C   UNK     0      22.869  36.274  23.049  0.00  0.00     0.054 A 
HETATM    5  C   UNK     0      21.671  37.570  24.704  0.00  0.00     0.100 A 
HETATM    6  C   UNK     0      22.669  37.445  23.768  0.00  0.00     0.058 A 
HETATM    7  O   UNK     0      20.266  34.271  24.588  0.00  0.00     0.000 OA
HETATM    8  C   UNK     0      20.654  33.128  22.884  0.00  0.00     0.026 A 
HETATM    9  C   UNK     0      21.912  33.657  22.580  0.00  0.00     0.006 A 
HETATM   10  C   UNK     0      20.276  31.840  22.614  0.00  0.00     0.111 A 
HETATM   11  C   UNK     0      22.761  32.778  21.822  0.00  0.00     0.054 A 
HETATM   12  C   UNK     0      21.126  30.978  21.984  0.00  0.00     0.111 A 
HETATM   13  C   UNK     0      22.355  31.459  21.562  0.00  0.00     0.058 A 
HETATM   14  C   UNK     0      24.101  33.056  21.237  0.00  0.00     0.294 C 
HETATM   15  O   UNK     0      19.729  33.912  23.488  0.00  0.00     0.000 OA
HETATM   16  O   UNK     0      25.037  33.272  21.973  0.00  0.00    -0.259 OA
HETATM   17  C   UNK     0      25.205  34.611  18.107  0.00  0.00     0.302 C 
HETATM   18  C   UNK     0      24.931  34.314  19.563  0.00  0.00     0.219 C 
HETATM   19  O   UNK     0      25.661  36.014  17.996  0.00  0.00    -0.348 OA
HETATM   20  C   UNK     0      24.078  35.330  19.978  0.00  0.00     0.184 C 
HETATM   21  C   UNK     0      25.390  37.073  19.001  0.00  0.00     0.181 C 
HETATM   22  C   UNK     0      24.916  36.435  20.316  0.00  0.00     0.194 C 
HETATM   23  O   UNK     0      24.164  37.283  21.149  0.00  0.00    -0.307 OA
HETATM   24  O   UNK     0      24.301  33.080  19.845  0.00  0.00    -0.304 OA
HETATM   25  C   UNK     0      24.028  36.392  22.201  0.00  0.00     0.294 C 
HETATM   26  O   UNK     0      24.945  35.633  22.405  0.00  0.00    -0.259 OA
HETATM   27  H   UNK     0      19.581  34.381  25.324  0.00  0.00     0.000 HD
HETATM   28  H   UNK     0      18.818  33.536  23.715  0.00  0.00     0.000 HD
ENDROOT
BRANCH  21  29
HETATM   29  C   UNK     0      26.687  37.870  19.288  0.00  0.00     0.213 C 
BRANCH  29  30
HETATM   30  O   UNK     0      26.544  39.173  19.853  0.00  0.00    -0.315 OA
BRANCH  30  31
HETATM   31  C   UNK     0      25.999  40.177  19.107  0.00  0.00     0.293 C 
HETATM   32  O   UNK     0      26.659  40.679  18.226  0.00  0.00    -0.259 OA
BRANCH  31  33
HETATM   33  C   UNK     0      24.604  40.650  19.316  0.00  0.00     0.044 A 
HETATM   34  C   UNK     0      23.850  40.040  20.305  0.00  0.00     0.055 A 
HETATM   35  C   UNK     0      22.541  40.430  20.530  0.00  0.00     0.080 A 
HETATM   36  C   UNK     0      21.981  41.437  19.767  0.00  0.00     0.047 A 
HETATM   37  C   UNK     0      22.721  42.062  18.771  0.00  0.00     0.091 A 
HETATM   38  O   UNK     0      20.694  41.814  19.997  0.00  0.00     0.000 OA
HETATM   39  C   UNK     0      24.037  41.664  18.546  0.00  0.00     0.056 A 
HETATM   40  O   UNK     0      22.145  43.058  18.017  0.00  0.00    -0.306 OA
HETATM   41  C   UNK     0      20.842  43.425  18.232  0.00  0.00     0.121 A 
HETATM   42  O   UNK     0      20.199  42.839  19.071  0.00  0.00     0.000 OA
HETATM   43  H   UNK     0      20.275  42.549  19.441  0.00  0.00     0.000 HD
BRANCH  35  44
HETATM   44  O   UNK     0      21.803  39.822  21.498  0.00  0.00    -0.360 OA
HETATM   45  H   UNK     0      22.231  39.127  22.098  0.00  0.00     0.217 HD
ENDBRANCH  35  44
BRANCH  41  46
HETATM   46  C   UNK     0      20.191  44.516  17.482  0.00  0.00     0.006 A 
HETATM   47  C   UNK     0      19.480  45.478  18.184  0.00  0.00     0.054 A 
HETATM   48  C   UNK     0      18.866  46.523  17.511  0.00  0.00     0.102 A 
HETATM   49  C   UNK     0      18.964  46.606  16.132  0.00  0.00     0.132 A 
HETATM   50  C   UNK     0      19.671  45.643  15.427  0.00  0.00     0.102 A 
HETATM   51  C   UNK     0      20.288  44.598  16.101  0.00  0.00     0.054 A 
BRANCH  48  52
HETATM   52  O   UNK     0      18.174  47.465  18.203  0.00  0.00    -0.358 OA
HETATM   53  H   UNK     0      17.705  48.214  17.710  0.00  0.00     0.217 HD
ENDBRANCH  48  52
BRANCH  49  54
HETATM   54  O   UNK     0      18.364  47.633  15.472  0.00  0.00    -0.356 OA
HETATM   55  H   UNK     0      18.510  48.586  15.779  0.00  0.00     0.218 HD
ENDBRANCH  49  54
BRANCH  50  56
HETATM   56  O   UNK     0      19.763  45.726  14.072  0.00  0.00    -0.358 OA
HETATM   57  H   UNK     0      19.873  44.886  13.519  0.00  0.00     0.217 HD
ENDBRANCH  50  56
ENDBRANCH  41  46
ENDBRANCH  31  33
ENDBRANCH  30  31
ENDBRANCH  29  30
ENDBRANCH  21  29
BRANCH  17  58
HETATM   58  O   UNK     0      26.204  33.735  17.613  0.00  0.00    -0.283 OA
BRANCH  58  59
HETATM   59  C   UNK     0      27.371  33.566  18.287  0.00  0.00     0.295 C 
HETATM   60  O   UNK     0      28.183  34.463  18.337  0.00  0.00    -0.259 OA
BRANCH  59  61
HETATM   61  C   UNK     0      27.643  32.283  18.951  0.00  0.00     0.045 A 
HETATM   62  C   UNK     0      26.781  31.215  18.762  0.00  0.00     0.057 A 
HETATM   63  C   UNK     0      27.034  30.000  19.379  0.00  0.00     0.102 A 
HETATM   64  C   UNK     0      28.149  29.855  20.188  0.00  0.00     0.132 A 
HETATM   65  C   UNK     0      29.013  30.923  20.376  0.00  0.00     0.102 A 
HETATM   66  C   UNK     0      28.762  32.138  19.756  0.00  0.00     0.057 A 
BRANCH  63  67
HETATM   67  O   UNK     0      26.189  28.952  19.189  0.00  0.00    -0.358 OA
HETATM   68  H   UNK     0      26.512  28.122  18.707  0.00  0.00     0.217 HD
ENDBRANCH  63  67
BRANCH  64  69
HETATM   69  O   UNK     0      28.397  28.664  20.799  0.00  0.00    -0.356 OA
HETATM   70  H   UNK     0      28.016  27.809  20.414  0.00  0.00     0.218 HD
ENDBRANCH  64  69
BRANCH  65  71
HETATM   71  O   UNK     0      30.108  30.779  21.169  0.00  0.00    -0.358 OA
HETATM   72  H   UNK     0      30.632  29.915  21.156  0.00  0.00     0.217 HD
ENDBRANCH  65  71
ENDBRANCH  59  61
ENDBRANCH  58  59
ENDBRANCH  17  58
BRANCH  20  73
HETATM   73  O   UNK     0      23.320  34.917  21.105  0.00  0.00    -0.390 OA
HETATM   74  H   UNK     0      23.779  34.464  21.885  0.00  0.00     0.210 HD
ENDBRANCH  20  73
BRANCH   5  75
HETATM   75  O   UNK     0      21.490  38.735  25.381  0.00  0.00    -0.358 OA
HETATM   76  H   UNK     0      22.172  39.478  25.299  0.00  0.00     0.217 HD
ENDBRANCH   5  75
BRANCH   3  77
HETATM   77  O   UNK     0      19.903  36.557  25.901  0.00  0.00    -0.357 OA
HETATM   78  H   UNK     0      20.111  36.312  26.860  0.00  0.00     0.217 HD
ENDBRANCH   3  77
BRANCH  12  79
HETATM   79  O   UNK     0      20.619  29.712  21.866  0.00  0.00    -0.304 OA
BRANCH  79  80
HETATM   80  C   UNK     0      20.421  28.633  21.051  0.00  0.00     0.129 A 
HETATM   81  C   UNK     0      21.404  27.758  20.606  0.00  0.00     0.077 A 
HETATM   82  C   UNK     0      21.060  26.721  19.748  0.00  0.00     0.060 A 
HETATM   83  C   UNK     0      19.747  26.548  19.337  0.00  0.00     0.102 A 
HETATM   84  C   UNK     0      18.767  27.413  19.789  0.00  0.00     0.135 A 
HETATM   85  C   UNK     0      19.107  28.445  20.642  0.00  0.00     0.137 A 
BRANCH  81  86
HETATM   86  C   UNK     0      22.801  27.903  21.022  0.00  0.00     0.179 C 
HETATM   87  O   UNK     0      23.693  27.780  20.215  0.00  0.00    -0.646 OA
BRANCH  86  88
HETATM   88  O   UNK     0      23.087  28.176  22.324  0.00  0.00    -0.773 OA
HETATM   89  H   UNK     0      22.737  29.023  22.752  0.00  0.00     0.167 HD
ENDBRANCH  86  88
ENDBRANCH  81  86
BRANCH  83  90
HETATM   90  O   UNK     0      19.418  25.534  18.492  0.00  0.00    -0.358 OA
HETATM   91  H   UNK     0      19.439  25.683  17.492  0.00  0.00     0.217 HD
ENDBRANCH  83  90
BRANCH  84  92
HETATM   92  O   UNK     0      17.473  27.253  19.397  0.00  0.00    -0.356 OA
HETATM   93  H   UNK     0      17.056  27.912  18.753  0.00  0.00     0.218 HD
ENDBRANCH  84  92
BRANCH  85  94
HETATM   94  O   UNK     0      18.141  29.293  21.086  0.00  0.00    -0.356 OA
HETATM   95  H   UNK     0      17.218  29.270  20.672  0.00  0.00     0.218 HD
ENDBRANCH  85  94
ENDBRANCH  79  80
ENDBRANCH  12  79
BRANCH  10  96
HETATM   96  O   UNK     0      19.046  31.403  22.995  0.00  0.00    -0.357 OA
HETATM   97  H   UNK     0      18.255  32.033  22.972  0.00  0.00     0.217 HD
ENDBRANCH  10  96
TORSDOF 26
