REMARK VINA RESULT:     -10.7      2.337      3.718
REMARK  26 active torsions:
REMARK  status: ('A' for Active; 'I' for Inactive)
REMARK    1  A    between atoms: C_1  and  C_7 
REMARK    2  A    between atoms: C_4  and  O_9 
REMARK    3  A    between atoms: C_5  and  O_11 
REMARK    4  A    between atoms: C_6  and  O_10 
REMARK    5  A    between atoms: C_12  and  C_18 
REMARK    6  A    between atoms: C_15  and  O_76 
REMARK    7  A    between atoms: C_18  and  O_74 
REMARK    8  A    between atoms: C_21  and  O_25 
REMARK    9  A    between atoms: C_23  and  O_26 
REMARK   10  A    between atoms: C_30  and  O_35 
REMARK   11  A    between atoms: C_32  and  O_36 
REMARK   12  A    between atoms: O_36  and  C_67 
REMARK   13  A    between atoms: C_39  and  O_60 
REMARK   14  A    between atoms: C_41  and  O_58 
REMARK   15  A    between atoms: C_42  and  C_45 
REMARK   16  A    between atoms: C_43  and  O_59 
REMARK   17  A    between atoms: C_45  and  O_53 
REMARK   18  A    between atoms: C_47  and  O_53 
REMARK   19  A    between atoms: C_50  and  O_55 
REMARK   20  A    between atoms: C_51  and  C_54 
REMARK   21  A    between atoms: C_54  and  O_74 
REMARK   22  A    between atoms: C_64  and  O_69 
REMARK   23  A    between atoms: C_65  and  C_72 
REMARK   24  A    between atoms: C_66  and  O_70 
REMARK   25  A    between atoms: C_68  and  O_71 
REMARK   26  A    between atoms: C_72  and  O_73 
ROOT
HETATM    1  C   UNK     0      26.965  35.188  19.179  0.00  0.00     0.026 A 
HETATM    2  C   UNK     0      26.099  36.292  19.267  0.00  0.00     0.006 A 
HETATM    3  C   UNK     0      28.081  35.132  18.367  0.00  0.00     0.111 A 
HETATM    4  C   UNK     0      26.424  37.346  18.363  0.00  0.00     0.054 A 
HETATM    5  C   UNK     0      28.391  36.192  17.556  0.00  0.00     0.100 A 
HETATM    6  C   UNK     0      27.549  37.277  17.551  0.00  0.00     0.058 A 
HETATM    7  O   UNK     0      26.705  34.079  19.914  0.00  0.00     0.000 OA
HETATM    8  C   UNK     0      25.352  34.993  21.216  0.00  0.00     0.026 A 
HETATM    9  C   UNK     0      24.937  36.025  20.370  0.00  0.00     0.006 A 
HETATM   10  C   UNK     0      24.556  34.413  22.168  0.00  0.00     0.111 A 
HETATM   11  C   UNK     0      23.629  36.547  20.662  0.00  0.00     0.054 A 
HETATM   12  C   UNK     0      23.279  34.846  22.372  0.00  0.00     0.111 A 
HETATM   13  C   UNK     0      22.828  35.932  21.638  0.00  0.00     0.058 A 
HETATM   14  C   UNK     0      22.931  37.707  20.043  0.00  0.00     0.294 C 
HETATM   15  O   UNK     0      26.613  34.511  21.111  0.00  0.00     0.000 OA
HETATM   16  O   UNK     0      22.616  37.657  18.877  0.00  0.00    -0.259 OA
HETATM   17  C   UNK     0      23.023  41.318  20.665  0.00  0.00     0.302 C 
HETATM   18  C   UNK     0      23.160  39.948  20.043  0.00  0.00     0.219 C 
HETATM   19  O   UNK     0      23.808  42.277  19.856  0.00  0.00    -0.348 OA
HETATM   20  C   UNK     0      24.531  39.753  19.915  0.00  0.00     0.184 C 
HETATM   21  C   UNK     0      24.928  41.906  18.956  0.00  0.00     0.181 C 
HETATM   22  C   UNK     0      24.908  40.392  18.695  0.00  0.00     0.194 C 
HETATM   23  O   UNK     0      26.142  39.840  18.305  0.00  0.00    -0.307 OA
HETATM   24  O   UNK     0      22.638  38.865  20.787  0.00  0.00    -0.304 OA
HETATM   25  C   UNK     0      25.681  38.550  18.096  0.00  0.00     0.294 C 
HETATM   26  O   UNK     0      24.552  38.427  17.683  0.00  0.00    -0.259 OA
HETATM   27  H   UNK     0      27.314  33.275  19.848  0.00  0.00     0.000 HD
HETATM   28  H   UNK     0      26.920  33.761  21.718  0.00  0.00     0.000 HD
ENDROOT
BRANCH  21  29
HETATM   29  C   UNK     0      24.775  42.634  17.597  0.00  0.00     0.213 C 
BRANCH  29  30
HETATM   30  O   UNK     0      23.462  42.715  17.041  0.00  0.00    -0.315 OA
BRANCH  30  31
HETATM   31  C   UNK     0      23.102  41.868  16.034  0.00  0.00     0.293 C 
HETATM   32  O   UNK     0      23.904  41.615  15.164  0.00  0.00    -0.259 OA
BRANCH  31  33
HETATM   33  C   UNK     0      21.766  41.215  15.988  0.00  0.00     0.044 A 
HETATM   34  C   UNK     0      21.460  40.287  16.971  0.00  0.00     0.055 A 
HETATM   35  C   UNK     0      20.238  39.638  16.967  0.00  0.00     0.080 A 
HETATM   36  C   UNK     0      19.312  39.917  15.979  0.00  0.00     0.047 A 
HETATM   37  C   UNK     0      19.599  40.845  14.986  0.00  0.00     0.091 A 
HETATM   38  O   UNK     0      18.114  39.273  15.984  0.00  0.00     0.000 OA
HETATM   39  C   UNK     0      20.833  41.494  14.993  0.00  0.00     0.056 A 
HETATM   40  O   UNK     0      18.669  41.106  14.007  0.00  0.00    -0.306 OA
HETATM   41  C   UNK     0      17.469  40.444  13.997  0.00  0.00     0.121 A 
HETATM   42  O   UNK     0      17.254  39.606  14.842  0.00  0.00     0.000 OA
HETATM   43  H   UNK     0      17.431  39.471  15.263  0.00  0.00     0.000 HD
BRANCH  35  44
HETATM   44  O   UNK     0      19.947  38.722  17.930  0.00  0.00    -0.360 OA
HETATM   45  H   UNK     0      19.519  39.019  18.798  0.00  0.00     0.217 HD
ENDBRANCH  35  44
BRANCH  41  46
HETATM   46  C   UNK     0      16.419  40.717  12.997  0.00  0.00     0.006 A 
HETATM   47  C   UNK     0      16.771  41.349  11.814  0.00  0.00     0.054 A 
HETATM   48  C   UNK     0      15.811  41.608  10.848  0.00  0.00     0.102 A 
HETATM   49  C   UNK     0      14.495  41.237  11.068  0.00  0.00     0.132 A 
HETATM   50  C   UNK     0      14.139  40.608  12.252  0.00  0.00     0.102 A 
HETATM   51  C   UNK     0      15.101  40.346  13.217  0.00  0.00     0.054 A 
BRANCH  48  52
HETATM   52  O   UNK     0      16.160  42.224   9.688  0.00  0.00    -0.358 OA
HETATM   53  H   UNK     0      15.986  43.214   9.568  0.00  0.00     0.217 HD
ENDBRANCH  48  52
BRANCH  49  54
HETATM   54  O   UNK     0      13.553  41.489  10.120  0.00  0.00    -0.356 OA
HETATM   55  H   UNK     0      13.296  40.769   9.456  0.00  0.00     0.218 HD
ENDBRANCH  49  54
BRANCH  50  56
HETATM   56  O   UNK     0      12.845  40.247  12.466  0.00  0.00    -0.358 OA
HETATM   57  H   UNK     0      12.219  40.871  12.957  0.00  0.00     0.217 HD
ENDBRANCH  50  56
ENDBRANCH  41  46
ENDBRANCH  31  33
ENDBRANCH  30  31
ENDBRANCH  29  30
ENDBRANCH  21  29
BRANCH  17  58
HETATM   58  O   UNK     0      21.660  41.705  20.690  0.00  0.00    -0.283 OA
BRANCH  58  59
HETATM   59  C   UNK     0      21.298  42.986  20.421  0.00  0.00     0.295 C 
HETATM   60  O   UNK     0      21.672  43.889  21.135  0.00  0.00    -0.259 OA
BRANCH  59  61
HETATM   61  C   UNK     0      20.444  43.267  19.258  0.00  0.00     0.045 A 
HETATM   62  C   UNK     0      20.774  44.301  18.396  0.00  0.00     0.057 A 
HETATM   63  C   UNK     0      19.977  44.567  17.294  0.00  0.00     0.102 A 
HETATM   64  C   UNK     0      18.848  43.800  17.055  0.00  0.00     0.132 A 
HETATM   65  C   UNK     0      18.519  42.765  17.917  0.00  0.00     0.102 A 
HETATM   66  C   UNK     0      19.318  42.496  19.018  0.00  0.00     0.057 A 
BRANCH  63  67
HETATM   67  O   UNK     0      20.305  45.580  16.447  0.00  0.00    -0.358 OA
HETATM   68  H   UNK     0      19.802  45.693  15.576  0.00  0.00     0.217 HD
ENDBRANCH  63  67
BRANCH  64  69
HETATM   69  O   UNK     0      18.061  44.064  15.977  0.00  0.00    -0.356 OA
HETATM   70  H   UNK     0      17.883  45.022  15.702  0.00  0.00     0.218 HD
ENDBRANCH  64  69
BRANCH  65  71
HETATM   71  O   UNK     0      17.412  42.012  17.682  0.00  0.00    -0.358 OA
HETATM   72  H   UNK     0      16.550  42.456  17.394  0.00  0.00     0.217 HD
ENDBRANCH  65  71
ENDBRANCH  59  61
ENDBRANCH  58  59
ENDBRANCH  17  58
BRANCH  20  73
HETATM   73  O   UNK     0      24.835  38.367  19.865  0.00  0.00    -0.390 OA
HETATM   74  H   UNK     0      25.573  37.989  20.446  0.00  0.00     0.210 HD
ENDBRANCH  20  73
BRANCH   5  75
HETATM   75  O   UNK     0      29.494  36.160  16.761  0.00  0.00    -0.358 OA
HETATM   76  H   UNK     0      29.613  35.410  16.093  0.00  0.00     0.217 HD
ENDBRANCH   5  75
BRANCH   3  77
HETATM   77  O   UNK     0      28.871  34.026  18.370  0.00  0.00    -0.357 OA
HETATM   78  H   UNK     0      28.471  33.120  18.574  0.00  0.00     0.217 HD
ENDBRANCH   3  77
BRANCH  12  79
HETATM   79  O   UNK     0      22.600  34.105  23.302  0.00  0.00    -0.304 OA
BRANCH  79  80
HETATM   80  C   UNK     0      21.517  33.314  23.562  0.00  0.00     0.129 A 
HETATM   81  C   UNK     0      20.266  33.757  23.971  0.00  0.00     0.077 A 
HETATM   82  C   UNK     0      19.263  32.831  24.233  0.00  0.00     0.060 A 
HETATM   83  C   UNK     0      19.498  31.472  24.086  0.00  0.00     0.102 A 
HETATM   84  C   UNK     0      20.741  31.033  23.668  0.00  0.00     0.135 A 
HETATM   85  C   UNK     0      21.739  31.952  23.407  0.00  0.00     0.137 A 
BRANCH  81  86
HETATM   86  C   UNK     0      19.976  35.183  24.133  0.00  0.00     0.179 C 
HETATM   87  O   UNK     0      18.944  35.648  23.707  0.00  0.00    -0.646 OA
BRANCH  86  88
HETATM   88  O   UNK     0      20.879  35.983  24.764  0.00  0.00    -0.773 OA
HETATM   89  H   UNK     0      20.561  36.785  25.293  0.00  0.00     0.167 HD
ENDBRANCH  86  88
ENDBRANCH  81  86
BRANCH  83  90
HETATM   90  O   UNK     0      18.514  30.571  24.350  0.00  0.00    -0.358 OA
HETATM   91  H   UNK     0      18.435  29.732  23.789  0.00  0.00     0.217 HD
ENDBRANCH  83  90
BRANCH  84  92
HETATM   92  O   UNK     0      20.985  29.702  23.515  0.00  0.00    -0.356 OA
HETATM   93  H   UNK     0      20.219  29.065  23.340  0.00  0.00     0.218 HD
ENDBRANCH  84  92
BRANCH  85  94
HETATM   94  O   UNK     0      22.960  31.516  22.994  0.00  0.00    -0.356 OA
HETATM   95  H   UNK     0      23.716  31.422  23.661  0.00  0.00     0.218 HD
ENDBRANCH  85  94
ENDBRANCH  79  80
ENDBRANCH  12  79
BRANCH  10  96
HETATM   96  O   UNK     0      25.035  33.379  22.910  0.00  0.00    -0.357 OA
HETATM   97  H   UNK     0      25.808  33.527  23.546  0.00  0.00     0.217 HD
ENDBRANCH  10  96
TORSDOF 26
