REMARK VINA RESULT:     -10.7      1.679      3.042
REMARK  26 active torsions:
REMARK  status: ('A' for Active; 'I' for Inactive)
REMARK    1  A    between atoms: C_1  and  C_7 
REMARK    2  A    between atoms: C_4  and  O_9 
REMARK    3  A    between atoms: C_5  and  O_11 
REMARK    4  A    between atoms: C_6  and  O_10 
REMARK    5  A    between atoms: C_12  and  C_18 
REMARK    6  A    between atoms: C_15  and  O_76 
REMARK    7  A    between atoms: C_18  and  O_74 
REMARK    8  A    between atoms: C_21  and  O_25 
REMARK    9  A    between atoms: C_23  and  O_26 
REMARK   10  A    between atoms: C_30  and  O_35 
REMARK   11  A    between atoms: C_32  and  O_36 
REMARK   12  A    between atoms: O_36  and  C_67 
REMARK   13  A    between atoms: C_39  and  O_60 
REMARK   14  A    between atoms: C_41  and  O_58 
REMARK   15  A    between atoms: C_42  and  C_45 
REMARK   16  A    between atoms: C_43  and  O_59 
REMARK   17  A    between atoms: C_45  and  O_53 
REMARK   18  A    between atoms: C_47  and  O_53 
REMARK   19  A    between atoms: C_50  and  O_55 
REMARK   20  A    between atoms: C_51  and  C_54 
REMARK   21  A    between atoms: C_54  and  O_74 
REMARK   22  A    between atoms: C_64  and  O_69 
REMARK   23  A    between atoms: C_65  and  C_72 
REMARK   24  A    between atoms: C_66  and  O_70 
REMARK   25  A    between atoms: C_68  and  O_71 
REMARK   26  A    between atoms: C_72  and  O_73 
ROOT
HETATM    1  C   UNK     0      27.839  38.142  19.145  0.00  0.00     0.026 A 
HETATM    2  C   UNK     0      26.811  39.066  18.891  0.00  0.00     0.006 A 
HETATM    3  C   UNK     0      29.078  38.163  18.534  0.00  0.00     0.111 A 
HETATM    4  C   UNK     0      27.126  40.002  17.861  0.00  0.00     0.054 A 
HETATM    5  C   UNK     0      29.361  39.117  17.592  0.00  0.00     0.100 A 
HETATM    6  C   UNK     0      28.374  40.012  17.254  0.00  0.00     0.058 A 
HETATM    7  O   UNK     0      27.626  37.138  20.031  0.00  0.00     0.000 OA
HETATM    8  C   UNK     0      25.936  37.985  20.919  0.00  0.00     0.026 A 
HETATM    9  C   UNK     0      25.525  38.772  19.839  0.00  0.00     0.006 A 
HETATM   10  C   UNK     0      25.083  37.430  21.834  0.00  0.00     0.111 A 
HETATM   11  C   UNK     0      24.122  39.083  19.828  0.00  0.00     0.054 A 
HETATM   12  C   UNK     0      23.738  37.647  21.759  0.00  0.00     0.111 A 
HETATM   13  C   UNK     0      23.264  38.497  20.773  0.00  0.00     0.058 A 
HETATM   14  C   UNK     0      23.374  39.978  18.903  0.00  0.00     0.294 C 
HETATM   15  O   UNK     0      27.255  37.733  21.097  0.00  0.00     0.000 OA
HETATM   16  O   UNK     0      23.285  39.683  17.734  0.00  0.00    -0.259 OA
HETATM   17  C   UNK     0      22.792  43.597  18.832  0.00  0.00     0.302 C 
HETATM   18  C   UNK     0      23.249  42.193  18.510  0.00  0.00     0.219 C 
HETATM   19  O   UNK     0      23.550  44.540  17.981  0.00  0.00    -0.348 OA
HETATM   20  C   UNK     0      24.634  42.236  18.627  0.00  0.00     0.184 C 
HETATM   21  C   UNK     0      24.858  44.241  17.345  0.00  0.00     0.181 C 
HETATM   22  C   UNK     0      25.120  42.728  17.378  0.00  0.00     0.194 C 
HETATM   23  O   UNK     0      26.475  42.358  17.289  0.00  0.00    -0.307 OA
HETATM   24  O   UNK     0      22.777  41.167  19.360  0.00  0.00    -0.304 OA
HETATM   25  C   UNK     0      26.265  40.989  17.262  0.00  0.00     0.294 C 
HETATM   26  O   UNK     0      25.261  40.594  16.717  0.00  0.00    -0.259 OA
HETATM   27  H   UNK     0      28.355  36.461  20.211  0.00  0.00     0.000 HD
HETATM   28  H   UNK     0      27.561  37.162  21.873  0.00  0.00     0.000 HD
ENDROOT
BRANCH  21  29
HETATM   29  C   UNK     0      24.840  44.699  15.866  0.00  0.00     0.213 C 
BRANCH  29  30
HETATM   30  O   UNK     0      24.363  43.766  14.896  0.00  0.00    -0.315 OA
BRANCH  30  31
HETATM   31  C   UNK     0      23.560  44.197  13.881  0.00  0.00     0.293 C 
HETATM   32  O   UNK     0      24.070  44.632  12.874  0.00  0.00    -0.259 OA
BRANCH  31  33
HETATM   33  C   UNK     0      22.077  44.116  13.956  0.00  0.00     0.044 A 
HETATM   34  C   UNK     0      21.457  44.572  15.108  0.00  0.00     0.055 A 
HETATM   35  C   UNK     0      20.080  44.505  15.237  0.00  0.00     0.080 A 
HETATM   36  C   UNK     0      19.316  43.982  14.211  0.00  0.00     0.047 A 
HETATM   37  C   UNK     0      19.919  43.520  13.047  0.00  0.00     0.091 A 
HETATM   38  O   UNK     0      17.964  43.921  14.348  0.00  0.00     0.000 OA
HETATM   39  C   UNK     0      21.306  43.588  12.923  0.00  0.00     0.056 A 
HETATM   40  O   UNK     0      19.144  42.998  12.039  0.00  0.00    -0.306 OA
HETATM   41  C   UNK     0      17.783  42.914  12.182  0.00  0.00     0.121 A 
HETATM   42  O   UNK     0      17.279  43.278  13.219  0.00  0.00     0.000 OA
HETATM   43  H   UNK     0      17.397  43.538  13.601  0.00  0.00     0.000 HD
BRANCH  35  44
HETATM   44  O   UNK     0      19.478  44.948  16.374  0.00  0.00    -0.360 OA
HETATM   45  H   UNK     0      19.915  45.674  16.928  0.00  0.00     0.217 HD
ENDBRANCH  35  44
BRANCH  41  46
HETATM   46  C   UNK     0      16.902  42.404  11.115  0.00  0.00     0.006 A 
HETATM   47  C   UNK     0      17.350  42.438   9.804  0.00  0.00     0.054 A 
HETATM   48  C   UNK     0      16.551  41.954   8.779  0.00  0.00     0.102 A 
HETATM   49  C   UNK     0      15.300  41.435   9.067  0.00  0.00     0.132 A 
HETATM   50  C   UNK     0      14.847  41.403  10.378  0.00  0.00     0.102 A 
HETATM   51  C   UNK     0      15.648  41.885  11.404  0.00  0.00     0.054 A 
BRANCH  48  52
HETATM   52  O   UNK     0      16.996  41.986   7.495  0.00  0.00    -0.358 OA
HETATM   53  H   UNK     0      16.358  41.798   6.733  0.00  0.00     0.217 HD
ENDBRANCH  48  52
BRANCH  49  54
HETATM   54  O   UNK     0      14.518  40.958   8.063  0.00  0.00    -0.356 OA
HETATM   55  H   UNK     0      13.535  41.197   8.029  0.00  0.00     0.218 HD
ENDBRANCH  49  54
BRANCH  50  56
HETATM   56  O   UNK     0      13.616  40.895  10.658  0.00  0.00    -0.358 OA
HETATM   57  H   UNK     0      12.823  41.515  10.758  0.00  0.00     0.217 HD
ENDBRANCH  50  56
ENDBRANCH  41  46
ENDBRANCH  31  33
ENDBRANCH  30  31
ENDBRANCH  29  30
ENDBRANCH  21  29
BRANCH  17  58
HETATM   58  O   UNK     0      21.403  43.723  18.580  0.00  0.00    -0.283 OA
BRANCH  58  59
HETATM   59  C   UNK     0      20.494  43.111  19.382  0.00  0.00     0.295 C 
HETATM   60  O   UNK     0      20.444  43.376  20.562  0.00  0.00    -0.259 OA
BRANCH  59  61
HETATM   61  C   UNK     0      19.576  42.118  18.807  0.00  0.00     0.045 A 
HETATM   62  C   UNK     0      18.573  42.528  17.942  0.00  0.00     0.057 A 
HETATM   63  C   UNK     0      17.708  41.598  17.390  0.00  0.00     0.102 A 
HETATM   64  C   UNK     0      17.842  40.255  17.707  0.00  0.00     0.132 A 
HETATM   65  C   UNK     0      18.845  39.845  18.572  0.00  0.00     0.102 A 
HETATM   66  C   UNK     0      19.714  40.775  19.121  0.00  0.00     0.057 A 
BRANCH  63  67
HETATM   67  O   UNK     0      16.728  42.002  16.538  0.00  0.00    -0.358 OA
HETATM   68  H   UNK     0      16.967  42.325  15.609  0.00  0.00     0.217 HD
ENDBRANCH  63  67
BRANCH  64  69
HETATM   69  O   UNK     0      16.989  39.341  17.171  0.00  0.00    -0.356 OA
HETATM   70  H   UNK     0      17.314  38.404  16.967  0.00  0.00     0.218 HD
ENDBRANCH  64  69
BRANCH  65  71
HETATM   71  O   UNK     0      18.977  38.528  18.881  0.00  0.00    -0.358 OA
HETATM   72  H   UNK     0      18.175  37.914  18.834  0.00  0.00     0.217 HD
ENDBRANCH  65  71
ENDBRANCH  59  61
ENDBRANCH  58  59
ENDBRANCH  17  58
BRANCH  20  73
HETATM   73  O   UNK     0      25.154  40.941  18.888  0.00  0.00    -0.390 OA
HETATM   74  H   UNK     0      25.244  40.271  18.135  0.00  0.00     0.210 HD
ENDBRANCH  20  73
BRANCH   5  75
HETATM   75  O   UNK     0      30.580  39.160  16.991  0.00  0.00    -0.358 OA
HETATM   76  H   UNK     0      30.953  38.333  16.544  0.00  0.00     0.217 HD
ENDBRANCH   5  75
BRANCH   3  77
HETATM   77  O   UNK     0      30.016  37.237  18.865  0.00  0.00    -0.357 OA
HETATM   78  H   UNK     0      30.593  36.822  18.146  0.00  0.00     0.217 HD
ENDBRANCH   3  77
BRANCH  12  79
HETATM   79  O   UNK     0      23.027  36.953  22.702  0.00  0.00    -0.304 OA
BRANCH  79  80
HETATM   80  C   UNK     0      22.081  35.997  22.943  0.00  0.00     0.129 A 
HETATM   81  C   UNK     0      20.711  36.208  23.020  0.00  0.00     0.077 A 
HETATM   82  C   UNK     0      19.868  35.142  23.308  0.00  0.00     0.060 A 
HETATM   83  C   UNK     0      20.381  33.870  23.514  0.00  0.00     0.102 A 
HETATM   84  C   UNK     0      21.745  33.658  23.426  0.00  0.00     0.135 A 
HETATM   85  C   UNK     0      22.584  34.717  23.140  0.00  0.00     0.137 A 
BRANCH  81  86
HETATM   86  C   UNK     0      20.130  37.535  22.803  0.00  0.00     0.179 C 
HETATM   87  O   UNK     0      20.038  37.985  21.684  0.00  0.00    -0.646 OA
BRANCH  86  88
HETATM   88  O   UNK     0      19.696  38.259  23.871  0.00  0.00    -0.773 OA
HETATM   89  H   UNK     0      18.779  38.085  24.260  0.00  0.00     0.167 HD
ENDBRANCH  86  88
ENDBRANCH  81  86
BRANCH  83  90
HETATM   90  O   UNK     0      19.551  32.831  23.802  0.00  0.00    -0.358 OA
HETATM   91  H   UNK     0      18.783  32.962  24.447  0.00  0.00     0.217 HD
ENDBRANCH  83  90
BRANCH  84  92
HETATM   92  O   UNK     0      22.262  32.414  23.622  0.00  0.00    -0.356 OA
HETATM   93  H   UNK     0      22.609  31.882  22.835  0.00  0.00     0.218 HD
ENDBRANCH  84  92
BRANCH  85  94
HETATM   94  O   UNK     0      23.925  34.505  23.053  0.00  0.00    -0.356 OA
HETATM   95  H   UNK     0      24.296  33.568  23.148  0.00  0.00     0.218 HD
ENDBRANCH  85  94
ENDBRANCH  79  80
ENDBRANCH  12  79
BRANCH  10  96
HETATM   96  O   UNK     0      25.575  36.636  22.822  0.00  0.00    -0.357 OA
HETATM   97  H   UNK     0      25.661  36.995  23.765  0.00  0.00     0.217 HD
ENDBRANCH  10  96
TORSDOF 26
