REMARK VINA RESULT:     -10.6      1.787      3.130
REMARK  26 active torsions:
REMARK  status: ('A' for Active; 'I' for Inactive)
REMARK    1  A    between atoms: C_1  and  C_7 
REMARK    2  A    between atoms: C_4  and  O_9 
REMARK    3  A    between atoms: C_5  and  O_11 
REMARK    4  A    between atoms: C_6  and  O_10 
REMARK    5  A    between atoms: C_12  and  C_18 
REMARK    6  A    between atoms: C_15  and  O_76 
REMARK    7  A    between atoms: C_18  and  O_74 
REMARK    8  A    between atoms: C_21  and  O_25 
REMARK    9  A    between atoms: C_23  and  O_26 
REMARK   10  A    between atoms: C_30  and  O_35 
REMARK   11  A    between atoms: C_32  and  O_36 
REMARK   12  A    between atoms: O_36  and  C_67 
REMARK   13  A    between atoms: C_39  and  O_60 
REMARK   14  A    between atoms: C_41  and  O_58 
REMARK   15  A    between atoms: C_42  and  C_45 
REMARK   16  A    between atoms: C_43  and  O_59 
REMARK   17  A    between atoms: C_45  and  O_53 
REMARK   18  A    between atoms: C_47  and  O_53 
REMARK   19  A    between atoms: C_50  and  O_55 
REMARK   20  A    between atoms: C_51  and  C_54 
REMARK   21  A    between atoms: C_54  and  O_74 
REMARK   22  A    between atoms: C_64  and  O_69 
REMARK   23  A    between atoms: C_65  and  C_72 
REMARK   24  A    between atoms: C_66  and  O_70 
REMARK   25  A    between atoms: C_68  and  O_71 
REMARK   26  A    between atoms: C_72  and  O_73 
ROOT
HETATM    1  C   UNK     0      27.360  37.514  19.421  0.00  0.00     0.026 A 
HETATM    2  C   UNK     0      26.291  38.426  19.454  0.00  0.00     0.006 A 
HETATM    3  C   UNK     0      28.517  37.691  18.687  0.00  0.00     0.111 A 
HETATM    4  C   UNK     0      26.464  39.539  18.579  0.00  0.00     0.054 A 
HETATM    5  C   UNK     0      28.667  38.805  17.904  0.00  0.00     0.100 A 
HETATM    6  C   UNK     0      27.631  39.705  17.846  0.00  0.00     0.058 A 
HETATM    7  O   UNK     0      27.273  36.362  20.131  0.00  0.00     0.000 OA
HETATM    8  C   UNK     0      25.685  36.972  21.342  0.00  0.00     0.026 A 
HETATM    9  C   UNK     0      25.133  37.919  20.474  0.00  0.00     0.006 A 
HETATM   10  C   UNK     0      24.956  36.231  22.234  0.00  0.00     0.111 A 
HETATM   11  C   UNK     0      23.732  38.170  20.678  0.00  0.00     0.054 A 
HETATM   12  C   UNK     0      23.608  36.404  22.352  0.00  0.00     0.111 A 
HETATM   13  C   UNK     0      23.004  37.394  21.594  0.00  0.00     0.058 A 
HETATM   14  C   UNK     0      22.863  39.184  20.018  0.00  0.00     0.294 C 
HETATM   15  O   UNK     0      27.020  36.746  21.321  0.00  0.00     0.000 OA
HETATM   16  O   UNK     0      22.642  39.095  18.833  0.00  0.00    -0.259 OA
HETATM   17  C   UNK     0      22.207  42.732  20.662  0.00  0.00     0.302 C 
HETATM   18  C   UNK     0      22.650  41.426  20.045  0.00  0.00     0.219 C 
HETATM   19  O   UNK     0      22.841  43.840  19.913  0.00  0.00    -0.348 OA
HETATM   20  C   UNK     0      24.038  41.503  20.009  0.00  0.00     0.184 C 
HETATM   21  C   UNK     0      24.070  43.710  19.090  0.00  0.00     0.181 C 
HETATM   22  C   UNK     0      24.363  42.226  18.821  0.00  0.00     0.194 C 
HETATM   23  O   UNK     0      25.704  41.932  18.514  0.00  0.00    -0.307 OA
HETATM   24  O   UNK     0      22.302  40.249  20.746  0.00  0.00    -0.304 OA
HETATM   25  C   UNK     0      25.519  40.581  18.268  0.00  0.00     0.294 C 
HETATM   26  O   UNK     0      24.465  40.248  17.778  0.00  0.00    -0.259 OA
HETATM   27  H   UNK     0      28.031  35.693  20.103  0.00  0.00     0.000 HD
HETATM   28  H   UNK     0      27.427  36.060  21.943  0.00  0.00     0.000 HD
ENDROOT
BRANCH  21  29
HETATM   29  C   UNK     0      23.868  44.419  17.728  0.00  0.00     0.213 C 
BRANCH  29  30
HETATM   30  O   UNK     0      23.978  43.619  16.550  0.00  0.00    -0.315 OA
BRANCH  30  31
HETATM   31  C   UNK     0      23.098  43.804  15.523  0.00  0.00     0.293 C 
HETATM   32  O   UNK     0      23.198  44.793  14.835  0.00  0.00    -0.259 OA
BRANCH  31  33
HETATM   33  C   UNK     0      22.041  42.809  15.198  0.00  0.00     0.044 A 
HETATM   34  C   UNK     0      21.929  41.688  16.005  0.00  0.00     0.055 A 
HETATM   35  C   UNK     0      20.974  40.723  15.738  0.00  0.00     0.080 A 
HETATM   36  C   UNK     0      20.122  40.876  14.661  0.00  0.00     0.047 A 
HETATM   37  C   UNK     0      20.216  41.993  13.839  0.00  0.00     0.091 A 
HETATM   38  O   UNK     0      19.186  39.922  14.406  0.00  0.00     0.000 OA
HETATM   39  C   UNK     0      21.182  42.961  14.111  0.00  0.00     0.056 A 
HETATM   40  O   UNK     0      19.364  42.127  12.768  0.00  0.00    -0.306 OA
HETATM   41  C   UNK     0      18.435  41.157  12.497  0.00  0.00     0.121 A 
HETATM   42  O   UNK     0      18.397  40.169  13.194  0.00  0.00     0.000 OA
HETATM   43  H   UNK     0      18.559  40.026  13.618  0.00  0.00     0.000 HD
BRANCH  35  44
HETATM   44  O   UNK     0      20.875  39.621  16.530  0.00  0.00    -0.360 OA
HETATM   45  H   UNK     0      21.129  38.711  16.165  0.00  0.00     0.217 HD
ENDBRANCH  35  44
BRANCH  41  46
HETATM   46  C   UNK     0      17.468  41.271  11.389  0.00  0.00     0.006 A 
HETATM   47  C   UNK     0      17.894  41.806  10.182  0.00  0.00     0.054 A 
HETATM   48  C   UNK     0      17.014  41.915   9.116  0.00  0.00     0.102 A 
HETATM   49  C   UNK     0      15.704  41.488   9.258  0.00  0.00     0.132 A 
HETATM   50  C   UNK     0      15.274  40.955  10.465  0.00  0.00     0.102 A 
HETATM   51  C   UNK     0      16.156  40.844  11.531  0.00  0.00     0.054 A 
BRANCH  48  52
HETATM   52  O   UNK     0      17.436  42.437   7.935  0.00  0.00    -0.358 OA
HETATM   53  H   UNK     0      18.251  42.052   7.474  0.00  0.00     0.217 HD
ENDBRANCH  48  52
BRANCH  49  54
HETATM   54  O   UNK     0      14.841  41.593   8.212  0.00  0.00    -0.356 OA
HETATM   55  H   UNK     0      15.127  41.294   7.288  0.00  0.00     0.218 HD
ENDBRANCH  49  54
BRANCH  50  56
HETATM   56  O   UNK     0      13.985  40.540  10.602  0.00  0.00    -0.358 OA
HETATM   57  H   UNK     0      13.708  40.010  11.418  0.00  0.00     0.217 HD
ENDBRANCH  50  56
ENDBRANCH  41  46
ENDBRANCH  31  33
ENDBRANCH  30  31
ENDBRANCH  29  30
ENDBRANCH  21  29
BRANCH  17  58
HETATM   58  O   UNK     0      20.797  42.845  20.595  0.00  0.00    -0.283 OA
BRANCH  58  59
HETATM   59  C   UNK     0      20.212  43.733  19.749  0.00  0.00     0.295 C 
HETATM   60  O   UNK     0      20.383  44.922  19.897  0.00  0.00    -0.259 OA
BRANCH  59  61
HETATM   61  C   UNK     0      19.365  43.237  18.654  0.00  0.00     0.045 A 
HETATM   62  C   UNK     0      18.767  41.991  18.757  0.00  0.00     0.057 A 
HETATM   63  C   UNK     0      17.962  41.520  17.732  0.00  0.00     0.102 A 
HETATM   64  C   UNK     0      17.759  42.294  16.601  0.00  0.00     0.132 A 
HETATM   65  C   UNK     0      18.358  43.541  16.498  0.00  0.00     0.102 A 
HETATM   66  C   UNK     0      19.160  44.014  17.525  0.00  0.00     0.057 A 
BRANCH  63  67
HETATM   67  O   UNK     0      17.372  40.299  17.838  0.00  0.00    -0.358 OA
HETATM   68  H   UNK     0      16.998  39.846  17.014  0.00  0.00     0.217 HD
ENDBRANCH  63  67
BRANCH  64  69
HETATM   69  O   UNK     0      16.974  41.830  15.591  0.00  0.00    -0.356 OA
HETATM   70  H   UNK     0      17.372  41.243  14.869  0.00  0.00     0.218 HD
ENDBRANCH  64  69
BRANCH  65  71
HETATM   71  O   UNK     0      18.156  44.300  15.389  0.00  0.00    -0.358 OA
HETATM   72  H   UNK     0      18.806  44.250  14.616  0.00  0.00     0.217 HD
ENDBRANCH  65  71
ENDBRANCH  59  61
ENDBRANCH  58  59
ENDBRANCH  17  58
BRANCH  20  73
HETATM   73  O   UNK     0      24.610  40.205  19.974  0.00  0.00    -0.390 OA
HETATM   74  H   UNK     0      25.453  40.036  19.440  0.00  0.00     0.210 HD
ENDBRANCH  20  73
BRANCH   5  75
HETATM   75  O   UNK     0      29.805  39.003  17.186  0.00  0.00    -0.358 OA
HETATM   76  H   UNK     0      30.447  39.739  17.449  0.00  0.00     0.217 HD
ENDBRANCH   5  75
BRANCH   3  77
HETATM   77  O   UNK     0      29.505  36.759  18.738  0.00  0.00    -0.357 OA
HETATM   78  H   UNK     0      29.894  36.483  19.630  0.00  0.00     0.217 HD
ENDBRANCH   3  77
BRANCH  12  79
HETATM   79  O   UNK     0      23.028  35.528  23.230  0.00  0.00    -0.304 OA
BRANCH  79  80
HETATM   80  C   UNK     0      21.980  34.687  23.478  0.00  0.00     0.129 A 
HETATM   81  C   UNK     0      20.718  35.067  23.918  0.00  0.00     0.077 A 
HETATM   82  C   UNK     0      19.757  34.095  24.164  0.00  0.00     0.060 A 
HETATM   83  C   UNK     0      20.042  32.752  23.969  0.00  0.00     0.102 A 
HETATM   84  C   UNK     0      21.295  32.375  23.520  0.00  0.00     0.135 A 
HETATM   85  C   UNK     0      22.252  33.341  23.276  0.00  0.00     0.137 A 
BRANCH  81  86
HETATM   86  C   UNK     0      20.376  36.476  24.130  0.00  0.00     0.179 C 
HETATM   87  O   UNK     0      19.401  36.953  23.597  0.00  0.00    -0.646 OA
BRANCH  86  88
HETATM   88  O   UNK     0      21.165  37.244  24.930  0.00  0.00    -0.773 OA
HETATM   89  H   UNK     0      21.972  36.837  25.384  0.00  0.00     0.167 HD
ENDBRANCH  86  88
ENDBRANCH  81  86
BRANCH  83  90
HETATM   90  O   UNK     0      19.098  31.804  24.217  0.00  0.00    -0.358 OA
HETATM   91  H   UNK     0      19.038  30.985  23.626  0.00  0.00     0.217 HD
ENDBRANCH  83  90
BRANCH  84  92
HETATM   92  O   UNK     0      21.588  31.061  23.321  0.00  0.00    -0.356 OA
HETATM   93  H   UNK     0      20.891  30.442  22.928  0.00  0.00     0.218 HD
ENDBRANCH  84  92
BRANCH  85  94
HETATM   94  O   UNK     0      23.483  32.967  22.833  0.00  0.00    -0.356 OA
HETATM   95  H   UNK     0      24.234  33.645  22.792  0.00  0.00     0.218 HD
ENDBRANCH  85  94
ENDBRANCH  79  80
ENDBRANCH  12  79
BRANCH  10  96
HETATM   96  O   UNK     0      25.578  35.297  23.002  0.00  0.00    -0.357 OA
HETATM   97  H   UNK     0      25.174  34.374  23.103  0.00  0.00     0.217 HD
ENDBRANCH  10  96
TORSDOF 26
