REMARK VINA RESULT:     -10.7      2.125      3.446
REMARK  26 active torsions:
REMARK  status: ('A' for Active; 'I' for Inactive)
REMARK    1  A    between atoms: C_1  and  C_7 
REMARK    2  A    between atoms: C_4  and  O_9 
REMARK    3  A    between atoms: C_5  and  O_11 
REMARK    4  A    between atoms: C_6  and  O_10 
REMARK    5  A    between atoms: C_12  and  C_18 
REMARK    6  A    between atoms: C_15  and  O_76 
REMARK    7  A    between atoms: C_18  and  O_74 
REMARK    8  A    between atoms: C_21  and  O_25 
REMARK    9  A    between atoms: C_23  and  O_26 
REMARK   10  A    between atoms: C_30  and  O_35 
REMARK   11  A    between atoms: C_32  and  O_36 
REMARK   12  A    between atoms: O_36  and  C_67 
REMARK   13  A    between atoms: C_39  and  O_60 
REMARK   14  A    between atoms: C_41  and  O_58 
REMARK   15  A    between atoms: C_42  and  C_45 
REMARK   16  A    between atoms: C_43  and  O_59 
REMARK   17  A    between atoms: C_45  and  O_53 
REMARK   18  A    between atoms: C_47  and  O_53 
REMARK   19  A    between atoms: C_50  and  O_55 
REMARK   20  A    between atoms: C_51  and  C_54 
REMARK   21  A    between atoms: C_54  and  O_74 
REMARK   22  A    between atoms: C_64  and  O_69 
REMARK   23  A    between atoms: C_65  and  C_72 
REMARK   24  A    between atoms: C_66  and  O_70 
REMARK   25  A    between atoms: C_68  and  O_71 
REMARK   26  A    between atoms: C_72  and  O_73 
ROOT
HETATM    1  C   UNK     0      26.896  35.120  19.134  0.00  0.00     0.026 A 
HETATM    2  C   UNK     0      26.007  36.206  19.219  0.00  0.00     0.006 A 
HETATM    3  C   UNK     0      28.007  35.081  18.314  0.00  0.00     0.111 A 
HETATM    4  C   UNK     0      26.304  37.259  18.304  0.00  0.00     0.054 A 
HETATM    5  C   UNK     0      28.288  36.140  17.492  0.00  0.00     0.100 A 
HETATM    6  C   UNK     0      27.423  37.207  17.485  0.00  0.00     0.058 A 
HETATM    7  O   UNK     0      26.665  34.012  19.880  0.00  0.00     0.000 OA
HETATM    8  C   UNK     0      25.303  34.908  21.185  0.00  0.00     0.026 A 
HETATM    9  C   UNK     0      24.860  35.924  20.334  0.00  0.00     0.006 A 
HETATM   10  C   UNK     0      24.527  34.319  22.148  0.00  0.00     0.111 A 
HETATM   11  C   UNK     0      23.544  36.420  20.632  0.00  0.00     0.054 A 
HETATM   12  C   UNK     0      23.242  34.727  22.358  0.00  0.00     0.111 A 
HETATM   13  C   UNK     0      22.764  35.796  21.619  0.00  0.00     0.058 A 
HETATM   14  C   UNK     0      22.816  37.560  20.009  0.00  0.00     0.294 C 
HETATM   15  O   UNK     0      26.573  34.451  21.075  0.00  0.00     0.000 OA
HETATM   16  O   UNK     0      22.493  37.494  18.846  0.00  0.00    -0.259 OA
HETATM   17  C   UNK     0      22.836  41.177  20.600  0.00  0.00     0.302 C 
HETATM   18  C   UNK     0      22.998  39.805  19.989  0.00  0.00     0.219 C 
HETATM   19  O   UNK     0      23.594  42.146  19.777  0.00  0.00    -0.348 OA
HETATM   20  C   UNK     0      24.371  39.638  19.851  0.00  0.00     0.184 C 
HETATM   21  C   UNK     0      24.715  41.791  18.871  0.00  0.00     0.181 C 
HETATM   22  C   UNK     0      24.725  40.275  18.623  0.00  0.00     0.194 C 
HETATM   23  O   UNK     0      25.968  39.746  18.228  0.00  0.00    -0.307 OA
HETATM   24  O   UNK     0      22.505  38.718  20.745  0.00  0.00    -0.304 OA
HETATM   25  C   UNK     0      25.533  38.445  18.033  0.00  0.00     0.294 C 
HETATM   26  O   UNK     0      24.403  38.294  17.630  0.00  0.00    -0.259 OA
HETATM   27  H   UNK     0      27.291  33.220  19.816  0.00  0.00     0.000 HD
HETATM   28  H   UNK     0      26.901  33.714  21.685  0.00  0.00     0.000 HD
ENDROOT
BRANCH  21  29
HETATM   29  C   UNK     0      24.536  42.504  17.508  0.00  0.00     0.213 C 
BRANCH  29  30
HETATM   30  O   UNK     0      23.228  42.975  17.181  0.00  0.00    -0.315 OA
BRANCH  30  31
HETATM   31  C   UNK     0      22.501  42.335  16.220  0.00  0.00     0.293 C 
HETATM   32  O   UNK     0      22.732  41.171  15.986  0.00  0.00    -0.259 OA
BRANCH  31  33
HETATM   33  C   UNK     0      21.406  43.012  15.474  0.00  0.00     0.044 A 
HETATM   34  C   UNK     0      21.373  44.397  15.480  0.00  0.00     0.055 A 
HETATM   35  C   UNK     0      20.367  45.078  14.816  0.00  0.00     0.080 A 
HETATM   36  C   UNK     0      19.389  44.374  14.139  0.00  0.00     0.047 A 
HETATM   37  C   UNK     0      19.405  42.984  14.120  0.00  0.00     0.091 A 
HETATM   38  O   UNK     0      18.405  45.052  13.490  0.00  0.00     0.000 OA
HETATM   39  C   UNK     0      20.419  42.304  14.793  0.00  0.00     0.056 A 
HETATM   40  O   UNK     0      18.421  42.300  13.447  0.00  0.00    -0.306 OA
HETATM   41  C   UNK     0      17.416  42.980  12.810  0.00  0.00     0.121 A 
HETATM   42  O   UNK     0      17.391  44.187  12.875  0.00  0.00     0.000 OA
HETATM   43  H   UNK     0      17.684  44.543  12.993  0.00  0.00     0.000 HD
BRANCH  35  44
HETATM   44  O   UNK     0      20.336  46.438  14.832  0.00  0.00    -0.360 OA
HETATM   45  H   UNK     0      21.176  46.960  15.049  0.00  0.00     0.217 HD
ENDBRANCH  35  44
BRANCH  41  46
HETATM   46  C   UNK     0      16.361  42.297  12.037  0.00  0.00     0.006 A 
HETATM   47  C   UNK     0      15.315  41.694  12.719  0.00  0.00     0.054 A 
HETATM   48  C   UNK     0      14.301  41.056  12.022  0.00  0.00     0.102 A 
HETATM   49  C   UNK     0      14.334  41.019  10.638  0.00  0.00     0.132 A 
HETATM   50  C   UNK     0      15.380  41.618   9.952  0.00  0.00     0.102 A 
HETATM   51  C   UNK     0      16.394  42.260  10.651  0.00  0.00     0.054 A 
BRANCH  48  52
HETATM   52  O   UNK     0      13.276  40.469  12.695  0.00  0.00    -0.358 OA
HETATM   53  H   UNK     0      13.068  39.490  12.547  0.00  0.00     0.217 HD
ENDBRANCH  48  52
BRANCH  49  54
HETATM   54  O   UNK     0      13.338  40.395   9.954  0.00  0.00    -0.356 OA
HETATM   55  H   UNK     0      12.468  40.879   9.771  0.00  0.00     0.218 HD
ENDBRANCH  49  54
BRANCH  50  56
HETATM   56  O   UNK     0      15.411  41.578   8.592  0.00  0.00    -0.358 OA
HETATM   57  H   UNK     0      14.809  42.188   8.054  0.00  0.00     0.217 HD
ENDBRANCH  50  56
ENDBRANCH  41  46
ENDBRANCH  31  33
ENDBRANCH  30  31
ENDBRANCH  29  30
ENDBRANCH  21  29
BRANCH  17  58
HETATM   58  O   UNK     0      21.466  41.535  20.633  0.00  0.00    -0.283 OA
BRANCH  58  59
HETATM   59  C   UNK     0      21.025  42.649  19.991  0.00  0.00     0.295 C 
HETATM   60  O   UNK     0      21.568  43.715  20.175  0.00  0.00    -0.259 OA
BRANCH  59  61
HETATM   61  C   UNK     0      19.879  42.549  19.076  0.00  0.00     0.045 A 
HETATM   62  C   UNK     0      19.356  43.697  18.502  0.00  0.00     0.057 A 
HETATM   63  C   UNK     0      18.279  43.611  17.633  0.00  0.00     0.102 A 
HETATM   64  C   UNK     0      17.723  42.376  17.342  0.00  0.00     0.132 A 
HETATM   65  C   UNK     0      18.247  41.227  17.916  0.00  0.00     0.102 A 
HETATM   66  C   UNK     0      19.326  41.313  18.783  0.00  0.00     0.057 A 
BRANCH  63  67
HETATM   67  O   UNK     0      17.771  44.738  17.067  0.00  0.00    -0.358 OA
HETATM   68  H   UNK     0      16.945  44.683  16.485  0.00  0.00     0.217 HD
ENDBRANCH  63  67
BRANCH  64  69
HETATM   69  O   UNK     0      16.662  42.290  16.494  0.00  0.00    -0.356 OA
HETATM   70  H   UNK     0      16.708  42.725  15.581  0.00  0.00     0.218 HD
ENDBRANCH  64  69
BRANCH  65  71
HETATM   71  O   UNK     0      17.702  40.016  17.629  0.00  0.00    -0.358 OA
HETATM   72  H   UNK     0      18.238  39.328  17.118  0.00  0.00     0.217 HD
ENDBRANCH  65  71
ENDBRANCH  59  61
ENDBRANCH  58  59
ENDBRANCH  17  58
BRANCH  20  73
HETATM   73  O   UNK     0      24.704  38.259  19.810  0.00  0.00    -0.390 OA
HETATM   74  H   UNK     0      25.650  37.972  19.594  0.00  0.00     0.210 HD
ENDBRANCH  20  73
BRANCH   5  75
HETATM   75  O   UNK     0      29.386  36.125  16.689  0.00  0.00    -0.358 OA
HETATM   76  H   UNK     0      30.291  35.891  17.074  0.00  0.00     0.217 HD
ENDBRANCH   5  75
BRANCH   3  77
HETATM   77  O   UNK     0      28.820  33.991  18.320  0.00  0.00    -0.357 OA
HETATM   78  H   UNK     0      29.470  33.849  19.082  0.00  0.00     0.217 HD
ENDBRANCH   3  77
BRANCH  12  79
HETATM   79  O   UNK     0      22.587  33.979  23.300  0.00  0.00    -0.304 OA
BRANCH  79  80
HETATM   80  C   UNK     0      21.504  33.196  23.584  0.00  0.00     0.129 A 
HETATM   81  C   UNK     0      20.270  33.647  24.034  0.00  0.00     0.077 A 
HETATM   82  C   UNK     0      19.267  32.729  24.318  0.00  0.00     0.060 A 
HETATM   83  C   UNK     0      19.484  31.369  24.151  0.00  0.00     0.102 A 
HETATM   84  C   UNK     0      20.710  30.922  23.691  0.00  0.00     0.135 A 
HETATM   85  C   UNK     0      21.708  31.834  23.410  0.00  0.00     0.137 A 
BRANCH  81  86
HETATM   86  C   UNK     0      19.999  35.075  24.218  0.00  0.00     0.179 C 
HETATM   87  O   UNK     0      18.982  35.563  23.783  0.00  0.00    -0.646 OA
BRANCH  86  88
HETATM   88  O   UNK     0      20.902  35.848  24.881  0.00  0.00    -0.773 OA
HETATM   89  H   UNK     0      21.876  35.577  24.907  0.00  0.00     0.167 HD
ENDBRANCH  86  88
ENDBRANCH  81  86
BRANCH  83  90
HETATM   90  O   UNK     0      18.499  30.474  24.435  0.00  0.00    -0.358 OA
HETATM   91  H   UNK     0      18.481  30.014  25.335  0.00  0.00     0.217 HD
ENDBRANCH  83  90
BRANCH  84  92
HETATM   92  O   UNK     0      20.936  29.591  23.519  0.00  0.00    -0.356 OA
HETATM   93  H   UNK     0      20.797  28.951  24.290  0.00  0.00     0.218 HD
ENDBRANCH  84  92
BRANCH  85  94
HETATM   94  O   UNK     0      22.912  31.391  22.957  0.00  0.00    -0.356 OA
HETATM   95  H   UNK     0      22.952  30.715  22.204  0.00  0.00     0.218 HD
ENDBRANCH  85  94
ENDBRANCH  79  80
ENDBRANCH  12  79
BRANCH  10  96
HETATM   96  O   UNK     0      25.034  33.302  22.895  0.00  0.00    -0.357 OA
HETATM   97  H   UNK     0      25.691  33.498  23.639  0.00  0.00     0.217 HD
ENDBRANCH  10  96
TORSDOF 26
