REMARK VINA RESULT:     -10.8      0.000      0.000
REMARK  26 active torsions:
REMARK  status: ('A' for Active; 'I' for Inactive)
REMARK    1  A    between atoms: C_1  and  C_7 
REMARK    2  A    between atoms: C_4  and  O_9 
REMARK    3  A    between atoms: C_5  and  O_11 
REMARK    4  A    between atoms: C_6  and  O_10 
REMARK    5  A    between atoms: C_12  and  C_18 
REMARK    6  A    between atoms: C_15  and  O_76 
REMARK    7  A    between atoms: C_18  and  O_74 
REMARK    8  A    between atoms: C_21  and  O_25 
REMARK    9  A    between atoms: C_23  and  O_26 
REMARK   10  A    between atoms: C_30  and  O_35 
REMARK   11  A    between atoms: C_32  and  O_36 
REMARK   12  A    between atoms: O_36  and  C_67 
REMARK   13  A    between atoms: C_39  and  O_60 
REMARK   14  A    between atoms: C_41  and  O_58 
REMARK   15  A    between atoms: C_42  and  C_45 
REMARK   16  A    between atoms: C_43  and  O_59 
REMARK   17  A    between atoms: C_45  and  O_53 
REMARK   18  A    between atoms: C_47  and  O_53 
REMARK   19  A    between atoms: C_50  and  O_55 
REMARK   20  A    between atoms: C_51  and  C_54 
REMARK   21  A    between atoms: C_54  and  O_74 
REMARK   22  A    between atoms: C_64  and  O_69 
REMARK   23  A    between atoms: C_65  and  C_72 
REMARK   24  A    between atoms: C_66  and  O_70 
REMARK   25  A    between atoms: C_68  and  O_71 
REMARK   26  A    between atoms: C_72  and  O_73 
ROOT
HETATM    1  C   UNK     0      28.149  38.215  19.181  0.00  0.00     0.026 A 
HETATM    2  C   UNK     0      27.020  39.020  18.952  0.00  0.00     0.006 A 
HETATM    3  C   UNK     0      29.353  38.349  18.515  0.00  0.00     0.111 A 
HETATM    4  C   UNK     0      27.191  39.957  17.890  0.00  0.00     0.054 A 
HETATM    5  C   UNK     0      29.494  39.303  17.541  0.00  0.00     0.100 A 
HETATM    6  C   UNK     0      28.405  40.081  17.229  0.00  0.00     0.058 A 
HETATM    7  O   UNK     0      28.081  37.218  20.096  0.00  0.00     0.000 OA
HETATM    8  C   UNK     0      26.349  37.906  21.039  0.00  0.00     0.026 A 
HETATM    9  C   UNK     0      25.813  38.618  19.963  0.00  0.00     0.006 A 
HETATM   10  C   UNK     0      25.597  37.288  22.003  0.00  0.00     0.111 A 
HETATM   11  C   UNK     0      24.385  38.780  20.007  0.00  0.00     0.054 A 
HETATM   12  C   UNK     0      24.235  37.362  21.982  0.00  0.00     0.111 A 
HETATM   13  C   UNK     0      23.634  38.132  21.001  0.00  0.00     0.058 A 
HETATM   14  C   UNK     0      23.510  39.569  19.096  0.00  0.00     0.294 C 
HETATM   15  O   UNK     0      27.693  37.798  21.164  0.00  0.00     0.000 OA
HETATM   16  O   UNK     0      23.404  39.236  17.939  0.00  0.00    -0.259 OA
HETATM   17  C   UNK     0      22.547  43.103  18.975  0.00  0.00     0.302 C 
HETATM   18  C   UNK     0      23.136  41.747  18.663  0.00  0.00     0.219 C 
HETATM   19  O   UNK     0      23.165  44.099  18.072  0.00  0.00    -0.348 OA
HETATM   20  C   UNK     0      24.512  41.938  18.717  0.00  0.00     0.184 C 
HETATM   21  C   UNK     0      24.470  43.922  17.385  0.00  0.00     0.181 C 
HETATM   22  C   UNK     0      24.891  42.445  17.438  0.00  0.00     0.194 C 
HETATM   23  O   UNK     0      26.272  42.217  17.297  0.00  0.00    -0.307 OA
HETATM   24  O   UNK     0      22.810  40.700  19.554  0.00  0.00    -0.304 OA
HETATM   25  C   UNK     0      26.207  40.833  17.309  0.00  0.00     0.294 C 
HETATM   26  O   UNK     0      25.229  40.321  16.817  0.00  0.00    -0.259 OA
HETATM   27  H   UNK     0      28.884  36.625  20.258  0.00  0.00     0.000 HD
HETATM   28  H   UNK     0      28.090  37.282  21.939  0.00  0.00     0.000 HD
ENDROOT
BRANCH  21  29
HETATM   29  C   UNK     0      24.342  44.337  15.898  0.00  0.00     0.213 C 
BRANCH  29  30
HETATM   30  O   UNK     0      23.067  44.172  15.279  0.00  0.00    -0.315 OA
BRANCH  30  31
HETATM   31  C   UNK     0      22.918  43.265  14.269  0.00  0.00     0.293 C 
HETATM   32  O   UNK     0      23.569  42.246  14.295  0.00  0.00    -0.259 OA
BRANCH  31  33
HETATM   33  C   UNK     0      21.953  43.471  13.156  0.00  0.00     0.044 A 
HETATM   34  C   UNK     0      22.303  44.350  12.144  0.00  0.00     0.055 A 
HETATM   35  C   UNK     0      21.436  44.591  11.093  0.00  0.00     0.080 A 
HETATM   36  C   UNK     0      20.212  43.950  11.048  0.00  0.00     0.047 A 
HETATM   37  C   UNK     0      19.843  43.063  12.052  0.00  0.00     0.091 A 
HETATM   38  O   UNK     0      19.366  44.193  10.010  0.00  0.00     0.000 OA
HETATM   39  C   UNK     0      20.719  42.826  13.110  0.00  0.00     0.056 A 
HETATM   40  O   UNK     0      18.619  42.439  11.994  0.00  0.00    -0.306 OA
HETATM   41  C   UNK     0      17.756  42.698  10.962  0.00  0.00     0.121 A 
HETATM   42  O   UNK     0      18.074  43.507  10.121  0.00  0.00     0.000 OA
HETATM   43  H   UNK     0      18.468  43.729   9.971  0.00  0.00     0.000 HD
BRANCH  35  44
HETATM   44  O   UNK     0      21.782  45.462  10.106  0.00  0.00    -0.360 OA
HETATM   45  H   UNK     0      21.064  45.975   9.610  0.00  0.00     0.217 HD
ENDBRANCH  35  44
BRANCH  41  46
HETATM   46  C   UNK     0      16.452  42.023  10.828  0.00  0.00     0.006 A 
HETATM   47  C   UNK     0      16.112  41.459   9.608  0.00  0.00     0.054 A 
HETATM   48  C   UNK     0      14.899  40.805   9.453  0.00  0.00     0.102 A 
HETATM   49  C   UNK     0      14.023  40.718  10.521  0.00  0.00     0.132 A 
HETATM   50  C   UNK     0      14.357  41.284  11.743  0.00  0.00     0.102 A 
HETATM   51  C   UNK     0      15.574  41.935  11.898  0.00  0.00     0.054 A 
BRANCH  48  52
HETATM   52  O   UNK     0      14.572  40.251   8.256  0.00  0.00    -0.358 OA
HETATM   53  H   UNK     0      14.823  40.721   7.395  0.00  0.00     0.217 HD
ENDBRANCH  48  52
BRANCH  49  54
HETATM   54  O   UNK     0      12.834  40.075  10.370  0.00  0.00    -0.356 OA
HETATM   55  H   UNK     0      12.361  39.688  11.177  0.00  0.00     0.218 HD
ENDBRANCH  49  54
BRANCH  50  56
HETATM   56  O   UNK     0      13.493  41.198  12.790  0.00  0.00    -0.358 OA
HETATM   57  H   UNK     0      13.058  42.034  13.157  0.00  0.00     0.217 HD
ENDBRANCH  50  56
ENDBRANCH  41  46
ENDBRANCH  31  33
ENDBRANCH  30  31
ENDBRANCH  29  30
ENDBRANCH  21  29
BRANCH  17  58
HETATM   58  O   UNK     0      21.143  43.078  18.781  0.00  0.00    -0.283 OA
BRANCH  58  59
HETATM   59  C   UNK     0      20.610  43.294  17.550  0.00  0.00     0.295 C 
HETATM   60  O   UNK     0      20.668  42.436  16.699  0.00  0.00    -0.259 OA
BRANCH  59  61
HETATM   61  C   UNK     0      19.966  44.583  17.259  0.00  0.00     0.045 A 
HETATM   62  C   UNK     0      19.988  45.087  15.968  0.00  0.00     0.057 A 
HETATM   63  C   UNK     0      19.377  46.298  15.684  0.00  0.00     0.102 A 
HETATM   64  C   UNK     0      18.747  47.008  16.693  0.00  0.00     0.132 A 
HETATM   65  C   UNK     0      18.725  46.504  17.985  0.00  0.00     0.102 A 
HETATM   66  C   UNK     0      19.332  45.290  18.269  0.00  0.00     0.057 A 
BRANCH  63  67
HETATM   67  O   UNK     0      19.396  46.788  14.415  0.00  0.00    -0.358 OA
HETATM   68  H   UNK     0      20.040  46.405  13.735  0.00  0.00     0.217 HD
ENDBRANCH  63  67
BRANCH  64  69
HETATM   69  O   UNK     0      18.152  48.200  16.418  0.00  0.00    -0.356 OA
HETATM   70  H   UNK     0      17.307  48.469  16.906  0.00  0.00     0.218 HD
ENDBRANCH  64  69
BRANCH  65  71
HETATM   71  O   UNK     0      18.105  47.200  18.974  0.00  0.00    -0.358 OA
HETATM   72  H   UNK     0      18.595  47.401  19.836  0.00  0.00     0.217 HD
ENDBRANCH  65  71
ENDBRANCH  59  61
ENDBRANCH  58  59
ENDBRANCH  17  58
BRANCH  20  73
HETATM   73  O   UNK     0      25.175  40.711  18.983  0.00  0.00    -0.390 OA
HETATM   74  H   UNK     0      25.042  39.920  18.366  0.00  0.00     0.210 HD
ENDBRANCH  20  73
BRANCH   5  75
HETATM   75  O   UNK     0      30.675  39.458  16.886  0.00  0.00    -0.358 OA
HETATM   76  H   UNK     0      30.868  40.318  16.389  0.00  0.00     0.217 HD
ENDBRANCH   5  75
BRANCH   3  77
HETATM   77  O   UNK     0      30.396  37.535  18.824  0.00  0.00    -0.357 OA
HETATM   78  H   UNK     0      31.151  37.407  18.163  0.00  0.00     0.217 HD
ENDBRANCH   3  77
BRANCH  12  79
HETATM   79  O   UNK     0      23.641  36.622  22.970  0.00  0.00    -0.304 OA
BRANCH  79  80
HETATM   80  C   UNK     0      22.636  35.758  23.301  0.00  0.00     0.129 A 
HETATM   81  C   UNK     0      22.667  34.378  23.150  0.00  0.00     0.077 A 
HETATM   82  C   UNK     0      21.552  33.625  23.498  0.00  0.00     0.060 A 
HETATM   83  C   UNK     0      20.412  34.237  23.997  0.00  0.00     0.102 A 
HETATM   84  C   UNK     0      20.386  35.611  24.157  0.00  0.00     0.135 A 
HETATM   85  C   UNK     0      21.494  36.361  23.811  0.00  0.00     0.137 A 
BRANCH  81  86
HETATM   86  C   UNK     0      23.854  33.693  22.632  0.00  0.00     0.179 C 
HETATM   87  O   UNK     0      23.751  32.893  21.731  0.00  0.00    -0.646 OA
BRANCH  86  88
HETATM   88  O   UNK     0      25.073  33.962  23.173  0.00  0.00    -0.773 OA
HETATM   89  H   UNK     0      25.668  33.204  23.481  0.00  0.00     0.167 HD
ENDBRANCH  86  88
ENDBRANCH  81  86
BRANCH  83  90
HETATM   90  O   UNK     0      19.322  33.496  24.330  0.00  0.00    -0.358 OA
HETATM   91  H   UNK     0      18.869  33.638  25.223  0.00  0.00     0.217 HD
ENDBRANCH  83  90
BRANCH  84  92
HETATM   92  O   UNK     0      19.276  36.225  24.650  0.00  0.00    -0.356 OA
HETATM   93  H   UNK     0      18.952  37.090  24.236  0.00  0.00     0.218 HD
ENDBRANCH  84  92
BRANCH  85  94
HETATM   94  O   UNK     0      21.465  37.711  23.971  0.00  0.00    -0.356 OA
HETATM   95  H   UNK     0      22.047  38.151  24.674  0.00  0.00     0.218 HD
ENDBRANCH  85  94
ENDBRANCH  79  80
ENDBRANCH  12  79
BRANCH  10  96
HETATM   96  O   UNK     0      26.211  36.576  22.985  0.00  0.00    -0.357 OA
HETATM   97  H   UNK     0      27.222  36.527  23.020  0.00  0.00     0.217 HD
ENDBRANCH  10  96
TORSDOF 26
