REMARK VINA RESULT:      -6.1      1.888      5.424
REMARK  Name = 4485
REMARK  10 active torsions:
REMARK  status: ('A' for Active; 'I' for Inactive)
REMARK    1  A    between atoms: O_1  and  C_17
REMARK    2  A    between atoms: O_1  and  C_24
REMARK    3  A    between atoms: O_2  and  C_18
REMARK    4  A    between atoms: O_2  and  C_25
REMARK    5  A    between atoms: N_8  and  C_15
REMARK    6  A    between atoms: C_9  and  C_12
REMARK    7  A    between atoms: C_10  and  C_17
REMARK    8  A    between atoms: C_11  and  C_18
REMARK    9  A    between atoms: C_13  and  C_19
REMARK   10  A    between atoms: C_14  and  C_20
REMARK                            x       y       z     vdW  Elec       q    Type
REMARK                         _______ _______ _______ _____ _____    ______ ____
ROOT
ATOM      1  C   UNL     1     178.331 175.463 169.276  0.00  0.00    +0.065 C 
ATOM      2  C   UNL     1     178.603 174.138 169.244  0.00  0.00    +0.016 C 
ATOM      3  C   UNL     1     179.960 173.529 169.016  0.00  0.00    +0.061 C 
ATOM      4  N   UNL     1     177.578 173.225 169.438  0.00  0.00    -0.321 N 
ATOM      5  H   UNL     1     177.818 172.240 169.414  0.00  0.00    +0.152 HD
ATOM      6  C   UNL     1     176.238 173.553 169.567  0.00  0.00    +0.016 C 
ATOM      7  C   UNL     1     175.302 172.377 169.654  0.00  0.00    +0.061 C 
ATOM      8  C   UNL     1     175.870 174.852 169.601  0.00  0.00    +0.065 C 
ATOM      9  C   UNL     1     176.913 175.973 169.561  0.00  0.00    +0.102 C 
ENDROOT
BRANCH   9  10
ATOM     10  C   UNL     1     176.893 176.738 170.853  0.00  0.00    +0.042 A 
ATOM     11  C   UNL     1     177.198 176.058 172.029  0.00  0.00    +0.011 A 
ATOM     12  C   UNL     1     177.189 176.741 173.246  0.00  0.00    +0.001 A 
ATOM     13  C   UNL     1     176.874 178.099 173.281  0.00  0.00    +0.007 A 
ATOM     14  C   UNL     1     176.569 178.776 172.099  0.00  0.00    +0.084 A 
ATOM     15  C   UNL     1     176.579 178.093 170.882  0.00  0.00    +0.277 A 
BRANCH  15  16
ATOM     16  N   UNL     1     176.267 178.803 169.690  0.00  0.00    +0.080 N 
ATOM     17  O   UNL     1     177.197 179.346 169.047  0.00  0.00    +0.041 OA
ATOM     18  O   UNL     1     175.071 178.866 169.318  0.00  0.00    -0.576 OA
ENDBRANCH  15  16
ENDBRANCH   9  10
BRANCH   1  19
ATOM     19  C   UNL     1     179.352 176.482 168.985  0.00  0.00    +0.337 C 
ATOM     20  O   UNL     1     179.459 177.032 167.904  0.00  0.00    -0.245 OA
BRANCH  19  21
ATOM     21  O   UNL     1     180.099 176.668 170.099  0.00  0.00    -0.465 OA
ATOM     22  C   UNL     1     180.324 178.037 170.458  0.00  0.00    +0.280 C 
ENDBRANCH  19  21
ENDBRANCH   1  19
BRANCH   8  23
ATOM     23  C   UNL     1     174.457 175.267 169.629  0.00  0.00    +0.337 C 
ATOM     24  O   UNL     1     173.749 175.163 170.613  0.00  0.00    -0.245 OA
BRANCH  23  25
ATOM     25  O   UNL     1     174.132 175.761 168.410  0.00  0.00    -0.465 OA
ATOM     26  C   UNL     1     172.735 175.737 168.099  0.00  0.00    +0.280 C 
ENDBRANCH  23  25
ENDBRANCH   8  23
TORSDOF 6
