REMARK VINA RESULT:      -6.0      2.165      4.405
REMARK  Name = 4485
REMARK  10 active torsions:
REMARK  status: ('A' for Active; 'I' for Inactive)
REMARK    1  A    between atoms: O_1  and  C_17
REMARK    2  A    between atoms: O_1  and  C_24
REMARK    3  A    between atoms: O_2  and  C_18
REMARK    4  A    between atoms: O_2  and  C_25
REMARK    5  A    between atoms: N_8  and  C_15
REMARK    6  A    between atoms: C_9  and  C_12
REMARK    7  A    between atoms: C_10  and  C_17
REMARK    8  A    between atoms: C_11  and  C_18
REMARK    9  A    between atoms: C_13  and  C_19
REMARK   10  A    between atoms: C_14  and  C_20
REMARK                            x       y       z     vdW  Elec       q    Type
REMARK                         _______ _______ _______ _____ _____    ______ ____
ROOT
ATOM      1  C   UNL     1     176.694 174.213 169.717  0.00  0.00    +0.065 C 
ATOM      2  C   UNL     1     175.526 173.530 169.713  0.00  0.00    +0.016 C 
ATOM      3  C   UNL     1     175.372 172.060 170.000  0.00  0.00    +0.061 C 
ATOM      4  N   UNL     1     174.344 174.198 169.432  0.00  0.00    -0.321 N 
ATOM      5  H   UNL     1     173.487 173.656 169.444  0.00  0.00    +0.152 HD
ATOM      6  C   UNL     1     174.257 175.525 169.044  0.00  0.00    +0.016 C 
ATOM      7  C   UNL     1     172.872 175.991 168.683  0.00  0.00    +0.061 C 
ATOM      8  C   UNL     1     175.374 176.285 169.010  0.00  0.00    +0.065 C 
ATOM      9  C   UNL     1     176.728 175.723 169.452  0.00  0.00    +0.102 C 
ENDROOT
BRANCH   9  10
ATOM     10  C   UNL     1     177.209 176.448 170.677  0.00  0.00    +0.042 A 
ATOM     11  C   UNL     1     176.442 176.367 171.836  0.00  0.00    +0.011 A 
ATOM     12  C   UNL     1     176.861 177.028 172.991  0.00  0.00    +0.001 A 
ATOM     13  C   UNL     1     178.044 177.768 172.980  0.00  0.00    +0.007 A 
ATOM     14  C   UNL     1     178.809 177.845 171.815  0.00  0.00    +0.084 A 
ATOM     15  C   UNL     1     178.389 177.183 170.661  0.00  0.00    +0.277 A 
BRANCH  15  16
ATOM     16  N   UNL     1     179.184 177.275 169.486  0.00  0.00    +0.080 N 
ATOM     17  O   UNL     1     180.099 176.435 169.307  0.00  0.00    +0.041 OA
ATOM     18  O   UNL     1     178.949 178.193 168.664  0.00  0.00    -0.576 OA
ENDBRANCH  15  16
ENDBRANCH   9  10
BRANCH   1  19
ATOM     19  C   UNL     1     177.992 173.549 169.913  0.00  0.00    +0.337 C 
ATOM     20  O   UNL     1     178.743 173.263 168.999  0.00  0.00    -0.245 OA
BRANCH  19  21
ATOM     21  O   UNL     1     178.167 173.336 171.240  0.00  0.00    -0.465 OA
ATOM     22  C   UNL     1     179.450 173.715 171.752  0.00  0.00    +0.280 C 
ENDBRANCH  19  21
ENDBRANCH   1  19
BRANCH   8  23
ATOM     23  C   UNL     1     175.367 177.668 168.507  0.00  0.00    +0.337 C 
ATOM     24  O   UNL     1     175.681 177.969 167.370  0.00  0.00    -0.245 OA
BRANCH  23  25
ATOM     25  O   UNL     1     174.960 178.486 169.508  0.00  0.00    -0.465 OA
ATOM     26  C   UNL     1     175.747 179.669 169.683  0.00  0.00    +0.280 C 
ENDBRANCH  23  25
ENDBRANCH   8  23
TORSDOF 6
