REMARK VINA RESULT:      -6.1      9.766     12.317
REMARK  Name = 4485
REMARK  10 active torsions:
REMARK  status: ('A' for Active; 'I' for Inactive)
REMARK    1  A    between atoms: O_1  and  C_17
REMARK    2  A    between atoms: O_1  and  C_24
REMARK    3  A    between atoms: O_2  and  C_18
REMARK    4  A    between atoms: O_2  and  C_25
REMARK    5  A    between atoms: N_8  and  C_15
REMARK    6  A    between atoms: C_9  and  C_12
REMARK    7  A    between atoms: C_10  and  C_17
REMARK    8  A    between atoms: C_11  and  C_18
REMARK    9  A    between atoms: C_13  and  C_19
REMARK   10  A    between atoms: C_14  and  C_20
REMARK                            x       y       z     vdW  Elec       q    Type
REMARK                         _______ _______ _______ _____ _____    ______ ____
ROOT
ATOM      1  C   UNL     1     182.802 183.970 163.324  0.00  0.00    +0.065 C 
ATOM      2  C   UNL     1     183.679 184.482 162.430  0.00  0.00    +0.016 C 
ATOM      3  C   UNL     1     184.663 183.686 161.616  0.00  0.00    +0.061 C 
ATOM      4  N   UNL     1     183.707 185.850 162.207  0.00  0.00    -0.321 N 
ATOM      5  H   UNL     1     184.372 186.199 161.525  0.00  0.00    +0.152 HD
ATOM      6  C   UNL     1     182.964 186.784 162.911  0.00  0.00    +0.016 C 
ATOM      7  C   UNL     1     183.253 188.219 162.562  0.00  0.00    +0.061 C 
ATOM      8  C   UNL     1     182.068 186.366 163.832  0.00  0.00    +0.065 C 
ATOM      9  C   UNL     1     181.812 184.874 164.069  0.00  0.00    +0.102 C 
ENDROOT
BRANCH   9  10
ATOM     10  C   UNL     1     180.405 184.526 163.676  0.00  0.00    +0.042 A 
ATOM     11  C   UNL     1     180.032 184.683 162.344  0.00  0.00    +0.011 A 
ATOM     12  C   UNL     1     178.733 184.367 161.947  0.00  0.00    +0.001 A 
ATOM     13  C   UNL     1     177.812 183.898 162.884  0.00  0.00    +0.007 A 
ATOM     14  C   UNL     1     178.191 183.743 164.218  0.00  0.00    +0.084 A 
ATOM     15  C   UNL     1     179.491 184.058 164.614  0.00  0.00    +0.277 A 
BRANCH  15  16
ATOM     16  N   UNL     1     179.856 183.891 165.978  0.00  0.00    +0.080 N 
ATOM     17  O   UNL     1     179.728 184.862 166.763  0.00  0.00    +0.041 OA
ATOM     18  O   UNL     1     180.295 182.779 166.358  0.00  0.00    -0.576 OA
ENDBRANCH  15  16
ENDBRANCH   9  10
BRANCH   1  19
ATOM     19  C   UNL     1     182.785 182.542 163.678  0.00  0.00    +0.337 C 
ATOM     20  O   UNL     1     182.387 181.671 162.927  0.00  0.00    -0.245 OA
BRANCH  19  21
ATOM     21  O   UNL     1     183.274 182.407 164.934  0.00  0.00    -0.465 OA
ATOM     22  C   UNL     1     184.649 182.013 165.011  0.00  0.00    +0.280 C 
ENDBRANCH  19  21
ENDBRANCH   1  19
BRANCH   8  23
ATOM     23  C   UNL     1     181.324 187.305 164.687  0.00  0.00    +0.337 C 
ATOM     24  O   UNL     1     181.687 187.623 165.804  0.00  0.00    -0.245 OA
BRANCH  23  25
ATOM     25  O   UNL     1     180.224 187.719 164.012  0.00  0.00    -0.465 OA
ATOM     26  C   UNL     1     179.029 187.805 164.796  0.00  0.00    +0.280 C 
ENDBRANCH  23  25
ENDBRANCH   8  23
TORSDOF 6
