REMARK VINA RESULT:      -6.0      2.115      4.340
REMARK  Name = 4485
REMARK  10 active torsions:
REMARK  status: ('A' for Active; 'I' for Inactive)
REMARK    1  A    between atoms: O_1  and  C_17
REMARK    2  A    between atoms: O_1  and  C_24
REMARK    3  A    between atoms: O_2  and  C_18
REMARK    4  A    between atoms: O_2  and  C_25
REMARK    5  A    between atoms: N_8  and  C_15
REMARK    6  A    between atoms: C_9  and  C_12
REMARK    7  A    between atoms: C_10  and  C_17
REMARK    8  A    between atoms: C_11  and  C_18
REMARK    9  A    between atoms: C_13  and  C_19
REMARK   10  A    between atoms: C_14  and  C_20
REMARK                            x       y       z     vdW  Elec       q    Type
REMARK                         _______ _______ _______ _____ _____    ______ ____
ROOT
ATOM      1  C   UNL     1     176.911 175.240 169.805  0.00  0.00    +0.065 C 
ATOM      2  C   UNL     1     177.192 173.958 169.478  0.00  0.00    +0.016 C 
ATOM      3  C   UNL     1     176.254 173.005 168.787  0.00  0.00    +0.061 C 
ATOM      4  N   UNL     1     178.440 173.434 169.780  0.00  0.00    -0.321 N 
ATOM      5  H   UNL     1     178.620 172.472 169.515  0.00  0.00    +0.152 HD
ATOM      6  C   UNL     1     179.424 174.093 170.499  0.00  0.00    +0.016 C 
ATOM      7  C   UNL     1     180.650 173.273 170.797  0.00  0.00    +0.061 C 
ATOM      8  C   UNL     1     179.228 175.376 170.876  0.00  0.00    +0.065 C 
ATOM      9  C   UNL     1     177.961 176.137 170.471  0.00  0.00    +0.102 C 
ENDROOT
BRANCH   9  10
ATOM     10  C   UNL     1     178.317 177.275 169.557  0.00  0.00    +0.042 A 
ATOM     11  C   UNL     1     178.994 176.987 168.375  0.00  0.00    +0.011 A 
ATOM     12  C   UNL     1     179.338 178.022 167.505  0.00  0.00    +0.001 A 
ATOM     13  C   UNL     1     179.006 179.339 167.823  0.00  0.00    +0.007 A 
ATOM     14  C   UNL     1     178.327 179.621 169.009  0.00  0.00    +0.084 A 
ATOM     15  C   UNL     1     177.983 178.586 169.879  0.00  0.00    +0.277 A 
BRANCH  15  16
ATOM     16  N   UNL     1     177.291 178.897 171.081  0.00  0.00    +0.080 N 
ATOM     17  O   UNL     1     176.038 178.928 171.068  0.00  0.00    +0.041 OA
ATOM     18  O   UNL     1     177.955 179.132 172.119  0.00  0.00    -0.576 OA
ENDBRANCH  15  16
ENDBRANCH   9  10
BRANCH   1  19
ATOM     19  C   UNL     1     175.578 175.828 169.599  0.00  0.00    +0.337 C 
ATOM     20  O   UNL     1     175.258 176.425 168.588  0.00  0.00    -0.245 OA
BRANCH  19  21
ATOM     21  O   UNL     1     174.828 175.582 170.700  0.00  0.00    -0.465 OA
ATOM     22  C   UNL     1     173.530 175.034 170.441  0.00  0.00    +0.280 C 
ENDBRANCH  19  21
ENDBRANCH   1  19
BRANCH   8  23
ATOM     23  C   UNL     1     180.185 176.098 171.730  0.00  0.00    +0.337 C 
ATOM     24  O   UNL     1     181.246 176.535 171.325  0.00  0.00    -0.245 OA
BRANCH  23  25
ATOM     25  O   UNL     1     179.670 176.172 172.982  0.00  0.00    -0.465 OA
ATOM     26  C   UNL     1     180.551 175.748 174.027  0.00  0.00    +0.280 C 
ENDBRANCH  23  25
ENDBRANCH   8  23
TORSDOF 6
