MODEL 1
REMARK VINA RESULT:      -9.7      0.000      0.000
REMARK  16 active torsions:
REMARK  status: ('A' for Active; 'I' for Inactive)
REMARK    1  A    between atoms: O_2  and  C_22 
REMARK    2  A    between atoms: O_2  and  C_26 
REMARK    3  A    between atoms: O_4  and  C_18 
REMARK    4  A    between atoms: O_5  and  C_19 
REMARK    5  A    between atoms: O_6  and  C_25 
REMARK    6  A    between atoms: O_6  and  C_29 
REMARK    7  A    between atoms: O_7  and  C_20 
REMARK    8  A    between atoms: O_8  and  C_21 
REMARK    9  A    between atoms: O_9  and  C_23 
REMARK   10  A    between atoms: O_10  and  C_24 
REMARK   11  A    between atoms: O_13  and  C_35 
REMARK   12  A    between atoms: O_14  and  C_40 
REMARK   13  A    between atoms: O_15  and  C_41 
REMARK   14  A    between atoms: O_16  and  C_43 
REMARK   15  A    between atoms: C_17  and  C_26 
REMARK   16  A    between atoms: C_30  and  C_33 
ROOT
HETATM    1  O   UNK     0      33.683   9.443  -3.746  0.00  0.00    -0.348 OA
HETATM    2  C   UNK     0      33.216  10.205  -2.631  0.00  0.00     0.180 C 
HETATM    3  C   UNK     0      32.631  11.534  -3.114  0.00  0.00     0.180 C 
HETATM    4  C   UNK     0      33.657  12.309  -3.941  0.00  0.00     0.183 C 
HETATM    5  C   UNK     0      34.283  11.424  -5.019  0.00  0.00     0.205 C 
HETATM    6  C   UNK     0      34.749  10.088  -4.439  0.00  0.00     0.298 C 
ENDROOT
BRANCH   2   7
HETATM    7  C   UNK     0      32.174   9.360  -1.903  0.00  0.00     0.205 C 
BRANCH   7   8
HETATM    8  O   UNK     0      31.800   8.271  -2.733  0.00  0.00    -0.356 OA
BRANCH   8   9
HETATM    9  C   UNK     0      30.401   8.016  -2.659  0.00  0.00     0.291 C 
HETATM   10  O   UNK     0      29.891   7.421  -3.856  0.00  0.00    -0.351 OA
HETATM   11  C   UNK     0      29.983   8.258  -5.013  0.00  0.00     0.152 C 
HETATM   12  C   UNK     0      29.211   9.569  -4.807  0.00  0.00     0.178 C 
HETATM   13  C   UNK     0      29.440   7.454  -6.191  0.00  0.00     0.042 C 
HETATM   14  C   UNK     0      29.689  10.267  -3.534  0.00  0.00     0.183 C 
HETATM   15  C   UNK     0      29.656   9.311  -2.340  0.00  0.00     0.204 C 
BRANCH  12  16
HETATM   16  O   UNK     0      29.432  10.450  -5.906  0.00  0.00    -0.390 OA
HETATM   17  H   UNK     0      30.106  11.098  -5.638  0.00  0.00     0.210 HD
ENDBRANCH  12  16
BRANCH  14  18
HETATM   18  O   UNK     0      28.857  11.395  -3.276  0.00  0.00    -0.390 OA
HETATM   19  H   UNK     0      29.436  12.155  -3.088  0.00  0.00     0.210 HD
ENDBRANCH  14  18
BRANCH  15  20
HETATM   20  O   UNK     0      28.305   8.970  -2.027  0.00  0.00    -0.388 OA
HETATM   21  H   UNK     0      27.719   9.623  -2.445  0.00  0.00     0.210 HD
ENDBRANCH  15  20
ENDBRANCH   8   9
ENDBRANCH   7   8
ENDBRANCH   2   7
BRANCH   6  22
HETATM   22  O   UNK     0      35.185   9.267  -5.522  0.00  0.00    -0.311 OA
BRANCH  22  23
HETATM   23  C   UNK     0      36.134   8.354  -5.116  0.00  0.00     0.157 A 
HETATM   24  C   UNK     0      35.996   7.027  -5.283  0.00  0.00     0.124 A 
HETATM   25  O   UNK     0      36.916   6.080  -4.858  0.00  0.00    -0.306 OA
HETATM   26  C   UNK     0      38.060   6.513  -4.240  0.00  0.00     0.096 A 
HETATM   27  C   UNK     0      38.333   7.860  -4.011  0.00  0.00     0.084 A 
HETATM   28  C   UNK     0      38.971   5.537  -3.832  0.00  0.00     0.075 A 
HETATM   29  C   UNK     0      37.355   8.868  -4.448  0.00  0.00     0.223 A 
HETATM   30  C   UNK     0      39.517   8.243  -3.374  0.00  0.00     0.085 A 
HETATM   31  O   UNK     0      37.537  10.065  -4.270  0.00  0.00    -0.284 OA
HETATM   32  C   UNK     0      40.426   7.265  -2.968  0.00  0.00     0.074 A 
HETATM   33  C   UNK     0      40.154   5.916  -3.196  0.00  0.00     0.071 A 
BRANCH  24  34
HETATM   34  C   UNK     0      34.815   6.429  -5.930  0.00  0.00     0.004 A 
HETATM   35  C   UNK     0      34.779   6.277  -7.316  0.00  0.00     0.053 A 
HETATM   36  C   UNK     0      33.662   5.709  -7.928  0.00  0.00     0.099 A 
HETATM   37  C   UNK     0      32.579   5.295  -7.154  0.00  0.00     0.098 A 
HETATM   38  C   UNK     0      32.613   5.447  -5.768  0.00  0.00     0.040 A 
HETATM   39  C   UNK     0      33.731   6.013  -5.156  0.00  0.00     0.017 A 
BRANCH  36  40
HETATM   40  O   UNK     0      33.639   5.568  -9.283  0.00  0.00    -0.358 OA
HETATM   41  H   UNK     0      32.804   5.152  -9.554  0.00  0.00     0.217 HD
ENDBRANCH  36  40
BRANCH  37  42
HETATM   42  O   UNK     0      31.482   4.738  -7.741  0.00  0.00    -0.358 OA
HETATM   43  H   UNK     0      31.417   5.036  -8.661  0.00  0.00     0.217 HD
ENDBRANCH  37  42
ENDBRANCH  24  34
BRANCH  30  44
HETATM   44  O   UNK     0      39.830   9.544  -3.127  0.00  0.00    -0.360 OA
HETATM   45  H   UNK     0      40.570   9.586  -2.496  0.00  0.00     0.217 HD
ENDBRANCH  30  44
BRANCH  33  46
HETATM   46  O   UNK     0      41.044   4.966  -2.798  0.00  0.00    -0.361 OA
HETATM   47  H   UNK     0      40.615   4.384  -2.148  0.00  0.00     0.217 HD
ENDBRANCH  33  46
ENDBRANCH  22  23
ENDBRANCH   6  22
BRANCH   3  48
HETATM   48  O   UNK     0      32.246  12.317  -1.987  0.00  0.00    -0.390 OA
HETATM   49  H   UNK     0      33.046  12.731  -1.621  0.00  0.00     0.210 HD
ENDBRANCH   3  48
BRANCH   5  50
HETATM   50  O   UNK     0      35.415  12.088  -5.580  0.00  0.00    -0.388 OA
HETATM   51  H   UNK     0      36.161  11.983  -4.966  0.00  0.00     0.210 HD
ENDBRANCH   5  50
BRANCH   4  52
HETATM   52  O   UNK     0      32.986  13.409  -4.559  0.00  0.00    -0.390 OA
HETATM   53  H   UNK     0      33.563  13.740  -5.269  0.00  0.00     0.210 HD
ENDBRANCH   4  52
TORSDOF 16
ENDMDL
MODEL 2
REMARK VINA RESULT:      -9.2      1.986      4.640
REMARK  16 active torsions:
REMARK  status: ('A' for Active; 'I' for Inactive)
REMARK    1  A    between atoms: O_2  and  C_22 
REMARK    2  A    between atoms: O_2  and  C_26 
REMARK    3  A    between atoms: O_4  and  C_18 
REMARK    4  A    between atoms: O_5  and  C_19 
REMARK    5  A    between atoms: O_6  and  C_25 
REMARK    6  A    between atoms: O_6  and  C_29 
REMARK    7  A    between atoms: O_7  and  C_20 
REMARK    8  A    between atoms: O_8  and  C_21 
REMARK    9  A    between atoms: O_9  and  C_23 
REMARK   10  A    between atoms: O_10  and  C_24 
REMARK   11  A    between atoms: O_13  and  C_35 
REMARK   12  A    between atoms: O_14  and  C_40 
REMARK   13  A    between atoms: O_15  and  C_41 
REMARK   14  A    between atoms: O_16  and  C_43 
REMARK   15  A    between atoms: C_17  and  C_26 
REMARK   16  A    between atoms: C_30  and  C_33 
ROOT
HETATM    1  O   UNK     0      34.956   7.790  -3.164  0.00  0.00    -0.348 OA
HETATM    2  C   UNK     0      34.480   7.241  -1.934  0.00  0.00     0.180 C 
HETATM    3  C   UNK     0      35.645   7.058  -0.959  0.00  0.00     0.180 C 
HETATM    4  C   UNK     0      36.742   6.192  -1.580  0.00  0.00     0.183 C 
HETATM    5  C   UNK     0      37.113   6.688  -2.978  0.00  0.00     0.205 C 
HETATM    6  C   UNK     0      35.868   6.921  -3.833  0.00  0.00     0.298 C 
ENDROOT
BRANCH   2   7
HETATM    7  C   UNK     0      33.427   8.197  -1.382  0.00  0.00     0.205 C 
BRANCH   7   8
HETATM    8  O   UNK     0      32.476   8.475  -2.400  0.00  0.00    -0.356 OA
BRANCH   8   9
HETATM    9  C   UNK     0      31.361   9.197  -1.888  0.00  0.00     0.291 C 
HETATM   10  O   UNK     0      30.112   8.671  -2.348  0.00  0.00    -0.351 OA
HETATM   11  C   UNK     0      29.916   8.777  -3.761  0.00  0.00     0.152 C 
HETATM   12  C   UNK     0      29.973  10.242  -4.218  0.00  0.00     0.178 C 
HETATM   13  C   UNK     0      28.567   8.133  -4.074  0.00  0.00     0.042 C 
HETATM   14  C   UNK     0      31.279  10.886  -3.754  0.00  0.00     0.183 C 
HETATM   15  C   UNK     0      31.492  10.675  -2.254  0.00  0.00     0.204 C 
BRANCH  12  16
HETATM   16  O   UNK     0      29.921  10.318  -5.641  0.00  0.00    -0.390 OA
HETATM   17  H   UNK     0      29.156  10.867  -5.883  0.00  0.00     0.210 HD
ENDBRANCH  12  16
BRANCH  14  18
HETATM   18  O   UNK     0      31.245  12.281  -4.048  0.00  0.00    -0.390 OA
HETATM   19  H   UNK     0      32.158  12.615  -4.007  0.00  0.00     0.210 HD
ENDBRANCH  14  18
BRANCH  15  20
HETATM   20  O   UNK     0      30.503  11.395  -1.516  0.00  0.00    -0.388 OA
HETATM   21  H   UNK     0      29.955  11.896  -2.144  0.00  0.00     0.210 HD
ENDBRANCH  15  20
ENDBRANCH   8   9
ENDBRANCH   7   8
ENDBRANCH   2   7
BRANCH   6  22
HETATM   22  O   UNK     0      36.284   7.514  -5.063  0.00  0.00    -0.311 OA
BRANCH  22  23
HETATM   23  C   UNK     0      35.726   8.761  -5.239  0.00  0.00     0.157 A 
HETATM   24  C   UNK     0      34.552   8.960  -5.865  0.00  0.00     0.124 A 
HETATM   25  O   UNK     0      33.979  10.202  -6.088  0.00  0.00    -0.306 OA
HETATM   26  C   UNK     0      34.632  11.316  -5.625  0.00  0.00     0.096 A 
HETATM   27  C   UNK     0      35.850  11.252  -4.952  0.00  0.00     0.084 A 
HETATM   28  C   UNK     0      34.025  12.551  -5.855  0.00  0.00     0.075 A 
HETATM   29  C   UNK     0      36.470   9.937  -4.725  0.00  0.00     0.223 A 
HETATM   30  C   UNK     0      36.471  12.421  -4.504  0.00  0.00     0.085 A 
HETATM   31  O   UNK     0      37.541   9.819  -4.145  0.00  0.00    -0.284 OA
HETATM   32  C   UNK     0      35.862  13.655  -4.736  0.00  0.00     0.074 A 
HETATM   33  C   UNK     0      34.642  13.720  -5.409  0.00  0.00     0.071 A 
BRANCH  24  34
HETATM   34  C   UNK     0      33.750   7.851  -6.413  0.00  0.00     0.004 A 
HETATM   35  C   UNK     0      34.142   7.222  -7.594  0.00  0.00     0.053 A 
HETATM   36  C   UNK     0      33.384   6.172  -8.112  0.00  0.00     0.099 A 
HETATM   37  C   UNK     0      32.231   5.752  -7.448  0.00  0.00     0.098 A 
HETATM   38  C   UNK     0      31.838   6.381  -6.267  0.00  0.00     0.040 A 
HETATM   39  C   UNK     0      32.597   7.430  -5.750  0.00  0.00     0.017 A 
BRANCH  36  40
HETATM   40  O   UNK     0      33.777   5.567  -9.268  0.00  0.00    -0.358 OA
HETATM   41  H   UNK     0      34.727   5.713  -9.406  0.00  0.00     0.217 HD
ENDBRANCH  36  40
BRANCH  37  42
HETATM   42  O   UNK     0      31.483   4.727  -7.944  0.00  0.00    -0.358 OA
HETATM   43  H   UNK     0      31.752   4.536  -8.856  0.00  0.00     0.217 HD
ENDBRANCH  37  42
ENDBRANCH  24  34
BRANCH  30  44
HETATM   44  O   UNK     0      37.661  12.414  -3.843  0.00  0.00    -0.360 OA
HETATM   45  H   UNK     0      37.622  11.775  -3.110  0.00  0.00     0.217 HD
ENDBRANCH  30  44
BRANCH  33  46
HETATM   46  O   UNK     0      34.052  14.926  -5.633  0.00  0.00    -0.361 OA
HETATM   47  H   UNK     0      33.087  14.810  -5.634  0.00  0.00     0.217 HD
ENDBRANCH  33  46
ENDBRANCH  22  23
ENDBRANCH   6  22
BRANCH   3  48
HETATM   48  O   UNK     0      35.170   6.434   0.231  0.00  0.00    -0.390 OA
HETATM   49  H   UNK     0      34.605   7.071   0.700  0.00  0.00     0.210 HD
ENDBRANCH   3  48
BRANCH   5  50
HETATM   50  O   UNK     0      37.925   5.710  -3.627  0.00  0.00    -0.388 OA
HETATM   51  H   UNK     0      37.338   5.092  -4.094  0.00  0.00     0.210 HD
ENDBRANCH   5  50
BRANCH   4  52
HETATM   52  O   UNK     0      37.890   6.258  -0.732  0.00  0.00    -0.390 OA
HETATM   53  H   UNK     0      37.817   5.535  -0.086  0.00  0.00     0.210 HD
ENDBRANCH   4  52
TORSDOF 16
ENDMDL
MODEL 3
REMARK VINA RESULT:      -9.1     13.551     18.322
REMARK  16 active torsions:
REMARK  status: ('A' for Active; 'I' for Inactive)
REMARK    1  A    between atoms: O_2  and  C_22 
REMARK    2  A    between atoms: O_2  and  C_26 
REMARK    3  A    between atoms: O_4  and  C_18 
REMARK    4  A    between atoms: O_5  and  C_19 
REMARK    5  A    between atoms: O_6  and  C_25 
REMARK    6  A    between atoms: O_6  and  C_29 
REMARK    7  A    between atoms: O_7  and  C_20 
REMARK    8  A    between atoms: O_8  and  C_21 
REMARK    9  A    between atoms: O_9  and  C_23 
REMARK   10  A    between atoms: O_10  and  C_24 
REMARK   11  A    between atoms: O_13  and  C_35 
REMARK   12  A    between atoms: O_14  and  C_40 
REMARK   13  A    between atoms: O_15  and  C_41 
REMARK   14  A    between atoms: O_16  and  C_43 
REMARK   15  A    between atoms: C_17  and  C_26 
REMARK   16  A    between atoms: C_30  and  C_33 
ROOT
HETATM    1  O   UNK     0      26.568  -7.147  -5.005  0.00  0.00    -0.348 OA
HETATM    2  C   UNK     0      26.397  -8.564  -4.947  0.00  0.00     0.180 C 
HETATM    3  C   UNK     0      26.310  -9.138  -6.363  0.00  0.00     0.180 C 
HETATM    4  C   UNK     0      25.190  -8.463  -7.154  0.00  0.00     0.183 C 
HETATM    5  C   UNK     0      25.282  -6.940  -7.056  0.00  0.00     0.205 C 
HETATM    6  C   UNK     0      25.456  -6.487  -5.606  0.00  0.00     0.298 C 
ENDROOT
BRANCH   2   7
HETATM    7  C   UNK     0      27.582  -9.138  -4.176  0.00  0.00     0.205 C 
BRANCH   7   8
HETATM    8  O   UNK     0      27.486  -8.740  -2.817  0.00  0.00    -0.356 OA
BRANCH   8   9
HETATM    9  C   UNK     0      28.325  -9.531  -1.982  0.00  0.00     0.291 C 
HETATM   10  O   UNK     0      28.733  -8.834  -0.801  0.00  0.00    -0.351 OA
HETATM   11  C   UNK     0      29.551  -7.687  -1.050  0.00  0.00     0.152 C 
HETATM   12  C   UNK     0      30.834  -8.076  -1.797  0.00  0.00     0.178 C 
HETATM   13  C   UNK     0      29.851  -7.049   0.305  0.00  0.00     0.042 C 
HETATM   14  C   UNK     0      30.487  -8.841  -3.074  0.00  0.00     0.183 C 
HETATM   15  C   UNK     0      29.542 -10.006  -2.775  0.00  0.00     0.204 C 
BRANCH  12  16
HETATM   16  O   UNK     0      31.566  -6.909  -2.164  0.00  0.00    -0.390 OA
HETATM   17  H   UNK     0      31.842  -7.009  -3.091  0.00  0.00     0.210 HD
ENDBRANCH  12  16
BRANCH  14  18
HETATM   18  O   UNK     0      31.686  -9.330  -3.671  0.00  0.00    -0.390 OA
HETATM   19  H   UNK     0      31.941  -8.710  -4.376  0.00  0.00     0.210 HD
ENDBRANCH  14  18
BRANCH  15  20
HETATM   20  O   UNK     0      30.216 -10.991  -1.989  0.00  0.00    -0.388 OA
HETATM   21  H   UNK     0      29.599 -11.723  -1.820  0.00  0.00     0.210 HD
ENDBRANCH  15  20
ENDBRANCH   8   9
ENDBRANCH   7   8
ENDBRANCH   2   7
BRANCH   6  22
HETATM   22  O   UNK     0      25.678  -5.077  -5.610  0.00  0.00    -0.311 OA
BRANCH  22  23
HETATM   23  C   UNK     0      24.999  -4.454  -4.586  0.00  0.00     0.157 A 
HETATM   24  C   UNK     0      25.612  -3.919  -3.516  0.00  0.00     0.124 A 
HETATM   25  O   UNK     0      24.957  -3.315  -2.454  0.00  0.00    -0.306 OA
HETATM   26  C   UNK     0      23.589  -3.231  -2.492  0.00  0.00     0.096 A 
HETATM   27  C   UNK     0      22.831  -3.736  -3.545  0.00  0.00     0.084 A 
HETATM   28  C   UNK     0      22.959  -2.608  -1.413  0.00  0.00     0.075 A 
HETATM   29  C   UNK     0      23.519  -4.390  -4.669  0.00  0.00     0.223 A 
HETATM   30  C   UNK     0      21.438  -3.623  -3.530  0.00  0.00     0.085 A 
HETATM   31  O   UNK     0      22.906  -4.857  -5.619  0.00  0.00    -0.284 OA
HETATM   32  C   UNK     0      20.810  -2.999  -2.450  0.00  0.00     0.074 A 
HETATM   33  C   UNK     0      21.569  -2.493  -1.395  0.00  0.00     0.071 A 
BRANCH  24  34
HETATM   34  C   UNK     0      27.076  -3.943  -3.348  0.00  0.00     0.004 A 
HETATM   35  C   UNK     0      27.903  -3.441  -4.353  0.00  0.00     0.053 A 
HETATM   36  C   UNK     0      29.288  -3.461  -4.194  0.00  0.00     0.099 A 
HETATM   37  C   UNK     0      29.848  -3.986  -3.030  0.00  0.00     0.098 A 
HETATM   38  C   UNK     0      29.023  -4.490  -2.025  0.00  0.00     0.040 A 
HETATM   39  C   UNK     0      27.638  -4.468  -2.183  0.00  0.00     0.017 A 
BRANCH  36  40
HETATM   40  O   UNK     0      30.084  -2.969  -5.185  0.00  0.00    -0.358 OA
HETATM   41  H   UNK     0      30.147  -2.003  -5.104  0.00  0.00     0.217 HD
ENDBRANCH  36  40
BRANCH  37  42
HETATM   42  O   UNK     0      31.200  -4.012  -2.863  0.00  0.00    -0.358 OA
HETATM   43  H   UNK     0      31.472  -3.284  -2.282  0.00  0.00     0.217 HD
ENDBRANCH  37  42
ENDBRANCH  24  34
BRANCH  30  44
HETATM   44  O   UNK     0      20.651  -4.099  -4.533  0.00  0.00    -0.360 OA
HETATM   45  H   UNK     0      19.795  -4.384  -4.168  0.00  0.00     0.217 HD
ENDBRANCH  30  44
BRANCH  33  46
HETATM   46  O   UNK     0      20.953  -1.886  -0.344  0.00  0.00    -0.361 OA
HETATM   47  H   UNK     0      21.344  -1.005  -0.214  0.00  0.00     0.217 HD
ENDBRANCH  33  46
ENDBRANCH  22  23
ENDBRANCH   6  22
BRANCH   3  48
HETATM   48  O   UNK     0      26.056 -10.539  -6.289  0.00  0.00    -0.390 OA
HETATM   49  H   UNK     0      25.784 -10.842  -7.171  0.00  0.00     0.210 HD
ENDBRANCH   3  48
BRANCH   5  50
HETATM   50  O   UNK     0      24.083  -6.358  -7.566  0.00  0.00    -0.388 OA
HETATM   51  H   UNK     0      24.328  -5.593  -8.113  0.00  0.00     0.210 HD
ENDBRANCH   5  50
BRANCH   4  52
HETATM   52  O   UNK     0      25.314  -8.859  -8.522  0.00  0.00    -0.390 OA
HETATM   53  H   UNK     0      26.104  -9.423  -8.591  0.00  0.00     0.210 HD
ENDBRANCH   4  52
TORSDOF 16
ENDMDL
MODEL 4
REMARK VINA RESULT:      -9.0      1.381      2.168
REMARK  16 active torsions:
REMARK  status: ('A' for Active; 'I' for Inactive)
REMARK    1  A    between atoms: O_2  and  C_22 
REMARK    2  A    between atoms: O_2  and  C_26 
REMARK    3  A    between atoms: O_4  and  C_18 
REMARK    4  A    between atoms: O_5  and  C_19 
REMARK    5  A    between atoms: O_6  and  C_25 
REMARK    6  A    between atoms: O_6  and  C_29 
REMARK    7  A    between atoms: O_7  and  C_20 
REMARK    8  A    between atoms: O_8  and  C_21 
REMARK    9  A    between atoms: O_9  and  C_23 
REMARK   10  A    between atoms: O_10  and  C_24 
REMARK   11  A    between atoms: O_13  and  C_35 
REMARK   12  A    between atoms: O_14  and  C_40 
REMARK   13  A    between atoms: O_15  and  C_41 
REMARK   14  A    between atoms: O_16  and  C_43 
REMARK   15  A    between atoms: C_17  and  C_26 
REMARK   16  A    between atoms: C_30  and  C_33 
ROOT
HETATM    1  O   UNK     0      33.006   8.953  -3.866  0.00  0.00    -0.348 OA
HETATM    2  C   UNK     0      32.292   9.330  -2.687  0.00  0.00     0.180 C 
HETATM    3  C   UNK     0      31.913  10.812  -2.758  0.00  0.00     0.180 C 
HETATM    4  C   UNK     0      33.152  11.680  -2.973  0.00  0.00     0.183 C 
HETATM    5  C   UNK     0      34.004  11.153  -4.128  0.00  0.00     0.205 C 
HETATM    6  C   UNK     0      34.244   9.648  -4.000  0.00  0.00     0.298 C 
ENDROOT
BRANCH   2   7
HETATM    7  C   UNK     0      31.060   8.435  -2.590  0.00  0.00     0.205 C 
BRANCH   7   8
HETATM    8  O   UNK     0      29.951   9.218  -2.176  0.00  0.00    -0.356 OA
BRANCH   8   9
HETATM    9  C   UNK     0      29.023   9.410  -3.240  0.00  0.00     0.291 C 
HETATM   10  O   UNK     0      28.658  10.784  -3.404  0.00  0.00    -0.351 OA
HETATM   11  C   UNK     0      27.956  11.342  -2.288  0.00  0.00     0.152 C 
HETATM   12  C   UNK     0      26.658  10.570  -2.012  0.00  0.00     0.178 C 
HETATM   13  C   UNK     0      27.689  12.809  -2.616  0.00  0.00     0.042 C 
HETATM   14  C   UNK     0      26.960   9.081  -1.835  0.00  0.00     0.183 C 
HETATM   15  C   UNK     0      27.785   8.547  -3.007  0.00  0.00     0.204 C 
BRANCH  12  16
HETATM   16  O   UNK     0      26.047  11.044  -0.814  0.00  0.00    -0.390 OA
HETATM   17  H   UNK     0      25.267  10.491  -0.638  0.00  0.00     0.210 HD
ENDBRANCH  12  16
BRANCH  14  18
HETATM   18  O   UNK     0      25.733   8.362  -1.737  0.00  0.00    -0.390 OA
HETATM   19  H   UNK     0      25.678   7.762  -2.502  0.00  0.00     0.210 HD
ENDBRANCH  14  18
BRANCH  15  20
HETATM   20  O   UNK     0      27.005   8.573  -4.204  0.00  0.00    -0.388 OA
HETATM   21  H   UNK     0      27.023   9.477  -4.562  0.00  0.00     0.210 HD
ENDBRANCH  15  20
ENDBRANCH   8   9
ENDBRANCH   7   8
ENDBRANCH   2   7
BRANCH   6  22
HETATM   22  O   UNK     0      34.917   9.208  -5.180  0.00  0.00    -0.311 OA
BRANCH  22  23
HETATM   23  C   UNK     0      35.914   8.304  -4.887  0.00  0.00     0.157 A 
HETATM   24  C   UNK     0      35.849   7.004  -5.227  0.00  0.00     0.124 A 
HETATM   25  O   UNK     0      36.818   6.061  -4.920  0.00  0.00    -0.306 OA
HETATM   26  C   UNK     0      37.936   6.471  -4.240  0.00  0.00     0.096 A 
HETATM   27  C   UNK     0      38.133   7.789  -3.835  0.00  0.00     0.084 A 
HETATM   28  C   UNK     0      38.898   5.501  -3.954  0.00  0.00     0.075 A 
HETATM   29  C   UNK     0      37.102   8.791  -4.146  0.00  0.00     0.223 A 
HETATM   30  C   UNK     0      39.293   8.149  -3.142  0.00  0.00     0.085 A 
HETATM   31  O   UNK     0      37.218   9.962  -3.812  0.00  0.00    -0.284 OA
HETATM   32  C   UNK     0      40.254   7.177  -2.858  0.00  0.00     0.074 A 
HETATM   33  C   UNK     0      40.057   5.857  -3.263  0.00  0.00     0.071 A 
BRANCH  24  34
HETATM   34  C   UNK     0      34.704   6.432  -5.957  0.00  0.00     0.004 A 
HETATM   35  C   UNK     0      34.735   6.349  -7.350  0.00  0.00     0.053 A 
HETATM   36  C   UNK     0      33.652   5.806  -8.041  0.00  0.00     0.099 A 
HETATM   37  C   UNK     0      32.536   5.348  -7.341  0.00  0.00     0.098 A 
HETATM   38  C   UNK     0      32.505   5.431  -5.948  0.00  0.00     0.040 A 
HETATM   39  C   UNK     0      33.588   5.973  -5.257  0.00  0.00     0.017 A 
BRANCH  36  40
HETATM   40  O   UNK     0      33.693   5.732  -9.401  0.00  0.00    -0.358 OA
HETATM   41  H   UNK     0      33.280   4.904  -9.696  0.00  0.00     0.217 HD
ENDBRANCH  36  40
BRANCH  37  42
HETATM   42  O   UNK     0      31.473   4.815  -8.005  0.00  0.00    -0.358 OA
HETATM   43  H   UNK     0      30.682   4.861  -7.445  0.00  0.00     0.217 HD
ENDBRANCH  37  42
ENDBRANCH  24  34
BRANCH  30  44
HETATM   44  O   UNK     0      39.534   9.422  -2.725  0.00  0.00    -0.360 OA
HETATM   45  H   UNK     0      40.191   9.837  -3.309  0.00  0.00     0.217 HD
ENDBRANCH  30  44
BRANCH  33  46
HETATM   46  O   UNK     0      40.997   4.913  -2.983  0.00  0.00    -0.361 OA
HETATM   47  H   UNK     0      40.770   4.481  -2.141  0.00  0.00     0.217 HD
ENDBRANCH  33  46
ENDBRANCH  22  23
ENDBRANCH   6  22
BRANCH   3  48
HETATM   48  O   UNK     0      31.276  11.193  -1.542  0.00  0.00    -0.390 OA
HETATM   49  H   UNK     0      31.515  10.544  -0.859  0.00  0.00     0.210 HD
ENDBRANCH   3  48
BRANCH   5  50
HETATM   50  O   UNK     0      35.270  11.810  -4.122  0.00  0.00    -0.388 OA
HETATM   51  H   UNK     0      35.203  12.589  -3.545  0.00  0.00     0.210 HD
ENDBRANCH   5  50
BRANCH   4  52
HETATM   52  O   UNK     0      32.716  13.007  -3.271  0.00  0.00    -0.390 OA
HETATM   53  H   UNK     0      33.404  13.617  -2.957  0.00  0.00     0.210 HD
ENDBRANCH   4  52
TORSDOF 16
ENDMDL
MODEL 5
REMARK VINA RESULT:      -9.0      1.686      9.074
REMARK  16 active torsions:
REMARK  status: ('A' for Active; 'I' for Inactive)
REMARK    1  A    between atoms: O_2  and  C_22 
REMARK    2  A    between atoms: O_2  and  C_26 
REMARK    3  A    between atoms: O_4  and  C_18 
REMARK    4  A    between atoms: O_5  and  C_19 
REMARK    5  A    between atoms: O_6  and  C_25 
REMARK    6  A    between atoms: O_6  and  C_29 
REMARK    7  A    between atoms: O_7  and  C_20 
REMARK    8  A    between atoms: O_8  and  C_21 
REMARK    9  A    between atoms: O_9  and  C_23 
REMARK   10  A    between atoms: O_10  and  C_24 
REMARK   11  A    between atoms: O_13  and  C_35 
REMARK   12  A    between atoms: O_14  and  C_40 
REMARK   13  A    between atoms: O_15  and  C_41 
REMARK   14  A    between atoms: O_16  and  C_43 
REMARK   15  A    between atoms: C_17  and  C_26 
REMARK   16  A    between atoms: C_30  and  C_33 
ROOT
HETATM    1  O   UNK     0      35.084   8.037  -5.672  0.00  0.00    -0.348 OA
HETATM    2  C   UNK     0      35.979   6.999  -5.267  0.00  0.00     0.180 C 
HETATM    3  C   UNK     0      36.165   5.996  -6.409  0.00  0.00     0.180 C 
HETATM    4  C   UNK     0      34.817   5.438  -6.866  0.00  0.00     0.183 C 
HETATM    5  C   UNK     0      33.810   6.560  -7.120  0.00  0.00     0.205 C 
HETATM    6  C   UNK     0      33.775   7.550  -5.955  0.00  0.00     0.298 C 
ENDROOT
BRANCH   2   7
HETATM    7  C   UNK     0      37.297   7.657  -4.873  0.00  0.00     0.205 C 
BRANCH   7   8
HETATM    8  O   UNK     0      38.245   6.646  -4.564  0.00  0.00    -0.356 OA
BRANCH   8   9
HETATM    9  C   UNK     0      38.371   6.461  -3.158  0.00  0.00     0.291 C 
HETATM   10  O   UNK     0      39.107   7.517  -2.533  0.00  0.00    -0.351 OA
HETATM   11  C   UNK     0      40.474   7.604  -2.948  0.00  0.00     0.152 C 
HETATM   12  C   UNK     0      41.226   6.301  -2.644  0.00  0.00     0.178 C 
HETATM   13  C   UNK     0      41.086   8.799  -2.222  0.00  0.00     0.042 C 
HETATM   14  C   UNK     0      40.494   5.113  -3.270  0.00  0.00     0.183 C 
HETATM   15  C   UNK     0      39.018   5.108  -2.870  0.00  0.00     0.204 C 
BRANCH  12  16
HETATM   16  O   UNK     0      42.541   6.350  -3.193  0.00  0.00    -0.390 OA
HETATM   17  H   UNK     0      43.171   6.408  -2.455  0.00  0.00     0.210 HD
ENDBRANCH  12  16
BRANCH  14  18
HETATM   18  O   UNK     0      41.116   3.902  -2.847  0.00  0.00    -0.390 OA
HETATM   19  H   UNK     0      41.012   3.836  -1.882  0.00  0.00     0.210 HD
ENDBRANCH  14  18
BRANCH  15  20
HETATM   20  O   UNK     0      38.893   4.855  -1.470  0.00  0.00    -0.388 OA
HETATM   21  H   UNK     0      38.058   4.380  -1.317  0.00  0.00     0.210 HD
ENDBRANCH  15  20
ENDBRANCH   8   9
ENDBRANCH   7   8
ENDBRANCH   2   7
BRANCH   6  22
HETATM   22  O   UNK     0      32.927   8.636  -6.327  0.00  0.00    -0.311 OA
BRANCH  22  23
HETATM   23  C   UNK     0      32.040   8.954  -5.321  0.00  0.00     0.157 A 
HETATM   24  C   UNK     0      32.356   9.761  -4.292  0.00  0.00     0.124 A 
HETATM   25  O   UNK     0      31.499  10.075  -3.248  0.00  0.00    -0.306 OA
HETATM   26  C   UNK     0      30.233   9.551  -3.261  0.00  0.00     0.096 A 
HETATM   27  C   UNK     0      29.774   8.709  -4.271  0.00  0.00     0.084 A 
HETATM   28  C   UNK     0      29.391   9.893  -2.202  0.00  0.00     0.075 A 
HETATM   29  C   UNK     0      30.682   8.361  -5.375  0.00  0.00     0.223 A 
HETATM   30  C   UNK     0      28.472   8.203  -4.232  0.00  0.00     0.085 A 
HETATM   31  O   UNK     0      30.337   7.622  -6.287  0.00  0.00    -0.284 OA
HETATM   32  C   UNK     0      27.632   8.547  -3.172  0.00  0.00     0.074 A 
HETATM   33  C   UNK     0      28.090   9.390  -2.159  0.00  0.00     0.071 A 
BRANCH  24  34
HETATM   34  C   UNK     0      33.682  10.388  -4.154  0.00  0.00     0.004 A 
HETATM   35  C   UNK     0      34.087  11.370  -5.058  0.00  0.00     0.053 A 
HETATM   36  C   UNK     0      35.342  11.965  -4.928  0.00  0.00     0.099 A 
HETATM   37  C   UNK     0      36.193  11.577  -3.893  0.00  0.00     0.098 A 
HETATM   38  C   UNK     0      35.789  10.594  -2.990  0.00  0.00     0.040 A 
HETATM   39  C   UNK     0      34.534  10.000  -3.120  0.00  0.00     0.017 A 
BRANCH  36  40
HETATM   40  O   UNK     0      35.726  12.922  -5.818  0.00  0.00    -0.358 OA
HETATM   41  H   UNK     0      36.102  13.680  -5.341  0.00  0.00     0.217 HD
ENDBRANCH  36  40
BRANCH  37  42
HETATM   42  O   UNK     0      37.421  12.151  -3.755  0.00  0.00    -0.358 OA
HETATM   43  H   UNK     0      37.332  13.117  -3.750  0.00  0.00     0.217 HD
ENDBRANCH  37  42
ENDBRANCH  24  34
BRANCH  30  44
HETATM   44  O   UNK     0      27.975   7.376  -5.193  0.00  0.00    -0.360 OA
HETATM   45  H   UNK     0      27.826   6.492  -4.816  0.00  0.00     0.217 HD
ENDBRANCH  30  44
BRANCH  33  46
HETATM   46  O   UNK     0      27.267   9.723  -1.127  0.00  0.00    -0.361 OA
HETATM   47  H   UNK     0      26.363   9.831  -1.467  0.00  0.00     0.217 HD
ENDBRANCH  33  46
ENDBRANCH  22  23
ENDBRANCH   6  22
BRANCH   3  48
HETATM   48  O   UNK     0      36.992   4.924  -5.964  0.00  0.00    -0.390 OA
HETATM   49  H   UNK     0      37.854   5.007  -6.404  0.00  0.00     0.210 HD
ENDBRANCH   3  48
BRANCH   5  50
HETATM   50  O   UNK     0      32.506   6.002  -7.274  0.00  0.00    -0.388 OA
HETATM   51  H   UNK     0      32.605   5.055  -7.470  0.00  0.00     0.210 HD
ENDBRANCH   5  50
BRANCH   4  52
HETATM   52  O   UNK     0      35.029   4.706  -8.075  0.00  0.00    -0.390 OA
HETATM   53  H   UNK     0      35.886   4.254  -7.995  0.00  0.00     0.210 HD
ENDBRANCH   4  52
TORSDOF 16
ENDMDL
MODEL 6
REMARK VINA RESULT:      -9.0      2.106      5.818
REMARK  16 active torsions:
REMARK  status: ('A' for Active; 'I' for Inactive)
REMARK    1  A    between atoms: O_2  and  C_22 
REMARK    2  A    between atoms: O_2  and  C_26 
REMARK    3  A    between atoms: O_4  and  C_18 
REMARK    4  A    between atoms: O_5  and  C_19 
REMARK    5  A    between atoms: O_6  and  C_25 
REMARK    6  A    between atoms: O_6  and  C_29 
REMARK    7  A    between atoms: O_7  and  C_20 
REMARK    8  A    between atoms: O_8  and  C_21 
REMARK    9  A    between atoms: O_9  and  C_23 
REMARK   10  A    between atoms: O_10  and  C_24 
REMARK   11  A    between atoms: O_13  and  C_35 
REMARK   12  A    between atoms: O_14  and  C_40 
REMARK   13  A    between atoms: O_15  and  C_41 
REMARK   14  A    between atoms: O_16  and  C_43 
REMARK   15  A    between atoms: C_17  and  C_26 
REMARK   16  A    between atoms: C_30  and  C_33 
ROOT
HETATM    1  O   UNK     0      35.395   8.788  -2.627  0.00  0.00    -0.348 OA
HETATM    2  C   UNK     0      35.071  10.139  -2.295  0.00  0.00     0.180 C 
HETATM    3  C   UNK     0      36.285  10.830  -1.671  0.00  0.00     0.180 C 
HETATM    4  C   UNK     0      36.786  10.051  -0.454  0.00  0.00     0.183 C 
HETATM    5  C   UNK     0      36.955   8.566  -0.778  0.00  0.00     0.205 C 
HETATM    6  C   UNK     0      35.718   8.006  -1.479  0.00  0.00     0.298 C 
ENDROOT
BRANCH   2   7
HETATM    7  C   UNK     0      34.625  10.832  -3.579  0.00  0.00     0.205 C 
BRANCH   7   8
HETATM    8  O   UNK     0      33.329  11.378  -3.384  0.00  0.00    -0.356 OA
BRANCH   8   9
HETATM    9  C   UNK     0      32.427  10.957  -4.402  0.00  0.00     0.291 C 
HETATM   10  O   UNK     0      31.199  11.692  -4.382  0.00  0.00    -0.351 OA
HETATM   11  C   UNK     0      30.422  11.504  -3.195  0.00  0.00     0.152 C 
HETATM   12  C   UNK     0      30.055  10.025  -3.005  0.00  0.00     0.178 C 
HETATM   13  C   UNK     0      29.184  12.388  -3.327  0.00  0.00     0.042 C 
HETATM   14  C   UNK     0      31.317   9.163  -3.026  0.00  0.00     0.183 C 
HETATM   15  C   UNK     0      32.161   9.458  -4.268  0.00  0.00     0.204 C 
BRANCH  12  16
HETATM   16  O   UNK     0      29.409   9.834  -1.748  0.00  0.00    -0.390 OA
HETATM   17  H   UNK     0      29.380  10.693  -1.294  0.00  0.00     0.210 HD
ENDBRANCH  12  16
BRANCH  14  18
HETATM   18  O   UNK     0      30.946   7.786  -3.008  0.00  0.00    -0.390 OA
HETATM   19  H   UNK     0      30.001   7.737  -2.782  0.00  0.00     0.210 HD
ENDBRANCH  14  18
BRANCH  15  20
HETATM   20  O   UNK     0      31.467   9.033  -5.441  0.00  0.00    -0.388 OA
HETATM   21  H   UNK     0      32.027   8.395  -5.915  0.00  0.00     0.210 HD
ENDBRANCH  15  20
ENDBRANCH   8   9
ENDBRANCH   7   8
ENDBRANCH   2   7
BRANCH   6  22
HETATM   22  O   UNK     0      36.006   6.665  -1.875  0.00  0.00    -0.311 OA
BRANCH  22  23
HETATM   23  C   UNK     0      35.791   6.477  -3.223  0.00  0.00     0.157 A 
HETATM   24  C   UNK     0      36.784   6.452  -4.129  0.00  0.00     0.124 A 
HETATM   25  O   UNK     0      36.599   6.297  -5.495  0.00  0.00    -0.306 OA
HETATM   26  C   UNK     0      35.322   6.138  -5.968  0.00  0.00     0.096 A 
HETATM   27  C   UNK     0      34.204   6.135  -5.137  0.00  0.00     0.084 A 
HETATM   28  C   UNK     0      35.169   5.974  -7.345  0.00  0.00     0.075 A 
HETATM   29  C   UNK     0      34.392   6.312  -3.689  0.00  0.00     0.223 A 
HETATM   30  C   UNK     0      32.925   5.970  -5.675  0.00  0.00     0.085 A 
HETATM   31  O   UNK     0      33.448   6.324  -2.911  0.00  0.00    -0.284 OA
HETATM   32  C   UNK     0      32.774   5.806  -7.053  0.00  0.00     0.074 A 
HETATM   33  C   UNK     0      33.894   5.808  -7.886  0.00  0.00     0.071 A 
BRANCH  24  34
HETATM   34  C   UNK     0      38.200   6.614  -3.757  0.00  0.00     0.004 A 
HETATM   35  C   UNK     0      39.013   5.491  -3.599  0.00  0.00     0.053 A 
HETATM   36  C   UNK     0      40.354   5.644  -3.248  0.00  0.00     0.099 A 
HETATM   37  C   UNK     0      40.883   6.920  -3.054  0.00  0.00     0.098 A 
HETATM   38  C   UNK     0      40.071   8.043  -3.211  0.00  0.00     0.040 A 
HETATM   39  C   UNK     0      38.730   7.890  -3.563  0.00  0.00     0.017 A 
BRANCH  36  40
HETATM   40  O   UNK     0      41.138   4.540  -3.094  0.00  0.00    -0.358 OA
HETATM   41  H   UNK     0      41.380   4.188  -3.966  0.00  0.00     0.217 HD
ENDBRANCH  36  40
BRANCH  37  42
HETATM   42  O   UNK     0      42.192   7.082  -2.711  0.00  0.00    -0.358 OA
HETATM   43  H   UNK     0      42.668   6.246  -2.835  0.00  0.00     0.217 HD
ENDBRANCH  37  42
ENDBRANCH  24  34
BRANCH  30  44
HETATM   44  O   UNK     0      31.800   5.960  -4.908  0.00  0.00    -0.360 OA
HETATM   45  H   UNK     0      32.029   5.704  -3.998  0.00  0.00     0.217 HD
ENDBRANCH  30  44
BRANCH  33  46
HETATM   46  O   UNK     0      33.742   5.649  -9.229  0.00  0.00    -0.361 OA
HETATM   47  H   UNK     0      32.923   6.092  -9.509  0.00  0.00     0.217 HD
ENDBRANCH  33  46
ENDBRANCH  22  23
ENDBRANCH   6  22
BRANCH   3  48
HETATM   48  O   UNK     0      35.923  12.148  -1.269  0.00  0.00    -0.390 OA
HETATM   49  H   UNK     0      36.271  12.296  -0.374  0.00  0.00     0.210 HD
ENDBRANCH   3  48
BRANCH   5  50
HETATM   50  O   UNK     0      37.154   7.836   0.432  0.00  0.00    -0.388 OA
HETATM   51  H   UNK     0      36.448   7.172   0.502  0.00  0.00     0.210 HD
ENDBRANCH   5  50
BRANCH   4  52
HETATM   52  O   UNK     0      38.047  10.600  -0.067  0.00  0.00    -0.390 OA
HETATM   53  H   UNK     0      38.577  10.710  -0.874  0.00  0.00     0.210 HD
ENDBRANCH   4  52
TORSDOF 16
ENDMDL
MODEL 7
REMARK VINA RESULT:      -8.9      2.335      4.134
REMARK  16 active torsions:
REMARK  status: ('A' for Active; 'I' for Inactive)
REMARK    1  A    between atoms: O_2  and  C_22 
REMARK    2  A    between atoms: O_2  and  C_26 
REMARK    3  A    between atoms: O_4  and  C_18 
REMARK    4  A    between atoms: O_5  and  C_19 
REMARK    5  A    between atoms: O_6  and  C_25 
REMARK    6  A    between atoms: O_6  and  C_29 
REMARK    7  A    between atoms: O_7  and  C_20 
REMARK    8  A    between atoms: O_8  and  C_21 
REMARK    9  A    between atoms: O_9  and  C_23 
REMARK   10  A    between atoms: O_10  and  C_24 
REMARK   11  A    between atoms: O_13  and  C_35 
REMARK   12  A    between atoms: O_14  and  C_40 
REMARK   13  A    between atoms: O_15  and  C_41 
REMARK   14  A    between atoms: O_16  and  C_43 
REMARK   15  A    between atoms: C_17  and  C_26 
REMARK   16  A    between atoms: C_30  and  C_33 
ROOT
HETATM    1  O   UNK     0      33.933   9.220  -3.644  0.00  0.00    -0.348 OA
HETATM    2  C   UNK     0      33.429   9.970  -2.537  0.00  0.00     0.180 C 
HETATM    3  C   UNK     0      32.623  11.169  -3.042  0.00  0.00     0.180 C 
HETATM    4  C   UNK     0      33.467  12.035  -3.978  0.00  0.00     0.183 C 
HETATM    5  C   UNK     0      34.148  11.187  -5.053  0.00  0.00     0.205 C 
HETATM    6  C   UNK     0      34.844   9.971  -4.443  0.00  0.00     0.298 C 
ENDROOT
BRANCH   2   7
HETATM    7  C   UNK     0      32.574   9.028  -1.695  0.00  0.00     0.205 C 
BRANCH   7   8
HETATM    8  O   UNK     0      33.368   8.495  -0.646  0.00  0.00    -0.356 OA
BRANCH   8   9
HETATM    9  C   UNK     0      33.774   7.159  -0.927  0.00  0.00     0.291 C 
HETATM   10  O   UNK     0      33.599   6.289   0.195  0.00  0.00    -0.351 OA
HETATM   11  C   UNK     0      34.411   6.618   1.326  0.00  0.00     0.152 C 
HETATM   12  C   UNK     0      35.903   6.578   0.964  0.00  0.00     0.178 C 
HETATM   13  C   UNK     0      34.064   5.623   2.431  0.00  0.00     0.042 C 
HETATM   14  C   UNK     0      36.176   7.478  -0.241  0.00  0.00     0.183 C 
HETATM   15  C   UNK     0      35.228   7.150  -1.396  0.00  0.00     0.204 C 
BRANCH  12  16
HETATM   16  O   UNK     0      36.689   7.048   2.057  0.00  0.00    -0.390 OA
HETATM   17  H   UNK     0      36.332   7.910   2.332  0.00  0.00     0.210 HD
ENDBRANCH  12  16
BRANCH  14  18
HETATM   18  O   UNK     0      37.528   7.307  -0.659  0.00  0.00    -0.390 OA
HETATM   19  H   UNK     0      37.544   6.602  -1.329  0.00  0.00     0.210 HD
ENDBRANCH  14  18
BRANCH  15  20
HETATM   20  O   UNK     0      35.512   5.845  -1.904  0.00  0.00    -0.388 OA
HETATM   21  H   UNK     0      36.028   5.941  -2.723  0.00  0.00     0.210 HD
ENDBRANCH  15  20
ENDBRANCH   8   9
ENDBRANCH   7   8
ENDBRANCH   2   7
BRANCH   6  22
HETATM   22  O   UNK     0      35.328   9.159  -5.512  0.00  0.00    -0.311 OA
BRANCH  22  23
HETATM   23  C   UNK     0      36.288   8.271  -5.080  0.00  0.00     0.157 A 
HETATM   24  C   UNK     0      36.170   6.938  -5.216  0.00  0.00     0.124 A 
HETATM   25  O   UNK     0      37.101   6.015  -4.764  0.00  0.00    -0.306 OA
HETATM   26  C   UNK     0      38.236   6.478  -4.150  0.00  0.00     0.096 A 
HETATM   27  C   UNK     0      38.487   7.834  -3.953  0.00  0.00     0.084 A 
HETATM   28  C   UNK     0      39.158   5.526  -3.715  0.00  0.00     0.075 A 
HETATM   29  C   UNK     0      37.497   8.817  -4.418  0.00  0.00     0.223 A 
HETATM   30  C   UNK     0      39.662   8.249  -3.319  0.00  0.00     0.085 A 
HETATM   31  O   UNK     0      37.662  10.021  -4.267  0.00  0.00    -0.284 OA
HETATM   32  C   UNK     0      40.583   7.295  -2.885  0.00  0.00     0.074 A 
HETATM   33  C   UNK     0      40.332   5.937  -3.083  0.00  0.00     0.071 A 
BRANCH  24  34
HETATM   34  C   UNK     0      35.001   6.307  -5.855  0.00  0.00     0.004 A 
HETATM   35  C   UNK     0      33.798   6.198  -5.155  0.00  0.00     0.053 A 
HETATM   36  C   UNK     0      32.691   5.603  -5.759  0.00  0.00     0.099 A 
HETATM   37  C   UNK     0      32.786   5.116  -7.063  0.00  0.00     0.098 A 
HETATM   38  C   UNK     0      33.988   5.224  -7.762  0.00  0.00     0.040 A 
HETATM   39  C   UNK     0      35.094   5.820  -7.158  0.00  0.00     0.017 A 
BRANCH  36  40
HETATM   40  O   UNK     0      31.523   5.501  -5.066  0.00  0.00    -0.358 OA
HETATM   41  H   UNK     0      31.250   4.570  -5.020  0.00  0.00     0.217 HD
ENDBRANCH  36  40
BRANCH  37  42
HETATM   42  O   UNK     0      31.711   4.533  -7.663  0.00  0.00    -0.358 OA
HETATM   43  H   UNK     0      31.986   3.714  -8.104  0.00  0.00     0.217 HD
ENDBRANCH  37  42
ENDBRANCH  24  34
BRANCH  30  44
HETATM   44  O   UNK     0      39.956   9.560  -3.101  0.00  0.00    -0.360 OA
HETATM   45  H   UNK     0      39.151  10.096  -3.210  0.00  0.00     0.217 HD
ENDBRANCH  30  44
BRANCH  33  46
HETATM   46  O   UNK     0      41.234   5.010  -2.657  0.00  0.00    -0.361 OA
HETATM   47  H   UNK     0      41.880   5.442  -2.074  0.00  0.00     0.217 HD
ENDBRANCH  33  46
ENDBRANCH  22  23
ENDBRANCH   6  22
BRANCH   3  48
HETATM   48  O   UNK     0      32.198  11.953  -1.930  0.00  0.00    -0.390 OA
HETATM   49  H   UNK     0      31.236  11.847  -1.838  0.00  0.00     0.210 HD
ENDBRANCH   3  48
BRANCH   5  50
HETATM   50  O   UNK     0      35.129  11.975  -5.726  0.00  0.00    -0.388 OA
HETATM   51  H   UNK     0      35.835  11.380  -6.030  0.00  0.00     0.210 HD
ENDBRANCH   5  50
BRANCH   4  52
HETATM   52  O   UNK     0      32.601  12.986  -4.600  0.00  0.00    -0.390 OA
HETATM   53  H   UNK     0      31.963  12.489  -5.140  0.00  0.00     0.210 HD
ENDBRANCH   4  52
TORSDOF 16
ENDMDL
MODEL 8
REMARK VINA RESULT:      -8.8     14.853     18.608
REMARK  16 active torsions:
REMARK  status: ('A' for Active; 'I' for Inactive)
REMARK    1  A    between atoms: O_2  and  C_22 
REMARK    2  A    between atoms: O_2  and  C_26 
REMARK    3  A    between atoms: O_4  and  C_18 
REMARK    4  A    between atoms: O_5  and  C_19 
REMARK    5  A    between atoms: O_6  and  C_25 
REMARK    6  A    between atoms: O_6  and  C_29 
REMARK    7  A    between atoms: O_7  and  C_20 
REMARK    8  A    between atoms: O_8  and  C_21 
REMARK    9  A    between atoms: O_9  and  C_23 
REMARK   10  A    between atoms: O_10  and  C_24 
REMARK   11  A    between atoms: O_13  and  C_35 
REMARK   12  A    between atoms: O_14  and  C_40 
REMARK   13  A    between atoms: O_15  and  C_41 
REMARK   14  A    between atoms: O_16  and  C_43 
REMARK   15  A    between atoms: C_17  and  C_26 
REMARK   16  A    between atoms: C_30  and  C_33 
ROOT
HETATM    1  O   UNK     0      25.452  -6.953  -4.836  0.00  0.00    -0.348 OA
HETATM    2  C   UNK     0      25.242  -8.345  -4.591  0.00  0.00     0.180 C 
HETATM    3  C   UNK     0      25.791  -9.169  -5.758  0.00  0.00     0.180 C 
HETATM    4  C   UNK     0      25.162  -8.724  -7.079  0.00  0.00     0.183 C 
HETATM    5  C   UNK     0      25.233  -7.206  -7.242  0.00  0.00     0.205 C 
HETATM    6  C   UNK     0      24.745  -6.488  -5.983  0.00  0.00     0.298 C 
ENDROOT
BRANCH   2   7
HETATM    7  C   UNK     0      25.940  -8.690  -3.278  0.00  0.00     0.205 C 
BRANCH   7   8
HETATM    8  O   UNK     0      26.683  -7.563  -2.839  0.00  0.00    -0.356 OA
BRANCH   8   9
HETATM    9  C   UNK     0      28.079  -7.840  -2.809  0.00  0.00     0.291 C 
HETATM   10  O   UNK     0      28.657  -7.591  -1.523  0.00  0.00    -0.351 OA
HETATM   11  C   UNK     0      28.613  -6.220  -1.116  0.00  0.00     0.152 C 
HETATM   12  C   UNK     0      29.357  -5.324  -2.115  0.00  0.00     0.178 C 
HETATM   13  C   UNK     0      29.225  -6.149   0.281  0.00  0.00     0.042 C 
HETATM   14  C   UNK     0      28.806  -5.538  -3.525  0.00  0.00     0.183 C 
HETATM   15  C   UNK     0      28.791  -7.024  -3.887  0.00  0.00     0.204 C 
BRANCH  12  16
HETATM   16  O   UNK     0      29.181  -3.950  -1.774  0.00  0.00    -0.390 OA
HETATM   17  H   UNK     0      28.600  -3.549  -2.442  0.00  0.00     0.210 HD
ENDBRANCH  12  16
BRANCH  14  18
HETATM   18  O   UNK     0      29.611  -4.819  -4.458  0.00  0.00    -0.390 OA
HETATM   19  H   UNK     0      29.034  -4.531  -5.187  0.00  0.00     0.210 HD
ENDBRANCH  14  18
BRANCH  15  20
HETATM   20  O   UNK     0      30.129  -7.514  -3.991  0.00  0.00    -0.388 OA
HETATM   21  H   UNK     0      30.272  -7.824  -4.902  0.00  0.00     0.210 HD
ENDBRANCH  15  20
ENDBRANCH   8   9
ENDBRANCH   7   8
ENDBRANCH   2   7
BRANCH   6  22
HETATM   22  O   UNK     0      24.975  -5.090  -6.157  0.00  0.00    -0.311 OA
BRANCH  22  23
HETATM   23  C   UNK     0      23.799  -4.374  -6.119  0.00  0.00     0.157 A 
HETATM   24  C   UNK     0      23.165  -4.063  -4.974  0.00  0.00     0.124 A 
HETATM   25  O   UNK     0      21.965  -3.372  -4.902  0.00  0.00    -0.306 OA
HETATM   26  C   UNK     0      21.381  -2.954  -6.069  0.00  0.00     0.096 A 
HETATM   27  C   UNK     0      21.936  -3.202  -7.323  0.00  0.00     0.084 A 
HETATM   28  C   UNK     0      20.179  -2.253  -5.964  0.00  0.00     0.075 A 
HETATM   29  C   UNK     0      23.202  -3.945  -7.406  0.00  0.00     0.223 A 
HETATM   30  C   UNK     0      21.294  -2.752  -8.480  0.00  0.00     0.085 A 
HETATM   31  O   UNK     0      23.733  -4.198  -8.479  0.00  0.00    -0.284 OA
HETATM   32  C   UNK     0      20.092  -2.051  -8.372  0.00  0.00     0.074 A 
HETATM   33  C   UNK     0      19.536  -1.801  -7.117  0.00  0.00     0.071 A 
BRANCH  24  34
HETATM   34  C   UNK     0      23.683  -4.453  -3.650  0.00  0.00     0.004 A 
HETATM   35  C   UNK     0      24.796  -3.804  -3.117  0.00  0.00     0.053 A 
HETATM   36  C   UNK     0      25.285  -4.172  -1.863  0.00  0.00     0.099 A 
HETATM   37  C   UNK     0      24.662  -5.191  -1.144  0.00  0.00     0.098 A 
HETATM   38  C   UNK     0      23.549  -5.841  -1.677  0.00  0.00     0.040 A 
HETATM   39  C   UNK     0      23.059  -5.472  -2.930  0.00  0.00     0.017 A 
BRANCH  36  40
HETATM   40  O   UNK     0      26.374  -3.531  -1.353  0.00  0.00    -0.358 OA
HETATM   41  H   UNK     0      26.725  -4.033  -0.600  0.00  0.00     0.217 HD
ENDBRANCH  36  40
BRANCH  37  42
HETATM   42  O   UNK     0      25.130  -5.559   0.082  0.00  0.00    -0.358 OA
HETATM   43  H   UNK     0      25.447  -4.777   0.560  0.00  0.00     0.217 HD
ENDBRANCH  37  42
ENDBRANCH  24  34
BRANCH  30  44
HETATM   44  O   UNK     0      21.793  -2.968  -9.728  0.00  0.00    -0.360 OA
HETATM   45  H   UNK     0      22.179  -3.860  -9.774  0.00  0.00     0.217 HD
ENDBRANCH  30  44
BRANCH  33  46
HETATM   46  O   UNK     0      18.363  -1.118  -7.017  0.00  0.00    -0.361 OA
HETATM   47  H   UNK     0      18.375  -0.590  -6.200  0.00  0.00     0.217 HD
ENDBRANCH  33  46
ENDBRANCH  22  23
ENDBRANCH   6  22
BRANCH   3  48
HETATM   48  O   UNK     0      25.500 -10.547  -5.539  0.00  0.00    -0.390 OA
HETATM   49  H   UNK     0      26.098 -10.874  -4.846  0.00  0.00     0.210 HD
ENDBRANCH   3  48
BRANCH   5  50
HETATM   50  O   UNK     0      24.406  -6.807  -8.334  0.00  0.00    -0.388 OA
HETATM   51  H   UNK     0      23.557  -6.501  -7.973  0.00  0.00     0.210 HD
ENDBRANCH   5  50
BRANCH   4  52
HETATM   52  O   UNK     0      25.880  -9.351  -8.143  0.00  0.00    -0.390 OA
HETATM   53  H   UNK     0      26.333  -8.649  -8.642  0.00  0.00     0.210 HD
ENDBRANCH   4  52
TORSDOF 16
ENDMDL
MODEL 9
REMARK VINA RESULT:      -8.7      3.098      6.804
REMARK  16 active torsions:
REMARK  status: ('A' for Active; 'I' for Inactive)
REMARK    1  A    between atoms: O_2  and  C_22 
REMARK    2  A    between atoms: O_2  and  C_26 
REMARK    3  A    between atoms: O_4  and  C_18 
REMARK    4  A    between atoms: O_5  and  C_19 
REMARK    5  A    between atoms: O_6  and  C_25 
REMARK    6  A    between atoms: O_6  and  C_29 
REMARK    7  A    between atoms: O_7  and  C_20 
REMARK    8  A    between atoms: O_8  and  C_21 
REMARK    9  A    between atoms: O_9  and  C_23 
REMARK   10  A    between atoms: O_10  and  C_24 
REMARK   11  A    between atoms: O_13  and  C_35 
REMARK   12  A    between atoms: O_14  and  C_40 
REMARK   13  A    between atoms: O_15  and  C_41 
REMARK   14  A    between atoms: O_16  and  C_43 
REMARK   15  A    between atoms: C_17  and  C_26 
REMARK   16  A    between atoms: C_30  and  C_33 
ROOT
HETATM    1  O   UNK     0      31.232  10.302  -2.369  0.00  0.00    -0.348 OA
HETATM    2  C   UNK     0      31.116  11.694  -2.669  0.00  0.00     0.180 C 
HETATM    3  C   UNK     0      29.731  12.201  -2.262  0.00  0.00     0.180 C 
HETATM    4  C   UNK     0      28.632  11.381  -2.938  0.00  0.00     0.183 C 
HETATM    5  C   UNK     0      28.872   9.882  -2.761  0.00  0.00     0.205 C 
HETATM    6  C   UNK     0      30.312   9.504  -3.110  0.00  0.00     0.298 C 
ENDROOT
BRANCH   2   7
HETATM    7  C   UNK     0      32.228  12.420  -1.917  0.00  0.00     0.205 C 
BRANCH   7   8
HETATM    8  O   UNK     0      32.780  13.419  -2.761  0.00  0.00    -0.356 OA
BRANCH   8   9
HETATM    9  C   UNK     0      34.160  13.180  -3.017  0.00  0.00     0.291 C 
HETATM   10  O   UNK     0      34.766  14.235  -3.770  0.00  0.00    -0.351 OA
HETATM   11  C   UNK     0      34.238  14.391  -5.091  0.00  0.00     0.152 C 
HETATM   12  C   UNK     0      34.415  13.105  -5.911  0.00  0.00     0.178 C 
HETATM   13  C   UNK     0      34.962  15.576  -5.724  0.00  0.00     0.042 C 
HETATM   14  C   UNK     0      33.801  11.919  -5.166  0.00  0.00     0.183 C 
HETATM   15  C   UNK     0      34.328  11.840  -3.732  0.00  0.00     0.204 C 
BRANCH  12  16
HETATM   16  O   UNK     0      33.756  13.228  -7.169  0.00  0.00    -0.390 OA
HETATM   17  H   UNK     0      33.586  14.172  -7.326  0.00  0.00     0.210 HD
ENDBRANCH  12  16
BRANCH  14  18
HETATM   18  O   UNK     0      34.112  10.715  -5.864  0.00  0.00    -0.390 OA
HETATM   19  H   UNK     0      34.977  10.835  -6.293  0.00  0.00     0.210 HD
ENDBRANCH  14  18
BRANCH  15  20
HETATM   20  O   UNK     0      35.721  11.523  -3.741  0.00  0.00    -0.388 OA
HETATM   21  H   UNK     0      35.929  11.035  -2.927  0.00  0.00     0.210 HD
ENDBRANCH  15  20
ENDBRANCH   8   9
ENDBRANCH   7   8
ENDBRANCH   2   7
BRANCH   6  22
HETATM   22  O   UNK     0      30.497   8.127  -2.785  0.00  0.00    -0.311 OA
BRANCH  22  23
HETATM   23  C   UNK     0      31.317   7.497  -3.694  0.00  0.00     0.157 A 
HETATM   24  C   UNK     0      32.585   7.143  -3.419  0.00  0.00     0.124 A 
HETATM   25  O   UNK     0      33.446   6.537  -4.321  0.00  0.00    -0.306 OA
HETATM   26  C   UNK     0      32.982   6.255  -5.580  0.00  0.00     0.096 A 
HETATM   27  C   UNK     0      31.688   6.560  -5.993  0.00  0.00     0.084 A 
HETATM   28  C   UNK     0      33.869   5.636  -6.461  0.00  0.00     0.075 A 
HETATM   29  C   UNK     0      30.773   7.215  -5.045  0.00  0.00     0.223 A 
HETATM   30  C   UNK     0      31.269   6.250  -7.290  0.00  0.00     0.085 A 
HETATM   31  O   UNK     0      29.627   7.512  -5.354  0.00  0.00    -0.284 OA
HETATM   32  C   UNK     0      32.159   5.631  -8.170  0.00  0.00     0.074 A 
HETATM   33  C   UNK     0      33.455   5.325  -7.757  0.00  0.00     0.071 A 
BRANCH  24  34
HETATM   34  C   UNK     0      33.209   7.390  -2.107  0.00  0.00     0.004 A 
HETATM   35  C   UNK     0      32.877   6.588  -1.014  0.00  0.00     0.053 A 
HETATM   36  C   UNK     0      33.468   6.820   0.227  0.00  0.00     0.099 A 
HETATM   37  C   UNK     0      34.391   7.855   0.377  0.00  0.00     0.098 A 
HETATM   38  C   UNK     0      34.723   8.658  -0.715  0.00  0.00     0.040 A 
HETATM   39  C   UNK     0      34.132   8.424  -1.956  0.00  0.00     0.017 A 
BRANCH  36  40
HETATM   40  O   UNK     0      33.135   6.032   1.287  0.00  0.00    -0.358 OA
HETATM   41  H   UNK     0      33.577   5.171   1.206  0.00  0.00     0.217 HD
ENDBRANCH  36  40
BRANCH  37  42
HETATM   42  O   UNK     0      34.976   8.092   1.585  0.00  0.00    -0.358 OA
HETATM   43  H   UNK     0      35.229   7.250   1.996  0.00  0.00     0.217 HD
ENDBRANCH  37  42
ENDBRANCH  24  34
BRANCH  30  44
HETATM   44  O   UNK     0      30.016   6.528  -7.744  0.00  0.00    -0.360 OA
HETATM   45  H   UNK     0      29.726   5.823  -8.350  0.00  0.00     0.217 HD
ENDBRANCH  30  44
BRANCH  33  46
HETATM   46  O   UNK     0      34.319   4.721  -8.619  0.00  0.00    -0.361 OA
HETATM   47  H   UNK     0      34.115   5.010  -9.524  0.00  0.00     0.217 HD
ENDBRANCH  33  46
ENDBRANCH  22  23
ENDBRANCH   6  22
BRANCH   3  48
HETATM   48  O   UNK     0      29.599  13.569  -2.643  0.00  0.00    -0.390 OA
HETATM   49  H   UNK     0      30.150  13.716  -3.430  0.00  0.00     0.210 HD
ENDBRANCH   3  48
BRANCH   5  50
HETATM   50  O   UNK     0      27.997   9.156  -3.623  0.00  0.00    -0.388 OA
HETATM   51  H   UNK     0      27.385   9.790  -4.034  0.00  0.00     0.210 HD
ENDBRANCH   5  50
BRANCH   4  52
HETATM   52  O   UNK     0      27.384  11.737  -2.340  0.00  0.00    -0.390 OA
HETATM   53  H   UNK     0      26.919  10.911  -2.123  0.00  0.00     0.210 HD
ENDBRANCH   4  52
TORSDOF 16
ENDMDL
