REMARK VINA RESULT:      -8.8      1.661      4.385
REMARK SMILES O=C(O[C@@H]1O[C@@H]2COC(=O)c3cc(O)c(O)c(O)c3-c3c(cc(O)c(O)c3O)C(=O)[OH+][C@H]2[C@@H](O)[C@H]1O)c1cc(O)c(O)c(O)c1
REMARK SMILES IDX 31 1 32 3 5 4 6 5 4 6 35 8 33 9 3 10 2 11 1 12 37 13 45 14
REMARK SMILES IDX 38 15 43 16 39 17 41 18 44 19 40 21 42 23 36 25 34 27 29 29
REMARK SMILES IDX 30 30 21 31 22 32 20 33 23 34 27 35 25 36 19 37 11 38 17 39
REMARK SMILES IDX 12 40 15 41 13 42 9 43 10 44 8 45 7 46 18 48 16 50 14 52
REMARK SMILES IDX 24 54 28 56 26 58
REMARK H PARENT 31 2 44 20 40 22 42 24 36 26 34 28 18 49 16 51 14 53 24 55
REMARK H PARENT 28 57 26 59
REMARK Flexibility Score: 70.00
ROOT
ATOM      1  O   UNL     1     180.973 180.407 170.361  1.00  0.00    -0.545 OA
ATOM      2  H   UNL     1     181.518 180.316 169.575  1.00  0.00     0.400 HD
ENDROOT
BRANCH   1   3
ATOM      3  C   UNL     1     181.188 181.724 170.869  1.00  0.00     0.294 C 
ATOM      4  O   UNL     1     182.849 183.362 171.347  1.00  0.00    -0.327 OA
ATOM      5  C   UNL     1     182.659 181.971 171.159  1.00  0.00     0.226 C
ATOM      6  C   UNL     1     182.240 183.765 172.569  1.00  0.00     0.343 C 
ATOM      7  G   UNL     1     183.513 181.469 170.012  1.00  0.00     0.000 C
ATOM      8  C   UNL     1     180.719 183.515 172.525  1.00  0.00     0.218 C 
ATOM      9  C   UNL     1     180.440 182.043 172.163  1.00  0.00     0.215 C 
BRANCH   6  10
ATOM     10  O   UNL     1     182.505 185.140 172.790  1.00  0.00    -0.429 OA
BRANCH  10  11
ATOM     11  C   UNL     1     183.762 185.616 172.577  1.00  0.00     0.340 C 
ATOM     12  O   UNL     1     184.004 186.275 171.591  1.00  0.00    -0.246 OA
BRANCH  11  13
ATOM     13  C   UNL     1     184.823 185.312 173.547  1.00  0.00     0.067 A 
ATOM     14  C   UNL     1     185.724 184.296 173.276  1.00  0.00     0.066 A 
ATOM     15  C   UNL     1     184.935 186.043 174.719  1.00  0.00     0.066 A 
ATOM     16  C   UNL     1     186.739 184.009 174.173  1.00  0.00     0.162 A 
ATOM     17  C   UNL     1     185.950 185.754 175.619  1.00  0.00     0.162 A 
ATOM     18  C   UNL     1     186.854 184.739 175.346  1.00  0.00     0.200 A 
BRANCH  16  19
ATOM     19  O   UNL     1     187.624 183.012 173.900  1.00  0.00    -0.504 OA
ATOM     20  H   UNL     1     187.311 182.112 173.781  1.00  0.00     0.293 HD
ENDBRANCH  16  19
BRANCH  17  21
ATOM     21  O   UNL     1     186.064 186.469 176.770  1.00  0.00    -0.504 OA
ATOM     22  H   UNL     1     186.317 186.028 177.583  1.00  0.00     0.293 HD
ENDBRANCH  17  21
BRANCH  18  23
ATOM     23  O   UNL     1     187.852 184.460 176.227  1.00  0.00    -0.502 OA
ATOM     24  H   UNL     1     187.656 184.354 177.161  1.00  0.00     0.293 HD
ENDBRANCH  18  23
ENDBRANCH  11  13
ENDBRANCH  10  11
ENDBRANCH   6  10
BRANCH   8  25
ATOM     25  O   UNL     1     180.155 183.825 173.790  1.00  0.00    -0.384 OA
ATOM     26  H   UNL     1     179.365 183.296 174.135  1.00  0.00     0.211 HD
ENDBRANCH   8  25
BRANCH   9  27
ATOM     27  O   UNL     1     180.892 181.196 173.207  1.00  0.00    -0.383 OA
ATOM     28  H   UNL     1     181.877 180.983 173.296  1.00  0.00     0.211 HD
ENDBRANCH   9  27
ENDBRANCH   1   3
BRANCH   1  29
ATOM     29  C   UNL     1     179.670 180.002 170.386  1.00  0.00     0.551 C 
ATOM     30  O   UNL     1     178.901 180.539 169.621  1.00  0.00     0.048 OA
BRANCH  29  31
ATOM     31  C   UNL     1     179.140 178.977 171.313  1.00  0.00     0.139 A 
ATOM     32  C   UNL     1     177.898 179.235 171.878  1.00  0.00     0.073 A 
ATOM     33  C   UNL     1     179.795 177.774 171.617  1.00  0.00     0.053 A 
ATOM     34  C   UNL     1     177.297 178.328 172.732  1.00  0.00     0.162 A 
ATOM     35  C   UNL     1     179.169 176.876 172.475  1.00  0.00     0.170 A 
ATOM     36  C   UNL     1     177.935 177.144 173.031  1.00  0.00     0.200 A 
BRANCH  33  37
ATOM     37  C   UNL     1     181.142 177.310 171.117  1.00  0.00     0.047 A 
ATOM     38  C   UNL     1     181.369 176.361 170.120  1.00  0.00     0.075 A 
ATOM     39  C   UNL     1     182.241 177.873 171.753  1.00  0.00     0.170 A 
ATOM     40  C   UNL     1     182.670 175.989 169.797  1.00  0.00     0.066 A 
ATOM     41  C   UNL     1     183.531 177.502 171.429  1.00  0.00     0.200 A 
ATOM     42  C   UNL     1     183.751 176.554 170.450  1.00  0.00     0.162 A 
BRANCH  38  43
ATOM     43  C   UNL     1     180.283 175.734 169.359  1.00  0.00     0.339 C 
ATOM     44  O   UNL     1     180.025 176.096 168.234  1.00  0.00    -0.246 OA
BRANCH  43  45
ATOM     45  O   UNL     1     179.577 174.728 169.955  1.00  0.00    -0.459 OA
BRANCH  45  46
ATOM     46  C   UNL     1     178.305 174.385 169.403  1.00  0.00     0.272 C
ATOM     47  G   UNL     1     177.190 175.310 169.849  1.00  0.00     0.000 C
ENDBRANCH  45  46
ENDBRANCH  43  45
ENDBRANCH  38  43
BRANCH  39  48
ATOM     48  O   UNL     1     182.038 178.794 172.729  1.00  0.00    -0.504 OA
ATOM     49  H   UNL     1     181.936 179.719 172.494  1.00  0.00     0.293 HD
ENDBRANCH  39  48
BRANCH  41  50
ATOM     50  O   UNL     1     184.580 178.069 172.085  1.00  0.00    -0.502 OA
ATOM     51  H   UNL     1     185.266 177.512 172.459  1.00  0.00     0.293 HD
ENDBRANCH  41  50
BRANCH  42  52
ATOM     52  O   UNL     1     185.018 176.179 170.127  1.00  0.00    -0.504 OA
ATOM     53  H   UNL     1     185.731 176.819 170.181  1.00  0.00     0.293 HD
ENDBRANCH  42  52
ENDBRANCH  33  37
BRANCH  34  54
ATOM     54  O   UNL     1     176.081 178.601 173.270  1.00  0.00    -0.504 OA
ATOM     55  H   UNL     1     175.446 179.105 172.760  1.00  0.00     0.293 HD
ENDBRANCH  34  54
BRANCH  35  56
ATOM     56  O   UNL     1     179.787 175.704 172.779  1.00  0.00    -0.504 OA
ATOM     57  H   UNL     1     180.458 175.342 172.194  1.00  0.00     0.293 HD
ENDBRANCH  35  56
BRANCH  36  58
ATOM     58  O   UNL     1     177.353 176.241 173.865  1.00  0.00    -0.502 OA
ATOM     59  H   UNL     1     177.898 175.610 174.339  1.00  0.00     0.293 HD
ENDBRANCH  36  58
ENDBRANCH  29  31
ENDBRANCH   1  29
TORSDOF 14
