REMARK VINA RESULT:      -8.8      1.762      4.658
REMARK SMILES O=C(O[C@@H]1O[C@@H]2COC(=O)c3cc(O)c(O)c(O)c3-c3c(cc(O)c(O)c3O)C(=O)[OH+][C@H]2[C@@H](O)[C@H]1O)c1cc(O)c(O)c(O)c1
REMARK SMILES IDX 31 1 32 3 5 4 6 5 4 6 35 8 33 9 3 10 2 11 1 12 37 13 45 14
REMARK SMILES IDX 38 15 43 16 39 17 41 18 44 19 40 21 42 23 36 25 34 27 29 29
REMARK SMILES IDX 30 30 21 31 22 32 20 33 23 34 27 35 25 36 19 37 11 38 17 39
REMARK SMILES IDX 12 40 15 41 13 42 9 43 10 44 8 45 7 46 18 48 16 50 14 52
REMARK SMILES IDX 24 54 28 56 26 58
REMARK H PARENT 31 2 44 20 40 22 42 24 36 26 34 28 18 49 16 51 14 53 24 55
REMARK H PARENT 28 57 26 59
REMARK Flexibility Score: 70.00
ROOT
ATOM      1  O   UNL     1     179.746 180.106 169.466  1.00  0.00    -0.545 OA
ATOM      2  H   UNL     1     179.085 180.736 169.766  1.00  0.00     0.400 HD
ENDROOT
BRANCH   1   3
ATOM      3  C   UNL     1     180.973 180.445 170.113  1.00  0.00     0.294 C 
ATOM      4  O   UNL     1     181.926 181.639 171.941  1.00  0.00    -0.327 OA
ATOM      5  C   UNL     1     180.774 181.568 171.118  1.00  0.00     0.226 C
ATOM      6  C   UNL     1     183.027 182.121 171.179  1.00  0.00     0.343 C 
ATOM      7  G   UNL     1     179.538 181.312 171.956  1.00  0.00     0.000 C
ATOM      8  C   UNL     1     183.352 181.154 170.022  1.00  0.00     0.218 C 
ATOM      9  C   UNL     1     182.088 180.906 169.176  1.00  0.00     0.215 C 
BRANCH   6  10
ATOM     10  O   UNL     1     184.152 182.267 172.028  1.00  0.00    -0.429 OA
BRANCH  10  11
ATOM     11  C   UNL     1     184.825 183.449 172.039  1.00  0.00     0.340 C 
ATOM     12  O   UNL     1     185.102 184.002 170.998  1.00  0.00    -0.246 OA
BRANCH  11  13
ATOM     13  C   UNL     1     185.223 184.040 173.324  1.00  0.00     0.067 A 
ATOM     14  C   UNL     1     184.395 184.969 173.932  1.00  0.00     0.066 A 
ATOM     15  C   UNL     1     186.410 183.665 173.935  1.00  0.00     0.066 A 
ATOM     16  C   UNL     1     184.749 185.523 175.151  1.00  0.00     0.162 A 
ATOM     17  C   UNL     1     186.765 184.221 175.154  1.00  0.00     0.162 A 
ATOM     18  C   UNL     1     185.934 185.149 175.764  1.00  0.00     0.200 A 
BRANCH  16  19
ATOM     19  O   UNL     1     183.930 186.433 175.747  1.00  0.00    -0.504 OA
ATOM     20  H   UNL     1     183.226 186.136 176.328  1.00  0.00     0.293 HD
ENDBRANCH  16  19
BRANCH  17  21
ATOM     21  O   UNL     1     187.928 183.856 175.756  1.00  0.00    -0.504 OA
ATOM     22  H   UNL     1     188.656 183.524 175.227  1.00  0.00     0.293 HD
ENDBRANCH  17  21
BRANCH  18  23
ATOM     23  O   UNL     1     186.283 185.690 176.963  1.00  0.00    -0.502 OA
ATOM     24  H   UNL     1     186.902 186.423 176.999  1.00  0.00     0.293 HD
ENDBRANCH  18  23
ENDBRANCH  11  13
ENDBRANCH  10  11
ENDBRANCH   6  10
BRANCH   8  25
ATOM     25  O   UNL     1     184.381 181.710 169.219  1.00  0.00    -0.384 OA
ATOM     26  H   UNL     1     184.213 181.894 168.238  1.00  0.00     0.211 HD
ENDBRANCH   8  25
BRANCH   9  27
ATOM     27  O   UNL     1     181.706 182.103 168.517  1.00  0.00    -0.383 OA
ATOM     28  H   UNL     1     180.920 182.102 167.881  1.00  0.00     0.211 HD
ENDBRANCH   9  27
ENDBRANCH   1   3
BRANCH   1  29
ATOM     29  C   UNL     1     179.493 178.766 169.411  1.00  0.00     0.551 C 
ATOM     30  O   UNL     1     179.543 178.229 168.329  1.00  0.00     0.048 OA
BRANCH  29  31
ATOM     31  C   UNL     1     179.127 177.946 170.588  1.00  0.00     0.139 A 
ATOM     32  C   UNL     1     177.817 178.051 171.035  1.00  0.00     0.073 A 
ATOM     33  C   UNL     1     180.004 177.064 171.238  1.00  0.00     0.053 A 
ATOM     34  C   UNL     1     177.362 177.304 172.105  1.00  0.00     0.162 A 
ATOM     35  C   UNL     1     179.523 176.320 172.310  1.00  0.00     0.170 A 
ATOM     36  C   UNL     1     178.218 176.434 172.745  1.00  0.00     0.200 A 
BRANCH  33  37
ATOM     37  C   UNL     1     181.457 176.808 170.915  1.00  0.00     0.047 A 
ATOM     38  C   UNL     1     181.950 175.832 170.050  1.00  0.00     0.075 A 
ATOM     39  C   UNL     1     182.368 177.615 171.585  1.00  0.00     0.170 A 
ATOM     40  C   UNL     1     183.322 175.675 169.888  1.00  0.00     0.066 A 
ATOM     41  C   UNL     1     183.730 177.457 171.422  1.00  0.00     0.200 A 
ATOM     42  C   UNL     1     184.213 176.481 170.573  1.00  0.00     0.162 A 
BRANCH  38  43
ATOM     43  C   UNL     1     181.076 174.954 169.264  1.00  0.00     0.339 C 
ATOM     44  O   UNL     1     180.843 175.191 168.100  1.00  0.00    -0.246 OA
BRANCH  43  45
ATOM     45  O   UNL     1     180.539 173.861 169.881  1.00  0.00    -0.459 OA
BRANCH  45  46
ATOM     46  C   UNL     1     179.342 173.305 169.335  1.00  0.00     0.272 C
ATOM     47  G   UNL     1     178.089 174.042 169.765  1.00  0.00     0.000 C
ENDBRANCH  45  46
ENDBRANCH  43  45
ENDBRANCH  38  43
BRANCH  39  48
ATOM     48  O   UNL     1     181.905 178.567 172.435  1.00  0.00    -0.504 OA
ATOM     49  H   UNL     1     182.389 178.759 173.241  1.00  0.00     0.293 HD
ENDBRANCH  39  48
BRANCH  41  50
ATOM     50  O   UNL     1     184.589 178.260 172.107  1.00  0.00    -0.502 OA
ATOM     51  H   UNL     1     185.258 178.756 171.633  1.00  0.00     0.293 HD
ENDBRANCH  41  50
BRANCH  42  52
ATOM     52  O   UNL     1     185.553 176.315 170.409  1.00  0.00    -0.504 OA
ATOM     53  H   UNL     1     185.902 176.098 169.542  1.00  0.00     0.293 HD
ENDBRANCH  42  52
ENDBRANCH  33  37
BRANCH  34  54
ATOM     54  O   UNL     1     176.075 177.422 172.522  1.00  0.00    -0.504 OA
ATOM     55  H   UNL     1     175.387 176.944 172.058  1.00  0.00     0.293 HD
ENDBRANCH  34  54
BRANCH  35  56
ATOM     56  O   UNL     1     180.356 175.458 172.951  1.00  0.00    -0.504 OA
ATOM     57  H   UNL     1     181.168 175.163 172.530  1.00  0.00     0.293 HD
ENDBRANCH  35  56
BRANCH  36  58
ATOM     58  O   UNL     1     177.783 175.689 173.796  1.00  0.00    -0.502 OA
ATOM     59  H   UNL     1     178.299 174.937 174.094  1.00  0.00     0.293 HD
ENDBRANCH  36  58
ENDBRANCH  29  31
ENDBRANCH   1  29
TORSDOF 14
