REMARK VINA RESULT:      -8.8      1.916      3.807
REMARK SMILES O=C(O[C@@H]1O[C@@H]2COC(=O)c3cc(O)c(O)c(O)c3-c3c(cc(O)c(O)c3O)C(=O)[OH+][C@H]2[C@@H](O)[C@H]1O)c1cc(O)c(O)c(O)c1
REMARK SMILES IDX 31 1 32 3 5 4 6 5 4 6 35 8 33 9 3 10 2 11 1 12 37 13 45 14
REMARK SMILES IDX 38 15 43 16 39 17 41 18 44 19 40 21 42 23 36 25 34 27 29 29
REMARK SMILES IDX 30 30 21 31 22 32 20 33 23 34 27 35 25 36 19 37 11 38 17 39
REMARK SMILES IDX 12 40 15 41 13 42 9 43 10 44 8 45 7 46 18 48 16 50 14 52
REMARK SMILES IDX 24 54 28 56 26 58
REMARK H PARENT 31 2 44 20 40 22 42 24 36 26 34 28 18 49 16 51 14 53 24 55
REMARK H PARENT 28 57 26 59
REMARK Flexibility Score: 70.00
ROOT
ATOM      1  O   UNL     1     180.642 180.580 172.436  1.00  0.00    -0.545 OA
ATOM      2  H   UNL     1     181.369 179.952 172.472  1.00  0.00     0.400 HD
ENDROOT
BRANCH   1   3
ATOM      3  C   UNL     1     181.208 181.862 172.165  1.00  0.00     0.294 C 
ATOM      4  O   UNL     1     183.222 183.131 172.208  1.00  0.00    -0.327 OA
ATOM      5  C   UNL     1     182.596 181.991 172.770  1.00  0.00     0.226 C
ATOM      6  C   UNL     1     182.585 184.310 172.688  1.00  0.00     0.343 C 
ATOM      7  G   UNL     1     183.411 180.745 172.488  1.00  0.00     0.000 C
ATOM      8  C   UNL     1     181.106 184.342 172.254  1.00  0.00     0.218 C 
ATOM      9  C   UNL     1     180.400 183.045 172.697  1.00  0.00     0.215 C 
BRANCH   6  10
ATOM     10  O   UNL     1     183.269 185.446 172.188  1.00  0.00    -0.429 OA
BRANCH  10  11
ATOM     11  C   UNL     1     184.618 185.389 172.022  1.00  0.00     0.340 C 
ATOM     12  O   UNL     1     185.100 185.489 170.916  1.00  0.00    -0.246 OA
BRANCH  11  13
ATOM     13  C   UNL     1     185.481 185.192 173.195  1.00  0.00     0.067 A 
ATOM     14  C   UNL     1     185.277 185.962 174.328  1.00  0.00     0.066 A 
ATOM     15  C   UNL     1     186.484 184.235 173.179  1.00  0.00     0.066 A 
ATOM     16  C   UNL     1     186.072 185.777 175.447  1.00  0.00     0.162 A 
ATOM     17  C   UNL     1     187.281 184.052 174.298  1.00  0.00     0.162 A 
ATOM     18  C   UNL     1     187.075 184.821 175.434  1.00  0.00     0.200 A 
BRANCH  16  19
ATOM     19  O   UNL     1     185.866 186.534 176.559  1.00  0.00    -0.504 OA
ATOM     20  H   UNL     1     184.990 186.877 176.750  1.00  0.00     0.293 HD
ENDBRANCH  16  19
BRANCH  17  21
ATOM     21  O   UNL     1     188.266 183.114 174.286  1.00  0.00    -0.504 OA
ATOM     22  H   UNL     1     188.300 182.467 173.579  1.00  0.00     0.293 HD
ENDBRANCH  17  21
BRANCH  18  23
ATOM     23  O   UNL     1     187.856 184.636 176.532  1.00  0.00    -0.502 OA
ATOM     24  H   UNL     1     188.003 185.359 177.146  1.00  0.00     0.293 HD
ENDBRANCH  18  23
ENDBRANCH  11  13
ENDBRANCH  10  11
ENDBRANCH   6  10
BRANCH   8  25
ATOM     25  O   UNL     1     180.469 185.471 172.833  1.00  0.00    -0.384 OA
ATOM     26  H   UNL     1     180.052 185.400 173.752  1.00  0.00     0.211 HD
ENDBRANCH   8  25
BRANCH   9  27
ATOM     27  O   UNL     1     180.335 182.992 174.113  1.00  0.00    -0.383 OA
ATOM     28  H   UNL     1     180.615 183.794 174.663  1.00  0.00     0.211 HD
ENDBRANCH   9  27
ENDBRANCH   1   3
BRANCH   1  29
ATOM     29  C   UNL     1     179.495 180.315 171.744  1.00  0.00     0.551 C 
ATOM     30  O   UNL     1     178.454 180.321 172.360  1.00  0.00     0.048 OA
BRANCH  29  31
ATOM     31  C   UNL     1     179.458 179.990 170.301  1.00  0.00     0.139 A 
ATOM     32  C   UNL     1     179.401 181.065 169.424  1.00  0.00     0.073 A 
ATOM     33  C   UNL     1     179.509 178.686 169.784  1.00  0.00     0.053 A 
ATOM     34  C   UNL     1     179.396 180.874 168.054  1.00  0.00     0.162 A 
ATOM     35  C   UNL     1     179.506 178.519 168.403  1.00  0.00     0.170 A 
ATOM     36  C   UNL     1     179.449 179.596 167.542  1.00  0.00     0.200 A 
BRANCH  33  37
ATOM     37  C   UNL     1     179.567 177.392 170.560  1.00  0.00     0.047 A 
ATOM     38  C   UNL     1     178.478 176.608 170.939  1.00  0.00     0.075 A 
ATOM     39  C   UNL     1     180.837 176.988 170.951  1.00  0.00     0.170 A 
ATOM     40  C   UNL     1     178.678 175.463 171.703  1.00  0.00     0.066 A 
ATOM     41  C   UNL     1     181.033 175.851 171.709  1.00  0.00     0.200 A 
ATOM     42  C   UNL     1     179.950 175.084 172.092  1.00  0.00     0.162 A 
BRANCH  38  43
ATOM     43  C   UNL     1     177.100 176.922 170.547  1.00  0.00     0.339 C 
ATOM     44  O   UNL     1     176.568 176.340 169.629  1.00  0.00    -0.246 OA
BRANCH  43  45
ATOM     45  O   UNL     1     176.433 177.883 171.251  1.00  0.00    -0.459 OA
BRANCH  45  46
ATOM     46  C   UNL     1     175.387 178.594 170.588  1.00  0.00     0.272 C
ATOM     47  G   UNL     1     175.892 179.722 169.709  1.00  0.00     0.000 C
ENDBRANCH  45  46
ENDBRANCH  43  45
ENDBRANCH  38  43
BRANCH  39  48
ATOM     48  O   UNL     1     181.908 177.743 170.595  1.00  0.00    -0.504 OA
ATOM     49  H   UNL     1     182.794 177.393 170.709  1.00  0.00     0.293 HD
ENDBRANCH  39  48
BRANCH  41  50
ATOM     50  O   UNL     1     182.293 175.497 172.082  1.00  0.00    -0.502 OA
ATOM     51  H   UNL     1     182.536 175.509 173.009  1.00  0.00     0.293 HD
ENDBRANCH  41  50
BRANCH  42  52
ATOM     52  O   UNL     1     180.132 173.964 172.842  1.00  0.00    -0.504 OA
ATOM     53  H   UNL     1     180.694 173.998 173.619  1.00  0.00     0.293 HD
ENDBRANCH  42  52
ENDBRANCH  33  37
BRANCH  34  54
ATOM     54  O   UNL     1     179.343 181.941 167.216  1.00  0.00    -0.504 OA
ATOM     55  H   UNL     1     179.769 181.886 166.360  1.00  0.00     0.293 HD
ENDBRANCH  34  54
BRANCH  35  56
ATOM     56  O   UNL     1     179.558 177.264 167.884  1.00  0.00    -0.504 OA
ATOM     57  H   UNL     1     179.947 177.111 167.018  1.00  0.00     0.293 HD
ENDBRANCH  35  56
BRANCH  36  58
ATOM     58  O   UNL     1     179.449 179.393 166.197  1.00  0.00    -0.502 OA
ATOM     59  H   UNL     1     178.649 179.099 165.759  1.00  0.00     0.293 HD
ENDBRANCH  36  58
ENDBRANCH  29  31
ENDBRANCH   1  29
TORSDOF 14
