REMARK VINA RESULT:      -8.8      1.311      2.945
REMARK SMILES O=C(O[C@@H]1O[C@@H]2COC(=O)c3cc(O)c(O)c(O)c3-c3c(cc(O)c(O)c3O)C(=O)[OH+][C@H]2[C@@H](O)[C@H]1O)c1cc(O)c(O)c(O)c1
REMARK SMILES IDX 31 1 32 3 5 4 6 5 4 6 35 8 33 9 3 10 2 11 1 12 37 13 45 14
REMARK SMILES IDX 38 15 43 16 39 17 41 18 44 19 40 21 42 23 36 25 34 27 29 29
REMARK SMILES IDX 30 30 21 31 22 32 20 33 23 34 27 35 25 36 19 37 11 38 17 39
REMARK SMILES IDX 12 40 15 41 13 42 9 43 10 44 8 45 7 46 18 48 16 50 14 52
REMARK SMILES IDX 24 54 28 56 26 58
REMARK H PARENT 31 2 44 20 40 22 42 24 36 26 34 28 18 49 16 51 14 53 24 55
REMARK H PARENT 28 57 26 59
REMARK Flexibility Score: 70.00
ROOT
ATOM      1  O   UNL     1     182.068 179.309 172.751  1.00  0.00    -0.545 OA
ATOM      2  H   UNL     1     182.920 178.889 172.605  1.00  0.00     0.400 HD
ENDROOT
BRANCH   1   3
ATOM      3  C   UNL     1     182.239 180.704 172.498  1.00  0.00     0.294 C 
ATOM      4  O   UNL     1     183.514 182.303 171.279  1.00  0.00    -0.327 OA
ATOM      5  C   UNL     1     183.549 180.978 171.779  1.00  0.00     0.226 C
ATOM      6  C   UNL     1     183.580 183.223 172.363  1.00  0.00     0.343 C 
ATOM      7  G   UNL     1     183.745 179.988 170.647  1.00  0.00     0.000 C
ATOM      8  C   UNL     1     182.360 183.054 173.292  1.00  0.00     0.218 C 
ATOM      9  C   UNL     1     182.246 181.586 173.746  1.00  0.00     0.215 C 
BRANCH   6  10
ATOM     10  O   UNL     1     183.628 184.544 171.851  1.00  0.00    -0.429 OA
BRANCH  10  11
ATOM     11  C   UNL     1     184.778 185.260 171.970  1.00  0.00     0.340 C 
ATOM     12  O   UNL     1     185.114 186.024 171.092  1.00  0.00    -0.246 OA
BRANCH  11  13
ATOM     13  C   UNL     1     185.613 185.090 173.167  1.00  0.00     0.067 A 
ATOM     14  C   UNL     1     185.371 185.872 174.284  1.00  0.00     0.066 A 
ATOM     15  C   UNL     1     186.628 184.145 173.189  1.00  0.00     0.066 A 
ATOM     16  C   UNL     1     186.139 185.711 175.425  1.00  0.00     0.162 A 
ATOM     17  C   UNL     1     187.398 183.986 174.331  1.00  0.00     0.162 A 
ATOM     18  C   UNL     1     187.154 184.767 175.450  1.00  0.00     0.200 A 
BRANCH  16  19
ATOM     19  O   UNL     1     185.896 186.479 176.522  1.00  0.00    -0.504 OA
ATOM     20  H   UNL     1     185.003 186.781 176.707  1.00  0.00     0.293 HD
ENDBRANCH  16  19
BRANCH  17  21
ATOM     21  O   UNL     1     188.395 183.060 174.356  1.00  0.00    -0.504 OA
ATOM     22  H   UNL     1     188.884 182.908 175.166  1.00  0.00     0.293 HD
ENDBRANCH  17  21
BRANCH  18  23
ATOM     23  O   UNL     1     187.908 184.606 176.571  1.00  0.00    -0.502 OA
ATOM     24  H   UNL     1     188.866 184.623 176.513  1.00  0.00     0.293 HD
ENDBRANCH  18  23
ENDBRANCH  11  13
ENDBRANCH  10  11
ENDBRANCH   6  10
BRANCH   8  25
ATOM     25  O   UNL     1     182.504 183.907 174.417  1.00  0.00    -0.384 OA
ATOM     26  H   UNL     1     181.806 183.901 175.149  1.00  0.00     0.211 HD
ENDBRANCH   8  25
BRANCH   9  27
ATOM     27  O   UNL     1     183.349 181.250 174.573  1.00  0.00    -0.383 OA
ATOM     28  H   UNL     1     184.290 181.475 174.277  1.00  0.00     0.211 HD
ENDBRANCH   9  27
ENDBRANCH   1   3
BRANCH   1  29
ATOM     29  C   UNL     1     180.912 178.786 172.248  1.00  0.00     0.551 C 
ATOM     30  O   UNL     1     179.893 179.416 172.413  1.00  0.00     0.048 OA
BRANCH  29  31
ATOM     31  C   UNL     1     180.829 177.484 171.549  1.00  0.00     0.139 A 
ATOM     32  C   UNL     1     181.850 176.577 171.804  1.00  0.00     0.073 A 
ATOM     33  C   UNL     1     179.782 177.114 170.691  1.00  0.00     0.053 A 
ATOM     34  C   UNL     1     181.852 175.320 171.230  1.00  0.00     0.162 A 
ATOM     35  C   UNL     1     179.804 175.842 170.128  1.00  0.00     0.170 A 
ATOM     36  C   UNL     1     180.825 174.951 170.389  1.00  0.00     0.200 A 
BRANCH  33  37
ATOM     37  C   UNL     1     178.591 177.947 170.283  1.00  0.00     0.047 A 
ATOM     38  C   UNL     1     178.529 178.820 169.197  1.00  0.00     0.075 A 
ATOM     39  C   UNL     1     177.478 177.841 171.106  1.00  0.00     0.170 A 
ATOM     40  C   UNL     1     177.379 179.568 168.971  1.00  0.00     0.066 A 
ATOM     41  C   UNL     1     176.337 178.584 170.879  1.00  0.00     0.200 A 
ATOM     42  C   UNL     1     176.284 179.456 169.810  1.00  0.00     0.162 A 
BRANCH  38  43
ATOM     43  C   UNL     1     179.632 178.979 168.243  1.00  0.00     0.339 C 
ATOM     44  O   UNL     1     179.562 178.510 167.130  1.00  0.00    -0.246 OA
BRANCH  43  45
ATOM     45  O   UNL     1     180.735 179.677 168.644  1.00  0.00    -0.459 OA
BRANCH  45  46
ATOM     46  C   UNL     1     180.567 181.052 168.992  1.00  0.00     0.272 C
ATOM     47  G   UNL     1     180.137 181.917 167.823  1.00  0.00     0.000 C
ENDBRANCH  45  46
ENDBRANCH  43  45
ENDBRANCH  38  43
BRANCH  39  48
ATOM     48  O   UNL     1     177.524 177.000 172.171  1.00  0.00    -0.504 OA
ATOM     49  H   UNL     1     177.298 177.327 173.044  1.00  0.00     0.293 HD
ENDBRANCH  39  48
BRANCH  41  50
ATOM     50  O   UNL     1     175.273 178.459 171.718  1.00  0.00    -0.502 OA
ATOM     51  H   UNL     1     174.384 178.431 171.359  1.00  0.00     0.293 HD
ENDBRANCH  41  50
BRANCH  42  52
ATOM     52  O   UNL     1     175.167 180.196 169.580  1.00  0.00    -0.504 OA
ATOM     53  H   UNL     1     175.238 181.148 169.486  1.00  0.00     0.293 HD
ENDBRANCH  42  52
ENDBRANCH  33  37
BRANCH  34  54
ATOM     54  O   UNL     1     182.860 174.449 171.496  1.00  0.00    -0.504 OA
ATOM     55  H   UNL     1     183.309 174.498 172.341  1.00  0.00     0.293 HD
ENDBRANCH  34  54
BRANCH  35  56
ATOM     56  O   UNL     1     178.798 175.464 169.296  1.00  0.00    -0.504 OA
ATOM     57  H   UNL     1     178.428 174.579 169.350  1.00  0.00     0.293 HD
ENDBRANCH  35  56
BRANCH  36  58
ATOM     58  O   UNL     1     180.811 173.715 169.820  1.00  0.00    -0.502 OA
ATOM     59  H   UNL     1     181.191 172.970 170.289  1.00  0.00     0.293 HD
ENDBRANCH  36  58
ENDBRANCH  29  31
ENDBRANCH   1  29
TORSDOF 14
