MODEL 1
REMARK VINA RESULT:    -6.653      0.000      0.000
REMARK INTER + INTRA:          -8.555
REMARK INTER:                  -8.223
REMARK INTRA:                  -0.332
REMARK UNBOUND:                -0.346
REMARK  Name = 5281672
REMARK  7 active torsions:
REMARK  status: ('A' for Active; 'I' for Inactive)
REMARK    1  A    between atoms: O_2  and  C_13
REMARK    2  A    between atoms: O_3  and  C_15
REMARK    3  A    between atoms: O_5  and  C_19
REMARK    4  A    between atoms: O_6  and  C_21
REMARK    5  A    between atoms: O_7  and  C_22
REMARK    6  A    between atoms: O_8  and  C_23
REMARK    7  A    between atoms: C_10  and  C_12
REMARK                            x       y       z     vdW  Elec       q    Type
REMARK                         _______ _______ _______ _____ _____    ______ ____
ROOT
ATOM      1  O   UNL     1     -23.121   0.354  55.197  0.00  0.00    +0.000 OA
ATOM      2  O   UNL     1     -24.240   3.055  52.359  0.00  0.00    +0.000 OA
ATOM      3  C   UNL     1     -22.623   2.363  53.930  0.00  0.00    +0.000 A 
ATOM      4  C   UNL     1     -24.319   0.228  54.511  0.00  0.00    +0.000 A 
ATOM      5  C   UNL     1     -22.299   1.408  54.891  0.00  0.00    +0.000 A 
ATOM      6  C   UNL     1     -24.752   1.085  53.569  0.00  0.00    +0.000 A 
ATOM      7  C   UNL     1     -23.899   2.244  53.208  0.00  0.00    +0.000 A 
ATOM      8  C   UNL     1     -21.747   3.418  53.661  0.00  0.00    +0.000 A 
ATOM      9  C   UNL     1     -21.096   1.502  55.590  0.00  0.00    +0.000 A 
ATOM     10  C   UNL     1     -20.219   2.553  55.325  0.00  0.00    +0.000 A 
ATOM     11  C   UNL     1     -20.544   3.509  54.362  0.00  0.00    +0.000 A 
ENDROOT
BRANCH   4  12
ATOM     12  C   UNL     1     -25.103  -0.945  54.936  0.00  0.00    +0.000 A 
ATOM     13  C   UNL     1     -25.124  -2.094  54.147  0.00  0.00    +0.000 A 
ATOM     14  C   UNL     1     -25.825  -0.907  56.129  0.00  0.00    +0.000 A 
ATOM     15  C   UNL     1     -26.567  -2.017  56.532  0.00  0.00    +0.000 A 
ATOM     16  C   UNL     1     -25.864  -3.205  54.549  0.00  0.00    +0.000 A 
ATOM     17  C   UNL     1     -26.586  -3.167  55.742  0.00  0.00    +0.000 A 
BRANCH  15  18
ATOM     18  O   UNL     1     -27.267  -1.968  57.700  0.00  0.00    +0.000 OA
ATOM     19  H   UNL     1     -28.215  -1.926  57.487  0.00  0.00    +0.000 HD
ENDBRANCH  15  18
BRANCH  16  20
ATOM     20  O   UNL     1     -25.875  -4.321  53.768  0.00  0.00    +0.000 OA
ATOM     21  H   UNL     1     -26.755  -4.730  53.795  0.00  0.00    +0.000 HD
ENDBRANCH  16  20
BRANCH  17  22
ATOM     22  O   UNL     1     -27.310  -4.253  56.136  0.00  0.00    +0.000 OA
ATOM     23  H   UNL     1     -27.508  -4.188  57.084  0.00  0.00    +0.000 HD
ENDBRANCH  17  22
ENDBRANCH   4  12
BRANCH   6  24
ATOM     24  O   UNL     1     -25.965   0.949  52.929  0.00  0.00    +0.000 OA
ATOM     25  H   UNL     1     -25.913   0.239  52.270  0.00  0.00    +0.000 HD
ENDBRANCH   6  24
BRANCH   8  26
ATOM     26  O   UNL     1     -22.015   4.378  52.732  0.00  0.00    +0.000 OA
ATOM     27  H   UNL     1     -22.315   3.975  51.904  0.00  0.00    +0.000 HD
ENDBRANCH   8  26
BRANCH  10  28
ATOM     28  O   UNL     1     -19.043   2.646  56.006  0.00  0.00    +0.000 OA
ATOM     29  H   UNL     1     -18.345   2.207  55.489  0.00  0.00    +0.000 HD
ENDBRANCH  10  28
TORSDOF 7
ENDMDL
MODEL 2
REMARK VINA RESULT:    -6.601      0.070      1.735
REMARK INTER + INTRA:          -8.490
REMARK INTER:                  -8.147
REMARK INTRA:                  -0.343
REMARK UNBOUND:                -0.346
REMARK  Name = 5281672
REMARK  7 active torsions:
REMARK  status: ('A' for Active; 'I' for Inactive)
REMARK    1  A    between atoms: O_2  and  C_13
REMARK    2  A    between atoms: O_3  and  C_15
REMARK    3  A    between atoms: O_5  and  C_19
REMARK    4  A    between atoms: O_6  and  C_21
REMARK    5  A    between atoms: O_7  and  C_22
REMARK    6  A    between atoms: O_8  and  C_23
REMARK    7  A    between atoms: C_10  and  C_12
REMARK                            x       y       z     vdW  Elec       q    Type
REMARK                         _______ _______ _______ _____ _____    ______ ____
ROOT
ATOM      1  O   UNL     1     -23.105   0.308  55.211  0.00  0.00    +0.000 OA
ATOM      2  O   UNL     1     -24.181   2.994  52.342  0.00  0.00    +0.000 OA
ATOM      3  C   UNL     1     -22.581   2.303  53.931  0.00  0.00    +0.000 A 
ATOM      4  C   UNL     1     -24.299   0.186  54.517  0.00  0.00    +0.000 A 
ATOM      5  C   UNL     1     -22.273   1.353  54.903  0.00  0.00    +0.000 A 
ATOM      6  C   UNL     1     -24.718   1.039  53.565  0.00  0.00    +0.000 A 
ATOM      7  C   UNL     1     -23.853   2.187  53.201  0.00  0.00    +0.000 A 
ATOM      8  C   UNL     1     -21.695   3.348  53.660  0.00  0.00    +0.000 A 
ATOM      9  C   UNL     1     -21.074   1.443  55.610  0.00  0.00    +0.000 A 
ATOM     10  C   UNL     1     -20.186   2.484  55.342  0.00  0.00    +0.000 A 
ATOM     11  C   UNL     1     -20.497   3.435  54.369  0.00  0.00    +0.000 A 
ENDROOT
BRANCH   4  12
ATOM     12  C   UNL     1     -25.096  -0.977  54.946  0.00  0.00    +0.000 A 
ATOM     13  C   UNL     1     -25.857  -0.909  56.113  0.00  0.00    +0.000 A 
ATOM     14  C   UNL     1     -25.090  -2.146  54.186  0.00  0.00    +0.000 A 
ATOM     15  C   UNL     1     -25.845  -3.246  54.592  0.00  0.00    +0.000 A 
ATOM     16  C   UNL     1     -26.613  -2.009  56.519  0.00  0.00    +0.000 A 
ATOM     17  C   UNL     1     -26.607  -3.178  55.758  0.00  0.00    +0.000 A 
BRANCH  15  18
ATOM     18  O   UNL     1     -25.832  -4.383  53.840  0.00  0.00    +0.000 OA
ATOM     19  H   UNL     1     -25.545  -4.151  52.940  0.00  0.00    +0.000 HD
ENDBRANCH  15  18
BRANCH  16  20
ATOM     20  O   UNL     1     -27.352  -1.928  57.661  0.00  0.00    +0.000 OA
ATOM     21  H   UNL     1     -26.937  -2.463  58.357  0.00  0.00    +0.000 HD
ENDBRANCH  16  20
BRANCH  17  22
ATOM     22  O   UNL     1     -27.346  -4.253  56.154  0.00  0.00    +0.000 OA
ATOM     23  H   UNL     1     -28.146  -3.949  56.613  0.00  0.00    +0.000 HD
ENDBRANCH  17  22
ENDBRANCH   4  12
BRANCH   6  24
ATOM     24  O   UNL     1     -25.927   0.907  52.917  0.00  0.00    +0.000 OA
ATOM     25  H   UNL     1     -26.642   1.247  53.479  0.00  0.00    +0.000 HD
ENDBRANCH   6  24
BRANCH   8  26
ATOM     26  O   UNL     1     -21.949   4.302  52.721  0.00  0.00    +0.000 OA
ATOM     27  H   UNL     1     -22.338   5.088  53.133  0.00  0.00    +0.000 HD
ENDBRANCH   8  26
BRANCH  10  28
ATOM     28  O   UNL     1     -19.015   2.573  56.031  0.00  0.00    +0.000 OA
ATOM     29  H   UNL     1     -18.978   1.853  56.683  0.00  0.00    +0.000 HD
ENDBRANCH  10  28
TORSDOF 7
ENDMDL
MODEL 3
REMARK VINA RESULT:    -6.469      2.390      4.550
REMARK INTER + INTRA:          -8.327
REMARK INTER:                  -8.007
REMARK INTRA:                  -0.320
REMARK UNBOUND:                -0.346
REMARK  Name = 5281672
REMARK  7 active torsions:
REMARK  status: ('A' for Active; 'I' for Inactive)
REMARK    1  A    between atoms: O_2  and  C_13
REMARK    2  A    between atoms: O_3  and  C_15
REMARK    3  A    between atoms: O_5  and  C_19
REMARK    4  A    between atoms: O_6  and  C_21
REMARK    5  A    between atoms: O_7  and  C_22
REMARK    6  A    between atoms: O_8  and  C_23
REMARK    7  A    between atoms: C_10  and  C_12
REMARK                            x       y       z     vdW  Elec       q    Type
REMARK                         _______ _______ _______ _____ _____    ______ ____
ROOT
ATOM      1  O   UNL     1     -24.907  -1.957  53.870  0.00  0.00    +0.000 OA
ATOM      2  O   UNL     1     -25.131  -0.429  57.641  0.00  0.00    +0.000 OA
ATOM      3  C   UNL     1     -24.676  -0.053  55.358  0.00  0.00    +0.000 A 
ATOM      4  C   UNL     1     -25.288  -2.742  54.948  0.00  0.00    +0.000 A 
ATOM      5  C   UNL     1     -24.616  -0.636  54.094  0.00  0.00    +0.000 A 
ATOM      6  C   UNL     1     -25.376  -2.305  56.217  0.00  0.00    +0.000 A 
ATOM      7  C   UNL     1     -25.066  -0.883  56.508  0.00  0.00    +0.000 A 
ATOM      8  C   UNL     1     -24.367   1.299  55.526  0.00  0.00    +0.000 A 
ATOM      9  C   UNL     1     -24.246   0.130  52.989  0.00  0.00    +0.000 A 
ATOM     10  C   UNL     1     -23.936   1.480  53.153  0.00  0.00    +0.000 A 
ATOM     11  C   UNL     1     -23.997   2.063  54.419  0.00  0.00    +0.000 A 
ENDROOT
BRANCH   4  12
ATOM     12  C   UNL     1     -25.571  -4.138  54.569  0.00  0.00    +0.000 A 
ATOM     13  C   UNL     1     -26.890  -4.584  54.484  0.00  0.00    +0.000 A 
ATOM     14  C   UNL     1     -24.521  -5.014  54.296  0.00  0.00    +0.000 A 
ATOM     15  C   UNL     1     -24.789  -6.335  53.937  0.00  0.00    +0.000 A 
ATOM     16  C   UNL     1     -27.159  -5.905  54.124  0.00  0.00    +0.000 A 
ATOM     17  C   UNL     1     -26.108  -6.780  53.850  0.00  0.00    +0.000 A 
BRANCH  15  18
ATOM     18  O   UNL     1     -23.754  -7.180  53.670  0.00  0.00    +0.000 OA
ATOM     19  H   UNL     1     -23.805  -7.441  52.735  0.00  0.00    +0.000 HD
ENDBRANCH  15  18
BRANCH  16  20
ATOM     20  O   UNL     1     -28.452  -6.326  54.044  0.00  0.00    +0.000 OA
ATOM     21  H   UNL     1     -29.020  -5.587  53.772  0.00  0.00    +0.000 HD
ENDBRANCH  16  20
BRANCH  17  22
ATOM     22  O   UNL     1     -26.370  -8.071  53.497  0.00  0.00    +0.000 OA
ATOM     23  H   UNL     1     -25.554  -8.594  53.542  0.00  0.00    +0.000 HD
ENDBRANCH  17  22
ENDBRANCH   4  12
BRANCH   6  24
ATOM     24  O   UNL     1     -25.727  -3.120  57.271  0.00  0.00    +0.000 OA
ATOM     25  H   UNL     1     -26.487  -3.671  57.024  0.00  0.00    +0.000 HD
ENDBRANCH   6  24
BRANCH   8  26
ATOM     26  O   UNL     1     -24.409   1.917  56.740  0.00  0.00    +0.000 OA
ATOM     27  H   UNL     1     -25.205   1.656  57.227  0.00  0.00    +0.000 HD
ENDBRANCH   8  26
BRANCH  10  28
ATOM     28  O   UNL     1     -23.576   2.231  52.075  0.00  0.00    +0.000 OA
ATOM     29  H   UNL     1     -22.606   2.221  51.995  0.00  0.00    +0.000 HD
ENDBRANCH  10  28
TORSDOF 7
ENDMDL
MODEL 4
REMARK VINA RESULT:    -6.338      1.201      2.812
REMARK INTER + INTRA:          -8.166
REMARK INTER:                  -7.799
REMARK INTRA:                  -0.368
REMARK UNBOUND:                -0.346
REMARK  Name = 5281672
REMARK  7 active torsions:
REMARK  status: ('A' for Active; 'I' for Inactive)
REMARK    1  A    between atoms: O_2  and  C_13
REMARK    2  A    between atoms: O_3  and  C_15
REMARK    3  A    between atoms: O_5  and  C_19
REMARK    4  A    between atoms: O_6  and  C_21
REMARK    5  A    between atoms: O_7  and  C_22
REMARK    6  A    between atoms: O_8  and  C_23
REMARK    7  A    between atoms: C_10  and  C_12
REMARK                            x       y       z     vdW  Elec       q    Type
REMARK                         _______ _______ _______ _____ _____    ______ ____
ROOT
ATOM      1  O   UNL     1     -23.869   1.122  54.614  0.00  0.00    +0.000 OA
ATOM      2  O   UNL     1     -20.142   0.816  56.234  0.00  0.00    +0.000 OA
ATOM      3  C   UNL     1     -21.672   2.092  54.971  0.00  0.00    +0.000 A 
ATOM      4  C   UNL     1     -23.491   0.014  55.357  0.00  0.00    +0.000 A 
ATOM      5  C   UNL     1     -22.960   2.134  54.441  0.00  0.00    +0.000 A 
ATOM      6  C   UNL     1     -22.278  -0.154  55.913  0.00  0.00    +0.000 A 
ATOM      7  C   UNL     1     -21.261   0.913  55.749  0.00  0.00    +0.000 A 
ATOM      8  C   UNL     1     -20.788   3.153  54.762  0.00  0.00    +0.000 A 
ATOM      9  C   UNL     1     -23.372   3.240  53.698  0.00  0.00    +0.000 A 
ATOM     10  C   UNL     1     -22.492   4.302  53.487  0.00  0.00    +0.000 A 
ATOM     11  C   UNL     1     -21.203   4.258  54.018  0.00  0.00    +0.000 A 
ENDROOT
BRANCH   4  12
ATOM     12  C   UNL     1     -24.559  -0.996  55.464  0.00  0.00    +0.000 A 
ATOM     13  C   UNL     1     -24.641  -2.026  54.528  0.00  0.00    +0.000 A 
ATOM     14  C   UNL     1     -25.488  -0.922  56.502  0.00  0.00    +0.000 A 
ATOM     15  C   UNL     1     -26.498  -1.879  56.603  0.00  0.00    +0.000 A 
ATOM     16  C   UNL     1     -25.650  -2.984  54.629  0.00  0.00    +0.000 A 
ATOM     17  C   UNL     1     -26.579  -2.910  55.667  0.00  0.00    +0.000 A 
BRANCH  15  18
ATOM     18  O   UNL     1     -27.399  -1.797  57.622  0.00  0.00    +0.000 OA
ATOM     19  H   UNL     1     -27.709  -0.877  57.683  0.00  0.00    +0.000 HD
ENDBRANCH  15  18
BRANCH  16  20
ATOM     20  O   UNL     1     -25.718  -3.984  53.707  0.00  0.00    +0.000 OA
ATOM     21  H   UNL     1     -25.002  -4.621  53.864  0.00  0.00    +0.000 HD
ENDBRANCH  16  20
BRANCH  17  22
ATOM     22  O   UNL     1     -27.566  -3.846  55.766  0.00  0.00    +0.000 OA
ATOM     23  H   UNL     1     -28.383  -3.428  56.080  0.00  0.00    +0.000 HD
ENDBRANCH  17  22
ENDBRANCH   4  12
BRANCH   6  24
ATOM     24  O   UNL     1     -21.925  -1.283  56.620  0.00  0.00    +0.000 OA
ATOM     25  H   UNL     1     -22.712  -1.820  56.799  0.00  0.00    +0.000 HD
ENDBRANCH   6  24
BRANCH   8  26
ATOM     26  O   UNL     1     -19.518   3.161  55.257  0.00  0.00    +0.000 OA
ATOM     27  H   UNL     1     -19.053   3.965  54.985  0.00  0.00    +0.000 HD
ENDBRANCH   8  26
BRANCH  10  28
ATOM     28  O   UNL     1     -22.893   5.383  52.762  0.00  0.00    +0.000 OA
ATOM     29  H   UNL     1     -22.230   6.088  52.856  0.00  0.00    +0.000 HD
ENDBRANCH  10  28
TORSDOF 7
ENDMDL
MODEL 5
REMARK VINA RESULT:    -6.219     18.536     19.947
REMARK INTER + INTRA:          -8.019
REMARK INTER:                  -8.061
REMARK INTRA:                   0.041
REMARK UNBOUND:                -0.346
REMARK  Name = 5281672
REMARK  7 active torsions:
REMARK  status: ('A' for Active; 'I' for Inactive)
REMARK    1  A    between atoms: O_2  and  C_13
REMARK    2  A    between atoms: O_3  and  C_15
REMARK    3  A    between atoms: O_5  and  C_19
REMARK    4  A    between atoms: O_6  and  C_21
REMARK    5  A    between atoms: O_7  and  C_22
REMARK    6  A    between atoms: O_8  and  C_23
REMARK    7  A    between atoms: C_10  and  C_12
REMARK                            x       y       z     vdW  Elec       q    Type
REMARK                         _______ _______ _______ _____ _____    ______ ____
ROOT
ATOM      1  O   UNL     1     -35.029  15.105  56.995  0.00  0.00    +0.000 OA
ATOM      2  O   UNL     1     -36.096  18.590  55.173  0.00  0.00    +0.000 OA
ATOM      3  C   UNL     1     -35.042  16.487  55.000  0.00  0.00    +0.000 A 
ATOM      4  C   UNL     1     -35.734  16.089  57.672  0.00  0.00    +0.000 A 
ATOM      5  C   UNL     1     -34.705  15.320  55.681  0.00  0.00    +0.000 A 
ATOM      6  C   UNL     1     -36.111  17.263  57.134  0.00  0.00    +0.000 A 
ATOM      7  C   UNL     1     -35.778  17.542  55.715  0.00  0.00    +0.000 A 
ATOM      8  C   UNL     1     -34.684  16.651  53.660  0.00  0.00    +0.000 A 
ATOM      9  C   UNL     1     -34.006  14.307  55.024  0.00  0.00    +0.000 A 
ATOM     10  C   UNL     1     -33.646  14.467  53.686  0.00  0.00    +0.000 A 
ATOM     11  C   UNL     1     -33.984  15.637  53.006  0.00  0.00    +0.000 A 
ENDROOT
BRANCH   4  12
ATOM     12  C   UNL     1     -36.017  15.732  59.073  0.00  0.00    +0.000 A 
ATOM     13  C   UNL     1     -36.504  14.463  59.385  0.00  0.00    +0.000 A 
ATOM     14  C   UNL     1     -35.798  16.663  60.089  0.00  0.00    +0.000 A 
ATOM     15  C   UNL     1     -36.065  16.324  61.415  0.00  0.00    +0.000 A 
ATOM     16  C   UNL     1     -36.770  14.123  60.711  0.00  0.00    +0.000 A 
ATOM     17  C   UNL     1     -36.551  15.054  61.727  0.00  0.00    +0.000 A 
BRANCH  15  18
ATOM     18  O   UNL     1     -35.846  17.241  62.399  0.00  0.00    +0.000 OA
ATOM     19  H   UNL     1     -35.919  18.130  62.010  0.00  0.00    +0.000 HD
ENDBRANCH  15  18
BRANCH  16  20
ATOM     20  O   UNL     1     -37.245  12.879  61.001  0.00  0.00    +0.000 OA
ATOM     21  H   UNL     1     -38.197  12.842  60.814  0.00  0.00    +0.000 HD
ENDBRANCH  16  20
BRANCH  17  22
ATOM     22  O   UNL     1     -36.811  14.722  63.024  0.00  0.00    +0.000 OA
ATOM     23  H   UNL     1     -36.742  15.512  63.583  0.00  0.00    +0.000 HD
ENDBRANCH  17  22
ENDBRANCH   4  12
BRANCH   6  24
ATOM     24  O   UNL     1     -36.783  18.234  57.844  0.00  0.00    +0.000 OA
ATOM     25  H   UNL     1     -36.258  18.503  58.614  0.00  0.00    +0.000 HD
ENDBRANCH   6  24
BRANCH   8  26
ATOM     26  O   UNL     1     -34.989  17.773  52.949  0.00  0.00    +0.000 OA
ATOM     27  H   UNL     1     -35.401  17.539  52.105  0.00  0.00    +0.000 HD
ENDBRANCH   8  26
BRANCH  10  28
ATOM     28  O   UNL     1     -32.964  13.479  53.043  0.00  0.00    +0.000 OA
ATOM     29  H   UNL     1     -33.598  12.811  52.730  0.00  0.00    +0.000 HD
ENDBRANCH  10  28
TORSDOF 7
ENDMDL
MODEL 6
REMARK VINA RESULT:    -6.132      5.369      7.337
REMARK INTER + INTRA:          -7.912
REMARK INTER:                  -8.219
REMARK INTRA:                   0.307
REMARK UNBOUND:                -0.346
REMARK  Name = 5281672
REMARK  7 active torsions:
REMARK  status: ('A' for Active; 'I' for Inactive)
REMARK    1  A    between atoms: O_2  and  C_13
REMARK    2  A    between atoms: O_3  and  C_15
REMARK    3  A    between atoms: O_5  and  C_19
REMARK    4  A    between atoms: O_6  and  C_21
REMARK    5  A    between atoms: O_7  and  C_22
REMARK    6  A    between atoms: O_8  and  C_23
REMARK    7  A    between atoms: C_10  and  C_12
REMARK                            x       y       z     vdW  Elec       q    Type
REMARK                         _______ _______ _______ _____ _____    ______ ____
ROOT
ATOM      1  O   UNL     1     -26.647  -5.446  57.717  0.00  0.00    +0.000 OA
ATOM      2  O   UNL     1     -25.860  -1.609  56.591  0.00  0.00    +0.000 OA
ATOM      3  C   UNL     1     -25.941  -3.205  58.327  0.00  0.00    +0.000 A 
ATOM      4  C   UNL     1     -26.777  -5.037  56.399  0.00  0.00    +0.000 A 
ATOM      5  C   UNL     1     -26.228  -4.529  58.647  0.00  0.00    +0.000 A 
ATOM      6  C   UNL     1     -26.541  -3.787  55.961  0.00  0.00    +0.000 A 
ATOM      7  C   UNL     1     -26.092  -2.761  56.932  0.00  0.00    +0.000 A 
ATOM      8  C   UNL     1     -25.520  -2.314  59.317  0.00  0.00    +0.000 A 
ATOM      9  C   UNL     1     -26.096  -4.973  59.963  0.00  0.00    +0.000 A 
ATOM     10  C   UNL     1     -25.676  -4.087  60.955  0.00  0.00    +0.000 A 
ATOM     11  C   UNL     1     -25.388  -2.760  60.632  0.00  0.00    +0.000 A 
ENDROOT
BRANCH   4  12
ATOM     12  C   UNL     1     -27.233  -6.117  55.506  0.00  0.00    +0.000 A 
ATOM     13  C   UNL     1     -26.972  -6.048  54.137  0.00  0.00    +0.000 A 
ATOM     14  C   UNL     1     -27.924  -7.210  56.028  0.00  0.00    +0.000 A 
ATOM     15  C   UNL     1     -28.354  -8.233  55.183  0.00  0.00    +0.000 A 
ATOM     16  C   UNL     1     -27.401  -7.071  53.292  0.00  0.00    +0.000 A 
ATOM     17  C   UNL     1     -28.092  -8.164  53.815  0.00  0.00    +0.000 A 
BRANCH  15  18
ATOM     18  O   UNL     1     -29.028  -9.296  55.706  0.00  0.00    +0.000 OA
ATOM     19  H   UNL     1     -28.378  -9.967  55.975  0.00  0.00    +0.000 HD
ENDBRANCH  15  18
BRANCH  16  20
ATOM     20  O   UNL     1     -27.139  -6.990  51.957  0.00  0.00    +0.000 OA
ATOM     21  H   UNL     1     -27.187  -7.875  51.561  0.00  0.00    +0.000 HD
ENDBRANCH  16  20
BRANCH  17  22
ATOM     22  O   UNL     1     -28.511  -9.164  52.988  0.00  0.00    +0.000 OA
ATOM     23  H   UNL     1     -29.368  -8.928  52.598  0.00  0.00    +0.000 HD
ENDBRANCH  17  22
ENDBRANCH   4  12
BRANCH   6  24
ATOM     24  O   UNL     1     -26.713  -3.406  54.647  0.00  0.00    +0.000 OA
ATOM     25  H   UNL     1     -27.313  -2.646  54.600  0.00  0.00    +0.000 HD
ENDBRANCH   6  24
BRANCH   8  26
ATOM     26  O   UNL     1     -25.228  -1.009  59.057  0.00  0.00    +0.000 OA
ATOM     27  H   UNL     1     -24.770  -0.926  58.207  0.00  0.00    +0.000 HD
ENDBRANCH   8  26
BRANCH  10  28
ATOM     28  O   UNL     1     -25.545  -4.518  62.240  0.00  0.00    +0.000 OA
ATOM     29  H   UNL     1     -25.111  -5.389  62.237  0.00  0.00    +0.000 HD
ENDBRANCH  10  28
TORSDOF 7
ENDMDL
MODEL 7
REMARK VINA RESULT:    -6.096     14.823     16.830
REMARK INTER + INTRA:          -7.868
REMARK INTER:                  -7.543
REMARK INTRA:                  -0.324
REMARK UNBOUND:                -0.346
REMARK  Name = 5281672
REMARK  7 active torsions:
REMARK  status: ('A' for Active; 'I' for Inactive)
REMARK    1  A    between atoms: O_2  and  C_13
REMARK    2  A    between atoms: O_3  and  C_15
REMARK    3  A    between atoms: O_5  and  C_19
REMARK    4  A    between atoms: O_6  and  C_21
REMARK    5  A    between atoms: O_7  and  C_22
REMARK    6  A    between atoms: O_8  and  C_23
REMARK    7  A    between atoms: C_10  and  C_12
REMARK                            x       y       z     vdW  Elec       q    Type
REMARK                         _______ _______ _______ _____ _____    ______ ____
ROOT
ATOM      1  O   UNL     1     -38.811   5.201  61.790  0.00  0.00    +0.000 OA
ATOM      2  O   UNL     1     -36.331   5.951  58.644  0.00  0.00    +0.000 OA
ATOM      3  C   UNL     1     -38.407   6.350  59.690  0.00  0.00    +0.000 A 
ATOM      4  C   UNL     1     -37.552   4.625  61.707  0.00  0.00    +0.000 A 
ATOM      5  C   UNL     1     -39.208   6.051  60.790  0.00  0.00    +0.000 A 
ATOM      6  C   UNL     1     -36.688   4.823  60.696  0.00  0.00    +0.000 A 
ATOM      7  C   UNL     1     -37.076   5.731  59.589  0.00  0.00    +0.000 A 
ATOM      8  C   UNL     1     -38.864   7.223  58.700  0.00  0.00    +0.000 A 
ATOM      9  C   UNL     1     -40.474   6.624  60.907  0.00  0.00    +0.000 A 
ATOM     10  C   UNL     1     -40.935   7.496  59.921  0.00  0.00    +0.000 A 
ATOM     11  C   UNL     1     -40.131   7.795  58.820  0.00  0.00    +0.000 A 
ENDROOT
BRANCH   4  12
ATOM     12  C   UNL     1     -37.253   3.735  62.843  0.00  0.00    +0.000 A 
ATOM     13  C   UNL     1     -37.826   2.465  62.905  0.00  0.00    +0.000 A 
ATOM     14  C   UNL     1     -36.396   4.163  63.858  0.00  0.00    +0.000 A 
ATOM     15  C   UNL     1     -36.112   3.320  64.932  0.00  0.00    +0.000 A 
ATOM     16  C   UNL     1     -37.541   1.622  63.979  0.00  0.00    +0.000 A 
ATOM     17  C   UNL     1     -36.684   2.049  64.993  0.00  0.00    +0.000 A 
BRANCH  15  18
ATOM     18  O   UNL     1     -35.272   3.749  65.916  0.00  0.00    +0.000 OA
ATOM     19  H   UNL     1     -35.756   3.730  66.760  0.00  0.00    +0.000 HD
ENDBRANCH  15  18
BRANCH  16  20
ATOM     20  O   UNL     1     -38.108   0.384  64.026  0.00  0.00    +0.000 OA
ATOM     21  H   UNL     1     -38.012   0.014  64.919  0.00  0.00    +0.000 HD
ENDBRANCH  16  20
BRANCH  17  22
ATOM     22  O   UNL     1     -36.406   1.225  66.043  0.00  0.00    +0.000 OA
ATOM     23  H   UNL     1     -37.230   0.849  66.390  0.00  0.00    +0.000 HD
ENDBRANCH  17  22
ENDBRANCH   4  12
BRANCH   6  24
ATOM     24  O   UNL     1     -35.456   4.208  60.628  0.00  0.00    +0.000 OA
ATOM     25  H   UNL     1     -34.979   4.331  61.464  0.00  0.00    +0.000 HD
ENDBRANCH   6  24
BRANCH   8  26
ATOM     26  O   UNL     1     -38.122   7.548  57.605  0.00  0.00    +0.000 OA
ATOM     27  H   UNL     1     -38.668   8.000  56.946  0.00  0.00    +0.000 HD
ENDBRANCH   8  26
BRANCH  10  28
ATOM     28  O   UNL     1     -42.171   8.057  60.033  0.00  0.00    +0.000 OA
ATOM     29  H   UNL     1     -42.138   8.757  60.708  0.00  0.00    +0.000 HD
ENDBRANCH  10  28
TORSDOF 7
ENDMDL
MODEL 8
REMARK VINA RESULT:    -6.051      2.638      8.228
REMARK INTER + INTRA:          -7.811
REMARK INTER:                  -7.452
REMARK INTRA:                  -0.360
REMARK UNBOUND:                -0.346
REMARK  Name = 5281672
REMARK  7 active torsions:
REMARK  status: ('A' for Active; 'I' for Inactive)
REMARK    1  A    between atoms: O_2  and  C_13
REMARK    2  A    between atoms: O_3  and  C_15
REMARK    3  A    between atoms: O_5  and  C_19
REMARK    4  A    between atoms: O_6  and  C_21
REMARK    5  A    between atoms: O_7  and  C_22
REMARK    6  A    between atoms: O_8  and  C_23
REMARK    7  A    between atoms: C_10  and  C_12
REMARK                            x       y       z     vdW  Elec       q    Type
REMARK                         _______ _______ _______ _____ _____    ______ ____
ROOT
ATOM      1  O   UNL     1     -26.139  -3.996  54.051  0.00  0.00    +0.000 OA
ATOM      2  O   UNL     1     -26.524  -4.490  58.078  0.00  0.00    +0.000 OA
ATOM      3  C   UNL     1     -26.898  -5.353  55.915  0.00  0.00    +0.000 A 
ATOM      4  C   UNL     1     -25.662  -3.049  54.945  0.00  0.00    +0.000 A 
ATOM      5  C   UNL     1     -26.738  -5.124  54.550  0.00  0.00    +0.000 A 
ATOM      6  C   UNL     1     -25.762  -3.146  56.283  0.00  0.00    +0.000 A 
ATOM      7  C   UNL     1     -26.407  -4.346  56.869  0.00  0.00    +0.000 A 
ATOM      8  C   UNL     1     -27.517  -6.521  56.366  0.00  0.00    +0.000 A 
ATOM      9  C   UNL     1     -27.197  -6.062  53.627  0.00  0.00    +0.000 A 
ATOM     10  C   UNL     1     -27.816  -7.230  54.073  0.00  0.00    +0.000 A 
ATOM     11  C   UNL     1     -27.976  -7.458  55.440  0.00  0.00    +0.000 A 
ENDROOT
BRANCH   4  12
ATOM     12  C   UNL     1     -25.043  -1.890  54.278  0.00  0.00    +0.000 A 
ATOM     13  C   UNL     1     -23.660  -1.837  54.112  0.00  0.00    +0.000 A 
ATOM     14  C   UNL     1     -25.841  -0.845  53.812  0.00  0.00    +0.000 A 
ATOM     15  C   UNL     1     -25.255   0.251  53.180  0.00  0.00    +0.000 A 
ATOM     16  C   UNL     1     -23.073  -0.741  53.479  0.00  0.00    +0.000 A 
ATOM     17  C   UNL     1     -23.871   0.304  53.013  0.00  0.00    +0.000 A 
BRANCH  15  18
ATOM     18  O   UNL     1     -26.045   1.266  52.728  0.00  0.00    +0.000 OA
ATOM     19  H   UNL     1     -25.492   2.057  52.614  0.00  0.00    +0.000 HD
ENDBRANCH  15  18
BRANCH  16  20
ATOM     20  O   UNL     1     -21.720  -0.703  53.324  0.00  0.00    +0.000 OA
ATOM     21  H   UNL     1     -21.289  -0.869  54.178  0.00  0.00    +0.000 HD
ENDBRANCH  16  20
BRANCH  17  22
ATOM     22  O   UNL     1     -23.298   1.375  52.394  0.00  0.00    +0.000 OA
ATOM     23  H   UNL     1     -23.989   1.986  52.092  0.00  0.00    +0.000 HD
ENDBRANCH  17  22
ENDBRANCH   4  12
BRANCH   6  24
ATOM     24  O   UNL     1     -25.306  -2.170  57.144  0.00  0.00    +0.000 OA
ATOM     25  H   UNL     1     -24.583  -1.675  56.728  0.00  0.00    +0.000 HD
ENDBRANCH   6  24
BRANCH   8  26
ATOM     26  O   UNL     1     -27.699  -6.793  57.689  0.00  0.00    +0.000 OA
ATOM     27  H   UNL     1     -26.899  -7.184  58.069  0.00  0.00    +0.000 HD
ENDBRANCH   8  26
BRANCH  10  28
ATOM     28  O   UNL     1     -28.265  -8.148  53.172  0.00  0.00    +0.000 OA
ATOM     29  H   UNL     1     -28.180  -7.778  52.277  0.00  0.00    +0.000 HD
ENDBRANCH  10  28
TORSDOF 7
ENDMDL
MODEL 9
REMARK VINA RESULT:    -6.013      2.173      3.376
REMARK INTER + INTRA:          -7.765
REMARK INTER:                  -7.479
REMARK INTRA:                  -0.285
REMARK UNBOUND:                -0.346
REMARK  Name = 5281672
REMARK  7 active torsions:
REMARK  status: ('A' for Active; 'I' for Inactive)
REMARK    1  A    between atoms: O_2  and  C_13
REMARK    2  A    between atoms: O_3  and  C_15
REMARK    3  A    between atoms: O_5  and  C_19
REMARK    4  A    between atoms: O_6  and  C_21
REMARK    5  A    between atoms: O_7  and  C_22
REMARK    6  A    between atoms: O_8  and  C_23
REMARK    7  A    between atoms: C_10  and  C_12
REMARK                            x       y       z     vdW  Elec       q    Type
REMARK                         _______ _______ _______ _____ _____    ______ ____
ROOT
ATOM      1  O   UNL     1     -24.479  -1.269  54.143  0.00  0.00    +0.000 OA
ATOM      2  O   UNL     1     -24.332   1.789  56.834  0.00  0.00    +0.000 OA
ATOM      3  C   UNL     1     -23.849   1.019  54.657  0.00  0.00    +0.000 A 
ATOM      4  C   UNL     1     -24.991  -1.406  55.425  0.00  0.00    +0.000 A 
ATOM      5  C   UNL     1     -23.928  -0.065  53.786  0.00  0.00    +0.000 A 
ATOM      6  C   UNL     1     -24.969  -0.442  56.363  0.00  0.00    +0.000 A 
ATOM      7  C   UNL     1     -24.378   0.875  56.023  0.00  0.00    +0.000 A 
ATOM      8  C   UNL     1     -23.275   2.221  54.238  0.00  0.00    +0.000 A 
ATOM      9  C   UNL     1     -23.431   0.046  52.488  0.00  0.00    +0.000 A 
ATOM     10  C   UNL     1     -22.856   1.245  52.065  0.00  0.00    +0.000 A 
ATOM     11  C   UNL     1     -22.779   2.330  52.938  0.00  0.00    +0.000 A 
ENDROOT
BRANCH   4  12
ATOM     12  C   UNL     1     -25.553  -2.745  55.677  0.00  0.00    +0.000 A 
ATOM     13  C   UNL     1     -24.865  -3.649  56.487  0.00  0.00    +0.000 A 
ATOM     14  C   UNL     1     -26.773  -3.110  55.107  0.00  0.00    +0.000 A 
ATOM     15  C   UNL     1     -27.304  -4.377  55.347  0.00  0.00    +0.000 A 
ATOM     16  C   UNL     1     -25.397  -4.916  56.728  0.00  0.00    +0.000 A 
ATOM     17  C   UNL     1     -26.617  -5.280  56.157  0.00  0.00    +0.000 A 
BRANCH  15  18
ATOM     18  O   UNL     1     -28.497  -4.721  54.785  0.00  0.00    +0.000 OA
ATOM     19  H   UNL     1     -29.039  -3.917  54.701  0.00  0.00    +0.000 HD
ENDBRANCH  15  18
BRANCH  16  20
ATOM     20  O   UNL     1     -24.714  -5.788  57.521  0.00  0.00    +0.000 OA
ATOM     21  H   UNL     1     -25.049  -6.689  57.380  0.00  0.00    +0.000 HD
ENDBRANCH  16  20
BRANCH  17  22
ATOM     22  O   UNL     1     -27.137  -6.518  56.393  0.00  0.00    +0.000 OA
ATOM     23  H   UNL     1     -27.337  -6.614  57.338  0.00  0.00    +0.000 HD
ENDBRANCH  17  22
ENDBRANCH   4  12
BRANCH   6  24
ATOM     24  O   UNL     1     -25.458  -0.623  57.638  0.00  0.00    +0.000 OA
ATOM     25  H   UNL     1     -24.835  -1.155  58.158  0.00  0.00    +0.000 HD
ENDBRANCH   6  24
BRANCH   8  26
ATOM     26  O   UNL     1     -23.173   3.310  55.050  0.00  0.00    +0.000 OA
ATOM     27  H   UNL     1     -23.142   3.039  55.980  0.00  0.00    +0.000 HD
ENDBRANCH   8  26
BRANCH  10  28
ATOM     28  O   UNL     1     -22.372   1.356  50.797  0.00  0.00    +0.000 OA
ATOM     29  H   UNL     1     -21.510   1.806  50.828  0.00  0.00    +0.000 HD
ENDBRANCH  10  28
TORSDOF 7
ENDMDL
MODEL 10
REMARK VINA RESULT:    -5.983      2.584      7.543
REMARK INTER + INTRA:          -7.727
REMARK INTER:                  -7.382
REMARK INTRA:                  -0.346
REMARK UNBOUND:                -0.346
REMARK  Name = 5281672
REMARK  7 active torsions:
REMARK  status: ('A' for Active; 'I' for Inactive)
REMARK    1  A    between atoms: O_2  and  C_13
REMARK    2  A    between atoms: O_3  and  C_15
REMARK    3  A    between atoms: O_5  and  C_19
REMARK    4  A    between atoms: O_6  and  C_21
REMARK    5  A    between atoms: O_7  and  C_22
REMARK    6  A    between atoms: O_8  and  C_23
REMARK    7  A    between atoms: C_10  and  C_12
REMARK                            x       y       z     vdW  Elec       q    Type
REMARK                         _______ _______ _______ _____ _____    ______ ____
ROOT
ATOM      1  O   UNL     1     -24.591  -3.222  56.110  0.00  0.00    +0.000 OA
ATOM      2  O   UNL     1     -28.383  -4.509  55.356  0.00  0.00    +0.000 OA
ATOM      3  C   UNL     1     -26.251  -4.988  56.244  0.00  0.00    +0.000 A 
ATOM      4  C   UNL     1     -25.527  -2.399  55.503  0.00  0.00    +0.000 A 
ATOM      5  C   UNL     1     -24.971  -4.489  56.472  0.00  0.00    +0.000 A 
ATOM      6  C   UNL     1     -26.791  -2.761  55.219  0.00  0.00    +0.000 A 
ATOM      7  C   UNL     1     -27.245  -4.125  55.587  0.00  0.00    +0.000 A 
ATOM      8  C   UNL     1     -26.582  -6.288  56.633  0.00  0.00    +0.000 A 
ATOM      9  C   UNL     1     -24.010  -5.289  57.091  0.00  0.00    +0.000 A 
ATOM     10  C   UNL     1     -24.336  -6.588  57.481  0.00  0.00    +0.000 A 
ATOM     11  C   UNL     1     -25.619  -7.086  57.252  0.00  0.00    +0.000 A 
ENDROOT
BRANCH   4  12
ATOM     12  C   UNL     1     -24.989  -1.069  55.167  0.00  0.00    +0.000 A 
ATOM     13  C   UNL     1     -24.935  -0.072  56.141  0.00  0.00    +0.000 A 
ATOM     14  C   UNL     1     -24.533  -0.806  53.875  0.00  0.00    +0.000 A 
ATOM     15  C   UNL     1     -24.023   0.453  53.559  0.00  0.00    +0.000 A 
ATOM     16  C   UNL     1     -24.424   1.187  55.825  0.00  0.00    +0.000 A 
ATOM     17  C   UNL     1     -23.968   1.450  54.533  0.00  0.00    +0.000 A 
BRANCH  15  18
ATOM     18  O   UNL     1     -23.580   0.698  52.293  0.00  0.00    +0.000 OA
ATOM     19  H   UNL     1     -23.376   1.646  52.218  0.00  0.00    +0.000 HD
ENDBRANCH  15  18
BRANCH  16  20
ATOM     20  O   UNL     1     -24.378   2.151  56.786  0.00  0.00    +0.000 OA
ATOM     21  H   UNL     1     -25.153   2.731  56.705  0.00  0.00    +0.000 HD
ENDBRANCH  16  20
BRANCH  17  22
ATOM     22  O   UNL     1     -23.469   2.680  54.224  0.00  0.00    +0.000 OA
ATOM     23  H   UNL     1     -23.118   3.101  55.025  0.00  0.00    +0.000 HD
ENDBRANCH  17  22
ENDBRANCH   4  12
BRANCH   6  24
ATOM     24  O   UNL     1     -27.687  -1.929  54.584  0.00  0.00    +0.000 OA
ATOM     25  H   UNL     1     -28.464  -1.789  55.147  0.00  0.00    +0.000 HD
ENDBRANCH   6  24
BRANCH   8  26
ATOM     26  O   UNL     1     -27.818  -6.824  56.433  0.00  0.00    +0.000 OA
ATOM     27  H   UNL     1     -27.756  -7.637  55.911  0.00  0.00    +0.000 HD
ENDBRANCH   8  26
BRANCH  10  28
ATOM     28  O   UNL     1     -23.400  -7.371  58.086  0.00  0.00    +0.000 OA
ATOM     29  H   UNL     1     -22.551  -6.896  58.096  0.00  0.00    +0.000 HD
ENDBRANCH  10  28
TORSDOF 7
ENDMDL
