MODEL 1
REMARK VINA RESULT:      -8.9      0.000      0.000
REMARK  16 active torsions:
REMARK  status: ('A' for Active; 'I' for Inactive)
REMARK    1  A    between atoms: C_2  and  O_12 
REMARK    2  A    between atoms: C_3  and  O_10 
REMARK    3  A    between atoms: C_4  and  O_8 
REMARK    4  A    between atoms: C_5  and  O_6 
REMARK    5  A    between atoms: C_38  and  C_39 
REMARK    6  A    between atoms: O_12  and  C_13 
REMARK    7  A    between atoms: C_16  and  O_22 
REMARK    8  A    between atoms: C_18  and  O_20 
REMARK    9  A    between atoms: C_27  and  C_28 
REMARK   10  A    between atoms: C_31  and  O_35 
REMARK   11  A    between atoms: C_32  and  O_33 
REMARK   12  A    between atoms: C_39  and  O_40 
REMARK   13  A    between atoms: O_40  and  C_41 
REMARK   14  A    between atoms: C_42  and  O_51 
REMARK   15  A    between atoms: C_43  and  O_49 
REMARK   16  A    between atoms: C_44  and  O_47 
ROOT
ATOM      1  O   LIG     1     -26.851   7.732   2.190  0.00  0.00    -0.331 OA
ATOM      2  C   LIG     1     -27.275   8.559   3.271  0.00  0.00     0.340 C 
ATOM      3  C   LIG     1     -26.553   9.906   3.232  0.00  0.00     0.214 C 
ATOM      4  C   LIG     1     -26.714  10.583   1.871  0.00  0.00     0.180 C 
ATOM      5  C   LIG     1     -26.403   9.614   0.730  0.00  0.00     0.177 C 
ATOM      6  C   LIG     1     -27.160   8.297   0.914  0.00  0.00     0.179 C 
ENDROOT
BRANCH   2   7
ATOM      7  O   LIG     1     -26.962   7.928   4.512  0.00  0.00    -0.453 OA
BRANCH   7   8
ATOM      8  C   LIG     1     -27.673   6.761   4.681  0.00  0.00     0.214 A 
ATOM      9  C   LIG     1     -29.013   6.693   4.569  0.00  0.00     0.181 A 
ATOM     10  O   LIG     1     -29.761   5.543   4.765  0.00  0.00    -0.451 OA
ATOM     11  C   LIG     1     -29.105   4.381   5.077  0.00  0.00     0.147 A 
ATOM     12  C   LIG     1     -29.885   3.238   5.258  0.00  0.00     0.092 A 
ATOM     13  C   LIG     1     -27.721   4.309   5.215  0.00  0.00     0.109 A 
ATOM     14  C   LIG     1     -29.274   2.025   5.577  0.00  0.00     0.124 A 
ATOM     15  C   LIG     1     -27.888   1.954   5.716  0.00  0.00     0.091 A 
ATOM     16  C   LIG     1     -27.105   3.095   5.535  0.00  0.00     0.135 A 
ATOM     17  C   LIG     1     -26.922   5.528   5.021  0.00  0.00     0.238 A 
ATOM     18  O   LIG     1     -25.703   5.527   5.135  0.00  0.00    -0.283 OA
BRANCH   9  19
ATOM     19  C   LIG     1     -29.839   7.868   4.241  0.00  0.00     0.025 A 
ATOM     20  C   LIG     1     -29.974   8.907   5.163  0.00  0.00     0.015 A 
ATOM     21  C   LIG     1     -30.756  10.018   4.853  0.00  0.00     0.050 A 
ATOM     22  C   LIG     1     -31.406  10.092   3.621  0.00  0.00     0.158 A 
ATOM     23  C   LIG     1     -31.272   9.055   2.699  0.00  0.00     0.159 A 
ATOM     24  C   LIG     1     -30.489   7.943   3.009  0.00  0.00     0.060 A 
BRANCH  22  25
ATOM     25  O   LIG     1     -32.168  11.183   3.330  0.00  0.00    -0.503 OA
ATOM     26  H   LIG     1     -32.748  11.387   4.080  0.00  0.00     0.292 HD
ENDBRANCH  22  25
BRANCH  23  27
ATOM     27  O   LIG     1     -31.901   9.117   1.491  0.00  0.00    -0.503 OA
ATOM     28  H   LIG     1     -31.424   8.568   0.847  0.00  0.00     0.292 HD
ENDBRANCH  23  27
ENDBRANCH   9  19
BRANCH  14  29
ATOM     29  O   LIG     1     -30.034   0.909   5.755  0.00  0.00    -0.507 OA
ATOM     30  H   LIG     1     -30.923   1.072   5.398  0.00  0.00     0.292 HD
ENDBRANCH  14  29
BRANCH  16  31
ATOM     31  O   LIG     1     -25.757   2.971   5.683  0.00  0.00    -0.506 OA
ATOM     32  H   LIG     1     -25.418   2.328   5.037  0.00  0.00     0.292 HD
ENDBRANCH  16  31
ENDBRANCH   7   8
ENDBRANCH   2   7
BRANCH   3  33
ATOM     33  O   LIG     1     -27.109  10.742   4.246  0.00  0.00    -0.383 OA
ATOM     34  H   LIG     1     -27.760  10.219   4.744  0.00  0.00     0.210 HD
ENDBRANCH   3  33
BRANCH   6  35
ATOM     35  C   LIG     1     -26.777   7.271  -0.148  0.00  0.00     0.197 C 
BRANCH  35  36
ATOM     36  O   LIG     1     -27.954   6.620  -0.606  0.00  0.00    -0.346 OA
BRANCH  36  37
ATOM     37  C   LIG     1     -28.255   6.976  -1.952  0.00  0.00     0.282 C 
ATOM     38  O   LIG     1     -28.736   8.319  -2.066  0.00  0.00    -0.343 OA
ATOM     39  C   LIG     1     -29.984   8.553  -1.406  0.00  0.00     0.149 C 
ATOM     40  C   LIG     1     -31.084   7.642  -1.966  0.00  0.00     0.174 C 
ATOM     41  C   LIG     1     -30.316  10.032  -1.592  0.00  0.00     0.041 C 
ATOM     42  C   LIG     1     -30.643   6.180  -1.892  0.00  0.00     0.179 C 
ATOM     43  C   LIG     1     -29.267   5.989  -2.532  0.00  0.00     0.201 C 
BRANCH  40  44
ATOM     44  O   LIG     1     -32.280   7.784  -1.203  0.00  0.00    -0.387 OA
ATOM     45  H   LIG     1     -32.557   8.714  -1.254  0.00  0.00     0.210 HD
ENDBRANCH  40  44
BRANCH  42  46
ATOM     46  O   LIG     1     -31.605   5.365  -2.558  0.00  0.00    -0.386 OA
ATOM     47  H   LIG     1     -31.153   4.558  -2.859  0.00  0.00     0.210 HD
ENDBRANCH  42  46
BRANCH  43  48
ATOM     48  O   LIG     1     -29.347   6.226  -3.939  0.00  0.00    -0.384 OA
ATOM     49  H   LIG     1     -28.774   6.981  -4.156  0.00  0.00     0.210 HD
ENDBRANCH  43  48
ENDBRANCH  36  37
ENDBRANCH  35  36
ENDBRANCH   6  35
BRANCH   4  50
ATOM     50  O   LIG     1     -25.806  11.682   1.776  0.00  0.00    -0.386 OA
ATOM     51  H   LIG     1     -25.754  12.094   2.656  0.00  0.00     0.210 HD
ENDBRANCH   4  50
BRANCH   5  52
ATOM     52  O   LIG     1     -26.784  10.207  -0.509  0.00  0.00    -0.386 OA
ATOM     53  H   LIG     1     -27.458  10.883  -0.324  0.00  0.00     0.210 HD
ENDBRANCH   5  52
TORSDOF 16
ENDMDL
MODEL 2
REMARK VINA RESULT:      -8.8      2.684      8.265
REMARK  16 active torsions:
REMARK  status: ('A' for Active; 'I' for Inactive)
REMARK    1  A    between atoms: C_2  and  O_12 
REMARK    2  A    between atoms: C_3  and  O_10 
REMARK    3  A    between atoms: C_4  and  O_8 
REMARK    4  A    between atoms: C_5  and  O_6 
REMARK    5  A    between atoms: C_38  and  C_39 
REMARK    6  A    between atoms: O_12  and  C_13 
REMARK    7  A    between atoms: C_16  and  O_22 
REMARK    8  A    between atoms: C_18  and  O_20 
REMARK    9  A    between atoms: C_27  and  C_28 
REMARK   10  A    between atoms: C_31  and  O_35 
REMARK   11  A    between atoms: C_32  and  O_33 
REMARK   12  A    between atoms: C_39  and  O_40 
REMARK   13  A    between atoms: O_40  and  C_41 
REMARK   14  A    between atoms: C_42  and  O_51 
REMARK   15  A    between atoms: C_43  and  O_49 
REMARK   16  A    between atoms: C_44  and  O_47 
ROOT
ATOM      1  O   LIG     1     -27.880   8.802   5.167  0.00  0.00    -0.331 OA
ATOM      2  C   LIG     1     -28.962   9.410   4.465  0.00  0.00     0.340 C 
ATOM      3  C   LIG     1     -29.593  10.519   5.309  0.00  0.00     0.214 C 
ATOM      4  C   LIG     1     -28.544  11.530   5.771  0.00  0.00     0.180 C 
ATOM      5  C   LIG     1     -27.327  10.829   6.374  0.00  0.00     0.177 C 
ATOM      6  C   LIG     1     -26.823   9.721   5.447  0.00  0.00     0.179 C 
ENDROOT
BRANCH   2   7
ATOM      7  O   LIG     1     -29.970   8.436   4.195  0.00  0.00    -0.453 OA
BRANCH   7   8
ATOM      8  C   LIG     1     -29.932   8.018   2.883  0.00  0.00     0.214 A 
ATOM      9  C   LIG     1     -29.380   6.852   2.499  0.00  0.00     0.181 A 
ATOM     10  O   LIG     1     -29.297   6.418   1.185  0.00  0.00    -0.451 OA
ATOM     11  C   LIG     1     -29.825   7.210   0.199  0.00  0.00     0.147 A 
ATOM     12  C   LIG     1     -29.735   6.740  -1.112  0.00  0.00     0.092 A 
ATOM     13  C   LIG     1     -30.432   8.436   0.460  0.00  0.00     0.109 A 
ATOM     14  C   LIG     1     -30.254   7.502  -2.159  0.00  0.00     0.124 A 
ATOM     15  C   LIG     1     -30.861   8.730  -1.897  0.00  0.00     0.091 A 
ATOM     16  C   LIG     1     -30.953   9.203  -0.587  0.00  0.00     0.135 A 
ATOM     17  C   LIG     1     -30.512   8.910   1.850  0.00  0.00     0.238 A 
ATOM     18  O   LIG     1     -31.029   9.981   2.139  0.00  0.00    -0.283 OA
BRANCH   9  19
ATOM     19  C   LIG     1     -28.775   5.910   3.456  0.00  0.00     0.025 A 
ATOM     20  C   LIG     1     -29.581   5.010   4.155  0.00  0.00     0.015 A 
ATOM     21  C   LIG     1     -29.007   4.118   5.060  0.00  0.00     0.050 A 
ATOM     22  C   LIG     1     -27.628   4.125   5.269  0.00  0.00     0.158 A 
ATOM     23  C   LIG     1     -26.822   5.023   4.570  0.00  0.00     0.159 A 
ATOM     24  C   LIG     1     -27.396   5.916   3.664  0.00  0.00     0.060 A 
BRANCH  22  25
ATOM     25  O   LIG     1     -27.080   3.250   6.157  0.00  0.00    -0.503 OA
ATOM     26  H   LIG     1     -26.815   2.439   5.696  0.00  0.00     0.292 HD
ENDBRANCH  22  25
BRANCH  23  27
ATOM     27  O   LIG     1     -25.474   5.039   4.764  0.00  0.00    -0.503 OA
ATOM     28  H   LIG     1     -25.225   5.830   5.268  0.00  0.00     0.292 HD
ENDBRANCH  23  27
ENDBRANCH   9  19
BRANCH  14  29
ATOM     29  O   LIG     1     -30.166   7.046  -3.439  0.00  0.00    -0.507 OA
ATOM     30  H   LIG     1     -31.024   6.670  -3.699  0.00  0.00     0.292 HD
ENDBRANCH  14  29
BRANCH  16  31
ATOM     31  O   LIG     1     -31.555  10.408  -0.387  0.00  0.00    -0.506 OA
ATOM     32  H   LIG     1     -30.890  11.116  -0.443  0.00  0.00     0.292 HD
ENDBRANCH  16  31
ENDBRANCH   7   8
ENDBRANCH   2   7
BRANCH   3  33
ATOM     33  O   LIG     1     -30.574  11.183   4.514  0.00  0.00    -0.383 OA
ATOM     34  H   LIG     1     -30.836  10.584   3.795  0.00  0.00     0.210 HD
ENDBRANCH   3  33
BRANCH   6  35
ATOM     35  C   LIG     1     -25.682   8.930   6.078  0.00  0.00     0.197 C 
BRANCH  35  36
ATOM     36  O   LIG     1     -26.160   7.645   6.449  0.00  0.00    -0.346 OA
BRANCH  36  37
ATOM     37  C   LIG     1     -26.282   7.523   7.863  0.00  0.00     0.282 C 
ATOM     38  O   LIG     1     -25.194   8.137   8.560  0.00  0.00    -0.343 OA
ATOM     39  C   LIG     1     -23.922   7.528   8.314  0.00  0.00     0.149 C 
ATOM     40  C   LIG     1     -23.930   6.049   8.724  0.00  0.00     0.174 C 
ATOM     41  C   LIG     1     -22.884   8.332   9.094  0.00  0.00     0.041 C 
ATOM     42  C   LIG     1     -25.079   5.317   8.029  0.00  0.00     0.179 C 
ATOM     43  C   LIG     1     -26.405   6.049   8.245  0.00  0.00     0.201 C 
BRANCH  40  44
ATOM     44  O   LIG     1     -22.708   5.423   8.340  0.00  0.00    -0.387 OA
ATOM     45  H   LIG     1     -22.336   5.928   7.597  0.00  0.00     0.210 HD
ENDBRANCH  40  44
BRANCH  42  46
ATOM     46  O   LIG     1     -25.167   3.989   8.540  0.00  0.00    -0.386 OA
ATOM     47  H   LIG     1     -24.264   3.635   8.601  0.00  0.00     0.210 HD
ENDBRANCH  42  46
BRANCH  43  48
ATOM     48  O   LIG     1     -26.777   5.986   9.623  0.00  0.00    -0.384 OA
ATOM     49  H   LIG     1     -27.425   6.690   9.798  0.00  0.00     0.210 HD
ENDBRANCH  43  48
ENDBRANCH  36  37
ENDBRANCH  35  36
ENDBRANCH   6  35
BRANCH   4  50
ATOM     50  O   LIG     1     -29.109  12.376   6.775  0.00  0.00    -0.386 OA
ATOM     51  H   LIG     1     -28.571  12.274   7.578  0.00  0.00     0.210 HD
ENDBRANCH   4  50
BRANCH   5  52
ATOM     52  O   LIG     1     -26.287  11.783   6.577  0.00  0.00    -0.386 OA
ATOM     53  H   LIG     1     -25.952  11.674   7.483  0.00  0.00     0.210 HD
ENDBRANCH   5  52
TORSDOF 16
ENDMDL
MODEL 3
REMARK VINA RESULT:      -8.5      2.557      4.778
REMARK  16 active torsions:
REMARK  status: ('A' for Active; 'I' for Inactive)
REMARK    1  A    between atoms: C_2  and  O_12 
REMARK    2  A    between atoms: C_3  and  O_10 
REMARK    3  A    between atoms: C_4  and  O_8 
REMARK    4  A    between atoms: C_5  and  O_6 
REMARK    5  A    between atoms: C_38  and  C_39 
REMARK    6  A    between atoms: O_12  and  C_13 
REMARK    7  A    between atoms: C_16  and  O_22 
REMARK    8  A    between atoms: C_18  and  O_20 
REMARK    9  A    between atoms: C_27  and  C_28 
REMARK   10  A    between atoms: C_31  and  O_35 
REMARK   11  A    between atoms: C_32  and  O_33 
REMARK   12  A    between atoms: C_39  and  O_40 
REMARK   13  A    between atoms: O_40  and  C_41 
REMARK   14  A    between atoms: C_42  and  O_51 
REMARK   15  A    between atoms: C_43  and  O_49 
REMARK   16  A    between atoms: C_44  and  O_47 
ROOT
ATOM      1  O   LIG     1     -29.802   9.839   3.542  0.00  0.00    -0.331 OA
ATOM      2  C   LIG     1     -29.091  10.176   4.732  0.00  0.00     0.340 C 
ATOM      3  C   LIG     1     -29.332  11.639   5.104  0.00  0.00     0.214 C 
ATOM      4  C   LIG     1     -30.826  11.950   5.200  0.00  0.00     0.180 C 
ATOM      5  C   LIG     1     -31.579  11.430   3.975  0.00  0.00     0.177 C 
ATOM      6  C   LIG     1     -31.216   9.970   3.694  0.00  0.00     0.179 C 
ENDROOT
BRANCH   2   7
ATOM      7  O   LIG     1     -27.691  10.000   4.522  0.00  0.00    -0.453 OA
BRANCH   7   8
ATOM      8  C   LIG     1     -27.233   8.838   5.103  0.00  0.00     0.214 A 
ATOM      9  C   LIG     1     -27.252   7.647   4.478  0.00  0.00     0.181 A 
ATOM     10  O   LIG     1     -26.830   6.455   5.045  0.00  0.00    -0.451 OA
ATOM     11  C   LIG     1     -26.337   6.477   6.325  0.00  0.00     0.147 A 
ATOM     12  C   LIG     1     -25.911   5.263   6.864  0.00  0.00     0.092 A 
ATOM     13  C   LIG     1     -26.253   7.644   7.081  0.00  0.00     0.109 A 
ATOM     14  C   LIG     1     -25.400   5.222   8.162  0.00  0.00     0.124 A 
ATOM     15  C   LIG     1     -25.317   6.390   8.919  0.00  0.00     0.091 A 
ATOM     16  C   LIG     1     -25.743   7.606   8.382  0.00  0.00     0.135 A 
ATOM     17  C   LIG     1     -26.712   8.910   6.490  0.00  0.00     0.238 A 
ATOM     18  O   LIG     1     -26.668   9.965   7.108  0.00  0.00    -0.283 OA
BRANCH   9  19
ATOM     19  C   LIG     1     -27.758   7.482   3.104  0.00  0.00     0.025 A 
ATOM     20  C   LIG     1     -28.881   6.690   2.864  0.00  0.00     0.015 A 
ATOM     21  C   LIG     1     -29.360   6.534   1.563  0.00  0.00     0.050 A 
ATOM     22  C   LIG     1     -28.715   7.170   0.502  0.00  0.00     0.158 A 
ATOM     23  C   LIG     1     -27.593   7.962   0.741  0.00  0.00     0.159 A 
ATOM     24  C   LIG     1     -27.114   8.118   2.042  0.00  0.00     0.060 A 
BRANCH  22  25
ATOM     25  O   LIG     1     -29.191   7.009  -0.764  0.00  0.00    -0.503 OA
ATOM     26  H   LIG     1     -28.553   7.366  -1.402  0.00  0.00     0.292 HD
ENDBRANCH  22  25
BRANCH  23  27
ATOM     27  O   LIG     1     -26.956   8.590  -0.287  0.00  0.00    -0.503 OA
ATOM     28  H   LIG     1     -26.093   8.172  -0.439  0.00  0.00     0.292 HD
ENDBRANCH  23  27
ENDBRANCH   9  19
BRANCH  14  29
ATOM     29  O   LIG     1     -24.984   4.038   8.690  0.00  0.00    -0.507 OA
ATOM     30  H   LIG     1     -25.090   3.340   8.022  0.00  0.00     0.292 HD
ENDBRANCH  14  29
BRANCH  16  31
ATOM     31  O   LIG     1     -25.640   8.717   9.163  0.00  0.00    -0.506 OA
ATOM     32  H   LIG     1     -26.526   8.988   9.460  0.00  0.00     0.292 HD
ENDBRANCH  16  31
ENDBRANCH   7   8
ENDBRANCH   2   7
BRANCH   3  33
ATOM     33  O   LIG     1     -28.715  11.887   6.367  0.00  0.00    -0.383 OA
ATOM     34  H   LIG     1     -28.011  12.545   6.235  0.00  0.00     0.210 HD
ENDBRANCH   3  33
BRANCH   6  35
ATOM     35  C   LIG     1     -31.865   9.463   2.410  0.00  0.00     0.197 C 
BRANCH  35  36
ATOM     36  O   LIG     1     -32.394  10.569   1.692  0.00  0.00    -0.346 OA
BRANCH  36  37
ATOM     37  C   LIG     1     -31.560  10.925   0.594  0.00  0.00     0.282 C 
ATOM     38  O   LIG     1     -32.175  11.887  -0.268  0.00  0.00    -0.343 OA
ATOM     39  C   LIG     1     -33.355  11.415  -0.928  0.00  0.00     0.149 C 
ATOM     40  C   LIG     1     -33.050  10.182  -1.788  0.00  0.00     0.174 C 
ATOM     41  C   LIG     1     -33.894  12.576  -1.761  0.00  0.00     0.041 C 
ATOM     42  C   LIG     1     -32.376   9.103  -0.940  0.00  0.00     0.179 C 
ATOM     43  C   LIG     1     -31.172   9.670  -0.187  0.00  0.00     0.201 C 
BRANCH  40  44
ATOM     44  O   LIG     1     -34.257   9.640  -2.320  0.00  0.00    -0.387 OA
ATOM     45  H   LIG     1     -34.986   9.906  -1.734  0.00  0.00     0.210 HD
ENDBRANCH  40  44
BRANCH  42  46
ATOM     46  O   LIG     1     -31.960   8.033  -1.786  0.00  0.00    -0.386 OA
ATOM     47  H   LIG     1     -32.738   7.481  -1.971  0.00  0.00     0.210 HD
ENDBRANCH  42  46
BRANCH  43  48
ATOM     48  O   LIG     1     -30.146  10.034  -1.111  0.00  0.00    -0.384 OA
ATOM     49  H   LIG     1     -30.089  11.004  -1.140  0.00  0.00     0.210 HD
ENDBRANCH  43  48
ENDBRANCH  36  37
ENDBRANCH  35  36
ENDBRANCH   6  35
BRANCH   4  50
ATOM     50  O   LIG     1     -31.014  13.365   5.265  0.00  0.00    -0.386 OA
ATOM     51  H   LIG     1     -31.743  13.533   5.886  0.00  0.00     0.210 HD
ENDBRANCH   4  50
BRANCH   5  52
ATOM     52  O   LIG     1     -32.981  11.531   4.206  0.00  0.00    -0.386 OA
ATOM     53  H   LIG     1     -33.117  12.077   4.999  0.00  0.00     0.210 HD
ENDBRANCH   5  52
TORSDOF 16
ENDMDL
MODEL 4
REMARK VINA RESULT:      -8.4      2.690      8.301
REMARK  16 active torsions:
REMARK  status: ('A' for Active; 'I' for Inactive)
REMARK    1  A    between atoms: C_2  and  O_12 
REMARK    2  A    between atoms: C_3  and  O_10 
REMARK    3  A    between atoms: C_4  and  O_8 
REMARK    4  A    between atoms: C_5  and  O_6 
REMARK    5  A    between atoms: C_38  and  C_39 
REMARK    6  A    between atoms: O_12  and  C_13 
REMARK    7  A    between atoms: C_16  and  O_22 
REMARK    8  A    between atoms: C_18  and  O_20 
REMARK    9  A    between atoms: C_27  and  C_28 
REMARK   10  A    between atoms: C_31  and  O_35 
REMARK   11  A    between atoms: C_32  and  O_33 
REMARK   12  A    between atoms: C_39  and  O_40 
REMARK   13  A    between atoms: O_40  and  C_41 
REMARK   14  A    between atoms: C_42  and  O_51 
REMARK   15  A    between atoms: C_43  and  O_49 
REMARK   16  A    between atoms: C_44  and  O_47 
ROOT
ATOM      1  O   LIG     1     -27.297   5.579   5.486  0.00  0.00    -0.331 OA
ATOM      2  C   LIG     1     -27.082   6.887   6.011  0.00  0.00     0.340 C 
ATOM      3  C   LIG     1     -26.967   6.842   7.535  0.00  0.00     0.214 C 
ATOM      4  C   LIG     1     -25.900   5.843   7.982  0.00  0.00     0.180 C 
ATOM      5  C   LIG     1     -26.069   4.498   7.275  0.00  0.00     0.177 C 
ATOM      6  C   LIG     1     -26.211   4.692   5.764  0.00  0.00     0.179 C 
ENDROOT
BRANCH   2   7
ATOM      7  O   LIG     1     -28.187   7.727   5.678  0.00  0.00    -0.453 OA
BRANCH   7   8
ATOM      8  C   LIG     1     -28.020   8.321   4.447  0.00  0.00     0.214 A 
ATOM      9  C   LIG     1     -27.347   9.474   4.273  0.00  0.00     0.181 A 
ATOM     10  O   LIG     1     -27.188  10.115   3.054  0.00  0.00    -0.451 OA
ATOM     11  C   LIG     1     -27.731   9.537   1.935  0.00  0.00     0.147 A 
ATOM     12  C   LIG     1     -27.546  10.200   0.722  0.00  0.00     0.092 A 
ATOM     13  C   LIG     1     -28.443   8.340   1.974  0.00  0.00     0.109 A 
ATOM     14  C   LIG     1     -28.075   9.662  -0.451  0.00  0.00     0.124 A 
ATOM     15  C   LIG     1     -28.789   8.464  -0.412  0.00  0.00     0.091 A 
ATOM     16  C   LIG     1     -28.976   7.798   0.801  0.00  0.00     0.135 A 
ATOM     17  C   LIG     1     -28.627   7.662   3.266  0.00  0.00     0.238 A 
ATOM     18  O   LIG     1     -29.248   6.612   3.362  0.00  0.00    -0.283 OA
BRANCH   9  19
ATOM     19  C   LIG     1     -26.718  10.200   5.390  0.00  0.00     0.025 A 
ATOM     20  C   LIG     1     -25.334  10.151   5.563  0.00  0.00     0.015 A 
ATOM     21  C   LIG     1     -24.739  10.839   6.620  0.00  0.00     0.050 A 
ATOM     22  C   LIG     1     -25.527  11.574   7.506  0.00  0.00     0.158 A 
ATOM     23  C   LIG     1     -26.909  11.623   7.334  0.00  0.00     0.159 A 
ATOM     24  C   LIG     1     -27.505  10.936   6.276  0.00  0.00     0.060 A 
BRANCH  22  25
ATOM     25  O   LIG     1     -24.934  12.240   8.536  0.00  0.00    -0.503 OA
ATOM     26  H   LIG     1     -24.400  11.622   9.061  0.00  0.00     0.292 HD
ENDBRANCH  22  25
BRANCH  23  27
ATOM     27  O   LIG     1     -27.689  12.339   8.192  0.00  0.00    -0.503 OA
ATOM     28  H   LIG     1     -27.833  13.230   7.835  0.00  0.00     0.292 HD
ENDBRANCH  23  27
ENDBRANCH   9  19
BRANCH  14  29
ATOM     29  O   LIG     1     -27.895  10.308  -1.636  0.00  0.00    -0.507 OA
ATOM     30  H   LIG     1     -28.677  10.164  -2.196  0.00  0.00     0.292 HD
ENDBRANCH  14  29
BRANCH  16  31
ATOM     31  O   LIG     1     -29.681   6.632   0.783  0.00  0.00    -0.506 OA
ATOM     32  H   LIG     1     -29.166   5.936   1.225  0.00  0.00     0.292 HD
ENDBRANCH  16  31
ENDBRANCH   7   8
ENDBRANCH   2   7
BRANCH   3  33
ATOM     33  O   LIG     1     -26.618   8.147   7.996  0.00  0.00    -0.383 OA
ATOM     34  H   LIG     1     -27.360   8.744   7.802  0.00  0.00     0.210 HD
ENDBRANCH   3  33
BRANCH   6  35
ATOM     35  C   LIG     1     -26.498   3.376   5.049  0.00  0.00     0.197 C 
BRANCH  35  36
ATOM     36  O   LIG     1     -26.747   2.368   6.018  0.00  0.00    -0.346 OA
BRANCH  36  37
ATOM     37  C   LIG     1     -27.915   1.618   5.703  0.00  0.00     0.282 C 
ATOM     38  O   LIG     1     -29.002   1.903   6.588  0.00  0.00    -0.343 OA
ATOM     39  C   LIG     1     -28.763   1.528   7.949  0.00  0.00     0.149 C 
ATOM     40  C   LIG     1     -28.482   0.025   8.066  0.00  0.00     0.174 C 
ATOM     41  C   LIG     1     -29.997   1.943   8.749  0.00  0.00     0.041 C 
ATOM     42  C   LIG     1     -27.333  -0.369   7.136  0.00  0.00     0.179 C 
ATOM     43  C   LIG     1     -27.589   0.126   5.711  0.00  0.00     0.201 C 
BRANCH  40  44
ATOM     44  O   LIG     1     -28.104  -0.305   9.401  0.00  0.00    -0.387 OA
ATOM     45  H   LIG     1     -28.405   0.414   9.981  0.00  0.00     0.210 HD
ENDBRANCH  40  44
BRANCH  42  46
ATOM     46  O   LIG     1     -27.191  -1.787   7.139  0.00  0.00    -0.386 OA
ATOM     47  H   LIG     1     -27.055  -2.069   8.060  0.00  0.00     0.210 HD
ENDBRANCH  42  46
BRANCH  43  48
ATOM     48  O   LIG     1     -28.704  -0.566   5.148  0.00  0.00    -0.384 OA
ATOM     49  H   LIG     1     -29.393  -0.645   5.830  0.00  0.00     0.210 HD
ENDBRANCH  43  48
ENDBRANCH  36  37
ENDBRANCH  35  36
ENDBRANCH   6  35
BRANCH   4  50
ATOM     50  O   LIG     1     -26.016   5.620   9.389  0.00  0.00    -0.386 OA
ATOM     51  H   LIG     1     -26.948   5.758   9.629  0.00  0.00     0.210 HD
ENDBRANCH   4  50
BRANCH   5  52
ATOM     52  O   LIG     1     -24.933   3.680   7.540  0.00  0.00    -0.386 OA
ATOM     53  H   LIG     1     -24.145   4.145   7.214  0.00  0.00     0.210 HD
ENDBRANCH   5  52
TORSDOF 16
ENDMDL
MODEL 5
REMARK VINA RESULT:      -8.2      2.669      8.284
REMARK  16 active torsions:
REMARK  status: ('A' for Active; 'I' for Inactive)
REMARK    1  A    between atoms: C_2  and  O_12 
REMARK    2  A    between atoms: C_3  and  O_10 
REMARK    3  A    between atoms: C_4  and  O_8 
REMARK    4  A    between atoms: C_5  and  O_6 
REMARK    5  A    between atoms: C_38  and  C_39 
REMARK    6  A    between atoms: O_12  and  C_13 
REMARK    7  A    between atoms: C_16  and  O_22 
REMARK    8  A    between atoms: C_18  and  O_20 
REMARK    9  A    between atoms: C_27  and  C_28 
REMARK   10  A    between atoms: C_31  and  O_35 
REMARK   11  A    between atoms: C_32  and  O_33 
REMARK   12  A    between atoms: C_39  and  O_40 
REMARK   13  A    between atoms: O_40  and  C_41 
REMARK   14  A    between atoms: C_42  and  O_51 
REMARK   15  A    between atoms: C_43  and  O_49 
REMARK   16  A    between atoms: C_44  and  O_47 
ROOT
ATOM      1  O   LIG     1     -27.978   9.369   4.144  0.00  0.00    -0.331 OA
ATOM      2  C   LIG     1     -27.782   9.638   2.758  0.00  0.00     0.340 C 
ATOM      3  C   LIG     1     -27.108  10.997   2.566  0.00  0.00     0.214 C 
ATOM      4  C   LIG     1     -25.816  11.096   3.377  0.00  0.00     0.180 C 
ATOM      5  C   LIG     1     -26.033  10.646   4.822  0.00  0.00     0.177 C 
ATOM      6  C   LIG     1     -26.748   9.294   4.867  0.00  0.00     0.179 C 
ENDROOT
BRANCH   2   7
ATOM      7  O   LIG     1     -29.043   9.674   2.091  0.00  0.00    -0.453 OA
BRANCH   7   8
ATOM      8  C   LIG     1     -29.062   8.836   0.998  0.00  0.00     0.214 A 
ATOM      9  C   LIG     1     -28.911   7.502   1.092  0.00  0.00     0.181 A 
ATOM     10  O   LIG     1     -28.893   6.635   0.010  0.00  0.00    -0.451 OA
ATOM     11  C   LIG     1     -29.060   7.155  -1.247  0.00  0.00     0.147 A 
ATOM     12  C   LIG     1     -29.048   6.255  -2.314  0.00  0.00     0.092 A 
ATOM     13  C   LIG     1     -29.236   8.516  -1.485  0.00  0.00     0.109 A 
ATOM     14  C   LIG     1     -29.213   6.724  -3.618  0.00  0.00     0.124 A 
ATOM     15  C   LIG     1     -29.388   8.087  -3.855  0.00  0.00     0.091 A 
ATOM     16  C   LIG     1     -29.401   8.989  -2.790  0.00  0.00     0.135 A 
ATOM     17  C   LIG     1     -29.242   9.443  -0.343  0.00  0.00     0.238 A 
ATOM     18  O   LIG     1     -29.387  10.649  -0.491  0.00  0.00    -0.283 OA
BRANCH   9  19
ATOM     19  C   LIG     1     -28.720   6.816   2.382  0.00  0.00     0.025 A 
ATOM     20  C   LIG     1     -29.806   6.616   3.234  0.00  0.00     0.015 A 
ATOM     21  C   LIG     1     -29.625   5.967   4.454  0.00  0.00     0.050 A 
ATOM     22  C   LIG     1     -28.358   5.518   4.825  0.00  0.00     0.158 A 
ATOM     23  C   LIG     1     -27.271   5.717   3.974  0.00  0.00     0.159 A 
ATOM     24  C   LIG     1     -27.452   6.366   2.752  0.00  0.00     0.060 A 
BRANCH  22  25
ATOM     25  O   LIG     1     -28.193   4.886   6.020  0.00  0.00    -0.503 OA
ATOM     26  H   LIG     1     -28.094   5.543   6.727  0.00  0.00     0.292 HD
ENDBRANCH  22  25
BRANCH  23  27
ATOM     27  O   LIG     1     -26.028   5.281   4.323  0.00  0.00    -0.503 OA
ATOM     28  H   LIG     1     -26.086   4.377   4.672  0.00  0.00     0.292 HD
ENDBRANCH  23  27
ENDBRANCH   9  19
BRANCH  14  29
ATOM     29  O   LIG     1     -29.200   5.848  -4.660  0.00  0.00    -0.507 OA
ATOM     30  H   LIG     1     -28.320   5.861  -5.073  0.00  0.00     0.292 HD
ENDBRANCH  14  29
BRANCH  16  31
ATOM     31  O   LIG     1     -29.575  10.309  -3.077  0.00  0.00    -0.506 OA
ATOM     32  H   LIG     1     -29.460  10.451  -4.032  0.00  0.00     0.292 HD
ENDBRANCH  16  31
ENDBRANCH   7   8
ENDBRANCH   2   7
BRANCH   3  33
ATOM     33  O   LIG     1     -26.811  11.158   1.179  0.00  0.00    -0.383 OA
ATOM     34  H   LIG     1     -26.552  10.291   0.824  0.00  0.00     0.210 HD
ENDBRANCH   3  33
BRANCH   6  35
ATOM     35  C   LIG     1     -27.080   8.878   6.297  0.00  0.00     0.197 C 
BRANCH  35  36
ATOM     36  O   LIG     1     -26.175   7.861   6.704  0.00  0.00    -0.346 OA
BRANCH  36  37
ATOM     37  C   LIG     1     -26.233   7.646   8.110  0.00  0.00     0.282 C 
ATOM     38  O   LIG     1     -25.092   8.178   8.791  0.00  0.00    -0.343 OA
ATOM     39  C   LIG     1     -23.854   7.549   8.441  0.00  0.00     0.149 C 
ATOM     40  C   LIG     1     -23.892   6.047   8.751  0.00  0.00     0.174 C 
ATOM     41  C   LIG     1     -22.754   8.267   9.220  0.00  0.00     0.041 C 
ATOM     42  C   LIG     1     -25.096   5.399   8.066  0.00  0.00     0.179 C 
ATOM     43  C   LIG     1     -26.385   6.153   8.398  0.00  0.00     0.201 C 
BRANCH  40  44
ATOM     44  O   LIG     1     -22.711   5.413   8.264  0.00  0.00    -0.387 OA
ATOM     45  H   LIG     1     -22.520   5.776   7.382  0.00  0.00     0.210 HD
ENDBRANCH  40  44
BRANCH  42  46
ATOM     46  O   LIG     1     -25.204   4.042   8.491  0.00  0.00    -0.386 OA
ATOM     47  H   LIG     1     -25.727   3.564   7.826  0.00  0.00     0.210 HD
ENDBRANCH  42  46
BRANCH  43  48
ATOM     48  O   LIG     1     -26.692   6.007   9.786  0.00  0.00    -0.384 OA
ATOM     49  H   LIG     1     -26.762   6.893  10.180  0.00  0.00     0.210 HD
ENDBRANCH  43  48
ENDBRANCH  36  37
ENDBRANCH  35  36
ENDBRANCH   6  35
BRANCH   4  50
ATOM     50  O   LIG     1     -25.372  12.455   3.400  0.00  0.00    -0.386 OA
ATOM     51  H   LIG     1     -25.848  12.928   2.696  0.00  0.00     0.210 HD
ENDBRANCH   4  50
BRANCH   5  52
ATOM     52  O   LIG     1     -24.771  10.534   5.474  0.00  0.00    -0.386 OA
ATOM     53  H   LIG     1     -24.158  11.160   5.054  0.00  0.00     0.210 HD
ENDBRANCH   5  52
TORSDOF 16
ENDMDL
MODEL 6
REMARK VINA RESULT:      -8.2      2.618      4.463
REMARK  16 active torsions:
REMARK  status: ('A' for Active; 'I' for Inactive)
REMARK    1  A    between atoms: C_2  and  O_12 
REMARK    2  A    between atoms: C_3  and  O_10 
REMARK    3  A    between atoms: C_4  and  O_8 
REMARK    4  A    between atoms: C_5  and  O_6 
REMARK    5  A    between atoms: C_38  and  C_39 
REMARK    6  A    between atoms: O_12  and  C_13 
REMARK    7  A    between atoms: C_16  and  O_22 
REMARK    8  A    between atoms: C_18  and  O_20 
REMARK    9  A    between atoms: C_27  and  C_28 
REMARK   10  A    between atoms: C_31  and  O_35 
REMARK   11  A    between atoms: C_32  and  O_33 
REMARK   12  A    between atoms: C_39  and  O_40 
REMARK   13  A    between atoms: O_40  and  C_41 
REMARK   14  A    between atoms: C_42  and  O_51 
REMARK   15  A    between atoms: C_43  and  O_49 
REMARK   16  A    between atoms: C_44  and  O_47 
ROOT
ATOM      1  O   LIG     1     -28.072   8.141   3.667  0.00  0.00    -0.331 OA
ATOM      2  C   LIG     1     -27.097   8.212   4.704  0.00  0.00     0.340 C 
ATOM      3  C   LIG     1     -26.178   9.416   4.495  0.00  0.00     0.214 C 
ATOM      4  C   LIG     1     -26.980  10.709   4.349  0.00  0.00     0.180 C 
ATOM      5  C   LIG     1     -28.119  10.543   3.342  0.00  0.00     0.177 C 
ATOM      6  C   LIG     1     -28.932   9.282   3.645  0.00  0.00     0.179 C 
ENDROOT
BRANCH   2   7
ATOM      7  O   LIG     1     -26.290   7.035   4.688  0.00  0.00    -0.453 OA
BRANCH   7   8
ATOM      8  C   LIG     1     -26.866   6.015   5.412  0.00  0.00     0.214 A 
ATOM      9  C   LIG     1     -26.583   5.782   6.708  0.00  0.00     0.181 A 
ATOM     10  O   LIG     1     -27.121   4.746   7.455  0.00  0.00    -0.451 OA
ATOM     11  C   LIG     1     -28.019   3.902   6.854  0.00  0.00     0.147 A 
ATOM     12  C   LIG     1     -28.550   2.875   7.635  0.00  0.00     0.092 A 
ATOM     13  C   LIG     1     -28.406   4.036   5.523  0.00  0.00     0.109 A 
ATOM     14  C   LIG     1     -29.469   1.985   7.079  0.00  0.00     0.124 A 
ATOM     15  C   LIG     1     -29.856   2.119   5.746  0.00  0.00     0.091 A 
ATOM     16  C   LIG     1     -29.326   3.146   4.962  0.00  0.00     0.135 A 
ATOM     17  C   LIG     1     -27.830   5.126   4.720  0.00  0.00     0.238 A 
ATOM     18  O   LIG     1     -28.128   5.289   3.544  0.00  0.00    -0.283 OA
BRANCH   9  19
ATOM     19  C   LIG     1     -25.634   6.610   7.472  0.00  0.00     0.025 A 
ATOM     20  C   LIG     1     -24.263   6.379   7.364  0.00  0.00     0.015 A 
ATOM     21  C   LIG     1     -23.364   7.163   8.087  0.00  0.00     0.050 A 
ATOM     22  C   LIG     1     -23.837   8.178   8.919  0.00  0.00     0.158 A 
ATOM     23  C   LIG     1     -25.207   8.409   9.028  0.00  0.00     0.159 A 
ATOM     24  C   LIG     1     -26.106   7.625   8.304  0.00  0.00     0.060 A 
BRANCH  22  25
ATOM     25  O   LIG     1     -22.949   8.936   9.622  0.00  0.00    -0.503 OA
ATOM     26  H   LIG     1     -23.190   8.935  10.562  0.00  0.00     0.292 HD
ENDBRANCH  22  25
BRANCH  23  27
ATOM     27  O   LIG     1     -25.681   9.398   9.836  0.00  0.00    -0.503 OA
ATOM     28  H   LIG     1     -25.254  10.240   9.607  0.00  0.00     0.292 HD
ENDBRANCH  23  27
ENDBRANCH   9  19
BRANCH  14  29
ATOM     29  O   LIG     1     -29.987   0.982   7.840  0.00  0.00    -0.507 OA
ATOM     30  H   LIG     1     -30.750   1.325   8.336  0.00  0.00     0.292 HD
ENDBRANCH  14  29
BRANCH  16  31
ATOM     31  O   LIG     1     -29.737   3.232   3.666  0.00  0.00    -0.506 OA
ATOM     32  H   LIG     1     -29.013   2.958   3.077  0.00  0.00     0.292 HD
ENDBRANCH  16  31
ENDBRANCH   7   8
ENDBRANCH   2   7
BRANCH   3  33
ATOM     33  O   LIG     1     -25.312   9.520   5.625  0.00  0.00    -0.383 OA
ATOM     34  H   LIG     1     -24.422   9.740   5.304  0.00  0.00     0.210 HD
ENDBRANCH   3  33
BRANCH   6  35
ATOM     35  C   LIG     1     -30.002   9.031   2.587  0.00  0.00     0.197 C 
BRANCH  35  36
ATOM     36  O   LIG     1     -29.450   8.227   1.554  0.00  0.00    -0.346 OA
BRANCH  36  37
ATOM     37  C   LIG     1     -29.293   8.966   0.347  0.00  0.00     0.282 C 
ATOM     38  O   LIG     1     -30.548   9.308  -0.250  0.00  0.00    -0.343 OA
ATOM     39  C   LIG     1     -31.316   8.181  -0.686  0.00  0.00     0.149 C 
ATOM     40  C   LIG     1     -30.545   7.355  -1.722  0.00  0.00     0.174 C 
ATOM     41  C   LIG     1     -32.627   8.727  -1.249  0.00  0.00     0.041 C 
ATOM     42  C   LIG     1     -29.178   6.956  -1.165  0.00  0.00     0.179 C 
ATOM     43  C   LIG     1     -28.426   8.177  -0.633  0.00  0.00     0.201 C 
BRANCH  40  44
ATOM     44  O   LIG     1     -31.261   6.162  -2.035  0.00  0.00    -0.387 OA
ATOM     45  H   LIG     1     -31.388   6.135  -2.998  0.00  0.00     0.210 HD
ENDBRANCH  40  44
BRANCH  42  46
ATOM     46  O   LIG     1     -28.416   6.327  -2.193  0.00  0.00    -0.386 OA
ATOM     47  H   LIG     1     -28.289   6.976  -2.906  0.00  0.00     0.210 HD
ENDBRANCH  42  46
BRANCH  43  48
ATOM     48  O   LIG     1     -28.087   9.049  -1.712  0.00  0.00    -0.384 OA
ATOM     49  H   LIG     1     -27.124   9.007  -1.850  0.00  0.00     0.210 HD
ENDBRANCH  43  48
ENDBRANCH  36  37
ENDBRANCH  35  36
ENDBRANCH   6  35
BRANCH   4  50
ATOM     50  O   LIG     1     -26.123  11.750   3.877  0.00  0.00    -0.386 OA
ATOM     51  H   LIG     1     -26.090  11.683   2.908  0.00  0.00     0.210 HD
ENDBRANCH   4  50
BRANCH   5  52
ATOM     52  O   LIG     1     -28.974  11.681   3.406  0.00  0.00    -0.386 OA
ATOM     53  H   LIG     1     -28.914  12.052   4.303  0.00  0.00     0.210 HD
ENDBRANCH   5  52
TORSDOF 16
ENDMDL
MODEL 7
REMARK VINA RESULT:      -8.2      2.674      4.301
REMARK  16 active torsions:
REMARK  status: ('A' for Active; 'I' for Inactive)
REMARK    1  A    between atoms: C_2  and  O_12 
REMARK    2  A    between atoms: C_3  and  O_10 
REMARK    3  A    between atoms: C_4  and  O_8 
REMARK    4  A    between atoms: C_5  and  O_6 
REMARK    5  A    between atoms: C_38  and  C_39 
REMARK    6  A    between atoms: O_12  and  C_13 
REMARK    7  A    between atoms: C_16  and  O_22 
REMARK    8  A    between atoms: C_18  and  O_20 
REMARK    9  A    between atoms: C_27  and  C_28 
REMARK   10  A    between atoms: C_31  and  O_35 
REMARK   11  A    between atoms: C_32  and  O_33 
REMARK   12  A    between atoms: C_39  and  O_40 
REMARK   13  A    between atoms: O_40  and  C_41 
REMARK   14  A    between atoms: C_42  and  O_51 
REMARK   15  A    between atoms: C_43  and  O_49 
REMARK   16  A    between atoms: C_44  and  O_47 
ROOT
ATOM      1  O   LIG     1     -29.586   9.164   1.255  0.00  0.00    -0.331 OA
ATOM      2  C   LIG     1     -28.680   8.145   1.671  0.00  0.00     0.340 C 
ATOM      3  C   LIG     1     -28.362   7.202   0.510  0.00  0.00     0.214 C 
ATOM      4  C   LIG     1     -27.865   7.973  -0.712  0.00  0.00     0.180 C 
ATOM      5  C   LIG     1     -28.779   9.156  -1.031  0.00  0.00     0.177 C 
ATOM      6  C   LIG     1     -29.044   9.992   0.224  0.00  0.00     0.179 C 
ENDROOT
BRANCH   2   7
ATOM      7  O   LIG     1     -29.270   7.373   2.716  0.00  0.00    -0.453 OA
BRANCH   7   8
ATOM      8  C   LIG     1     -28.619   7.562   3.915  0.00  0.00     0.214 A 
ATOM      9  C   LIG     1     -28.876   8.596   4.737  0.00  0.00     0.181 A 
ATOM     10  O   LIG     1     -28.217   8.832   5.933  0.00  0.00    -0.451 OA
ATOM     11  C   LIG     1     -27.247   7.949   6.331  0.00  0.00     0.147 A 
ATOM     12  C   LIG     1     -26.608   8.208   7.545  0.00  0.00     0.092 A 
ATOM     13  C   LIG     1     -26.888   6.832   5.580  0.00  0.00     0.109 A 
ATOM     14  C   LIG     1     -25.612   7.346   8.002  0.00  0.00     0.124 A 
ATOM     15  C   LIG     1     -25.253   6.228   7.249  0.00  0.00     0.091 A 
ATOM     16  C   LIG     1     -25.890   5.966   6.035  0.00  0.00     0.135 A 
ATOM     17  C   LIG     1     -27.574   6.583   4.303  0.00  0.00     0.238 A 
ATOM     18  O   LIG     1     -27.298   5.622   3.598  0.00  0.00    -0.283 OA
BRANCH   9  19
ATOM     19  C   LIG     1     -29.891   9.618   4.429  0.00  0.00     0.025 A 
ATOM     20  C   LIG     1     -29.509  10.947   4.239  0.00  0.00     0.015 A 
ATOM     21  C   LIG     1     -30.470  11.914   3.947  0.00  0.00     0.050 A 
ATOM     22  C   LIG     1     -31.814  11.554   3.845  0.00  0.00     0.158 A 
ATOM     23  C   LIG     1     -32.197  10.227   4.034  0.00  0.00     0.159 A 
ATOM     24  C   LIG     1     -31.235   9.259   4.326  0.00  0.00     0.060 A 
BRANCH  22  25
ATOM     25  O   LIG     1     -32.744  12.508   3.561  0.00  0.00    -0.503 OA
ATOM     26  H   LIG     1     -33.469  12.460   4.203  0.00  0.00     0.292 HD
ENDBRANCH  22  25
BRANCH  23  27
ATOM     27  O   LIG     1     -33.506   9.862   3.936  0.00  0.00    -0.503 OA
ATOM     28  H   LIG     1     -33.950  10.006   4.787  0.00  0.00     0.292 HD
ENDBRANCH  23  27
ENDBRANCH   9  19
BRANCH  14  29
ATOM     29  O   LIG     1     -24.988   7.597   9.186  0.00  0.00    -0.507 OA
ATOM     30  H   LIG     1     -24.169   7.074   9.228  0.00  0.00     0.292 HD
ENDBRANCH  14  29
BRANCH  16  31
ATOM     31  O   LIG     1     -25.501   4.861   5.339  0.00  0.00    -0.506 OA
ATOM     32  H   LIG     1     -24.908   5.126   4.615  0.00  0.00     0.292 HD
ENDBRANCH  16  31
ENDBRANCH   7   8
ENDBRANCH   2   7
BRANCH   3  33
ATOM     33  O   LIG     1     -27.353   6.289   0.938  0.00  0.00    -0.383 OA
ATOM     34  H   LIG     1     -27.280   5.586   0.271  0.00  0.00     0.210 HD
ENDBRANCH   3  33
BRANCH   6  35
ATOM     35  C   LIG     1     -30.046  11.110  -0.043  0.00  0.00     0.197 C 
BRANCH  35  36
ATOM     36  O   LIG     1     -30.712  10.851  -1.271  0.00  0.00    -0.346 OA
BRANCH  36  37
ATOM     37  C   LIG     1     -31.555  11.936  -1.646  0.00  0.00     0.282 C 
ATOM     38  O   LIG     1     -32.580  12.188  -0.681  0.00  0.00    -0.343 OA
ATOM     39  C   LIG     1     -33.519  11.118  -0.528  0.00  0.00     0.149 C 
ATOM     40  C   LIG     1     -34.226  10.812  -1.855  0.00  0.00     0.174 C 
ATOM     41  C   LIG     1     -34.502  11.539   0.561  0.00  0.00     0.041 C 
ATOM     42  C   LIG     1     -33.195  10.540  -2.950  0.00  0.00     0.179 C 
ATOM     43  C   LIG     1     -32.162  11.666  -3.021  0.00  0.00     0.201 C 
BRANCH  40  44
ATOM     44  O   LIG     1     -35.046   9.653  -1.721  0.00  0.00    -0.387 OA
ATOM     45  H   LIG     1     -35.794   9.744  -2.336  0.00  0.00     0.210 HD
ENDBRANCH  40  44
BRANCH  42  46
ATOM     46  O   LIG     1     -33.863  10.414  -4.204  0.00  0.00    -0.386 OA
ATOM     47  H   LIG     1     -33.568   9.583  -4.614  0.00  0.00     0.210 HD
ENDBRANCH  42  46
BRANCH  43  48
ATOM     48  O   LIG     1     -32.786  12.872  -3.465  0.00  0.00    -0.384 OA
ATOM     49  H   LIG     1     -32.403  13.616  -2.969  0.00  0.00     0.210 HD
ENDBRANCH  43  48
ENDBRANCH  36  37
ENDBRANCH  35  36
ENDBRANCH   6  35
BRANCH   4  50
ATOM     50  O   LIG     1     -27.852   7.107  -1.848  0.00  0.00    -0.386 OA
ATOM     51  H   LIG     1     -27.225   7.480  -2.492  0.00  0.00     0.210 HD
ENDBRANCH   4  50
BRANCH   5  52
ATOM     52  O   LIG     1     -28.162   9.975  -2.021  0.00  0.00    -0.386 OA
ATOM     53  H   LIG     1     -27.767  10.742  -1.573  0.00  0.00     0.210 HD
ENDBRANCH   5  52
TORSDOF 16
ENDMDL
MODEL 8
REMARK VINA RESULT:      -8.1      1.896      2.910
REMARK  16 active torsions:
REMARK  status: ('A' for Active; 'I' for Inactive)
REMARK    1  A    between atoms: C_2  and  O_12 
REMARK    2  A    between atoms: C_3  and  O_10 
REMARK    3  A    between atoms: C_4  and  O_8 
REMARK    4  A    between atoms: C_5  and  O_6 
REMARK    5  A    between atoms: C_38  and  C_39 
REMARK    6  A    between atoms: O_12  and  C_13 
REMARK    7  A    between atoms: C_16  and  O_22 
REMARK    8  A    between atoms: C_18  and  O_20 
REMARK    9  A    between atoms: C_27  and  C_28 
REMARK   10  A    between atoms: C_31  and  O_35 
REMARK   11  A    between atoms: C_32  and  O_33 
REMARK   12  A    between atoms: C_39  and  O_40 
REMARK   13  A    between atoms: O_40  and  C_41 
REMARK   14  A    between atoms: C_42  and  O_51 
REMARK   15  A    between atoms: C_43  and  O_49 
REMARK   16  A    between atoms: C_44  and  O_47 
ROOT
ATOM      1  O   LIG     1     -28.088  10.502   3.469  0.00  0.00    -0.331 OA
ATOM      2  C   LIG     1     -28.674  11.419   4.391  0.00  0.00     0.340 C 
ATOM      3  C   LIG     1     -27.590  12.132   5.200  0.00  0.00     0.214 C 
ATOM      4  C   LIG     1     -26.558  12.792   4.286  0.00  0.00     0.180 C 
ATOM      5  C   LIG     1     -26.071  11.821   3.210  0.00  0.00     0.177 C 
ATOM      6  C   LIG     1     -27.254  11.151   2.507  0.00  0.00     0.179 C 
ENDROOT
BRANCH   2   7
ATOM      7  O   LIG     1     -29.512  10.713   5.305  0.00  0.00    -0.453 OA
BRANCH   7   8
ATOM      8  C   LIG     1     -29.499   9.357   5.062  0.00  0.00     0.214 A 
ATOM      9  C   LIG     1     -30.341   8.757   4.199  0.00  0.00     0.181 A 
ATOM     10  O   LIG     1     -30.376   7.393   3.956  0.00  0.00    -0.451 OA
ATOM     11  C   LIG     1     -29.485   6.587   4.617  0.00  0.00     0.147 A 
ATOM     12  C   LIG     1     -29.538   5.220   4.343  0.00  0.00     0.092 A 
ATOM     13  C   LIG     1     -28.554   7.080   5.529  0.00  0.00     0.109 A 
ATOM     14  C   LIG     1     -28.657   4.349   4.985  0.00  0.00     0.124 A 
ATOM     15  C   LIG     1     -27.726   4.843   5.898  0.00  0.00     0.091 A 
ATOM     16  C   LIG     1     -27.670   6.210   6.174  0.00  0.00     0.135 A 
ATOM     17  C   LIG     1     -28.520   8.525   5.802  0.00  0.00     0.238 A 
ATOM     18  O   LIG     1     -27.729   9.014   6.597  0.00  0.00    -0.283 OA
BRANCH   9  19
ATOM     19  C   LIG     1     -31.348   9.505   3.428  0.00  0.00     0.025 A 
ATOM     20  C   LIG     1     -32.532   9.917   4.039  0.00  0.00     0.015 A 
ATOM     21  C   LIG     1     -33.486  10.625   3.309  0.00  0.00     0.050 A 
ATOM     22  C   LIG     1     -33.257  10.920   1.965  0.00  0.00     0.158 A 
ATOM     23  C   LIG     1     -32.074  10.509   1.352  0.00  0.00     0.159 A 
ATOM     24  C   LIG     1     -31.120   9.801   2.084  0.00  0.00     0.060 A 
BRANCH  22  25
ATOM     25  O   LIG     1     -34.197  11.611   1.261  0.00  0.00    -0.503 OA
ATOM     26  H   LIG     1     -33.953  11.631   0.322  0.00  0.00     0.292 HD
ENDBRANCH  22  25
BRANCH  23  27
ATOM     27  O   LIG     1     -31.838  10.793   0.041  0.00  0.00    -0.503 OA
ATOM     28  H   LIG     1     -30.995  11.267  -0.044  0.00  0.00     0.292 HD
ENDBRANCH  23  27
ENDBRANCH   9  19
BRANCH  14  29
ATOM     29  O   LIG     1     -28.707   3.015   4.719  0.00  0.00    -0.507 OA
ATOM     30  H   LIG     1     -28.117   2.819   3.971  0.00  0.00     0.292 HD
ENDBRANCH  14  29
BRANCH  16  31
ATOM     31  O   LIG     1     -26.742   6.640   7.075  0.00  0.00    -0.506 OA
ATOM     32  H   LIG     1     -27.002   7.513   7.416  0.00  0.00     0.292 HD
ENDBRANCH  16  31
ENDBRANCH   7   8
ENDBRANCH   2   7
BRANCH   3  33
ATOM     33  O   LIG     1     -28.217  13.130   6.006  0.00  0.00    -0.383 OA
ATOM     34  H   LIG     1     -27.520  13.629   6.464  0.00  0.00     0.210 HD
ENDBRANCH   3  33
BRANCH   6  35
ATOM     35  C   LIG     1     -26.794  10.093   1.510  0.00  0.00     0.197 C 
BRANCH  35  36
ATOM     36  O   LIG     1     -27.920   9.622   0.783  0.00  0.00    -0.346 OA
BRANCH  36  37
ATOM     37  C   LIG     1     -27.526   8.848  -0.345  0.00  0.00     0.282 C 
ATOM     38  O   LIG     1     -27.644   9.573  -1.573  0.00  0.00    -0.343 OA
ATOM     39  C   LIG     1     -28.987   9.936  -1.913  0.00  0.00     0.149 C 
ATOM     40  C   LIG     1     -29.877   8.694  -2.046  0.00  0.00     0.174 C 
ATOM     41  C   LIG     1     -28.918  10.733  -3.213  0.00  0.00     0.041 C 
ATOM     42  C   LIG     1     -29.798   7.851  -0.772  0.00  0.00     0.179 C 
ATOM     43  C   LIG     1     -28.344   7.559  -0.398  0.00  0.00     0.201 C 
BRANCH  40  44
ATOM     44  O   LIG     1     -31.236   9.078  -2.240  0.00  0.00    -0.387 OA
ATOM     45  H   LIG     1     -31.421   9.049  -3.194  0.00  0.00     0.210 HD
ENDBRANCH  40  44
BRANCH  42  46
ATOM     46  O   LIG     1     -30.503   6.628  -0.974  0.00  0.00    -0.386 OA
ATOM     47  H   LIG     1     -29.864   5.900  -0.887  0.00  0.00     0.210 HD
ENDBRANCH  42  46
BRANCH  43  48
ATOM     48  O   LIG     1     -27.750   6.707  -1.379  0.00  0.00    -0.384 OA
ATOM     49  H   LIG     1     -28.237   5.866  -1.390  0.00  0.00     0.210 HD
ENDBRANCH  43  48
ENDBRANCH  36  37
ENDBRANCH  35  36
ENDBRANCH   6  35
BRANCH   4  50
ATOM     50  O   LIG     1     -25.426  13.196   5.060  0.00  0.00    -0.386 OA
ATOM     51  H   LIG     1     -24.650  12.729   4.707  0.00  0.00     0.210 HD
ENDBRANCH   4  50
BRANCH   5  52
ATOM     52  O   LIG     1     -25.295  12.533   2.250  0.00  0.00    -0.386 OA
ATOM     53  H   LIG     1     -25.768  13.353   2.029  0.00  0.00     0.210 HD
ENDBRANCH   5  52
TORSDOF 16
ENDMDL
MODEL 9
REMARK VINA RESULT:      -7.9      2.771      8.648
REMARK  16 active torsions:
REMARK  status: ('A' for Active; 'I' for Inactive)
REMARK    1  A    between atoms: C_2  and  O_12 
REMARK    2  A    between atoms: C_3  and  O_10 
REMARK    3  A    between atoms: C_4  and  O_8 
REMARK    4  A    between atoms: C_5  and  O_6 
REMARK    5  A    between atoms: C_38  and  C_39 
REMARK    6  A    between atoms: O_12  and  C_13 
REMARK    7  A    between atoms: C_16  and  O_22 
REMARK    8  A    between atoms: C_18  and  O_20 
REMARK    9  A    between atoms: C_27  and  C_28 
REMARK   10  A    between atoms: C_31  and  O_35 
REMARK   11  A    between atoms: C_32  and  O_33 
REMARK   12  A    between atoms: C_39  and  O_40 
REMARK   13  A    between atoms: O_40  and  C_41 
REMARK   14  A    between atoms: C_42  and  O_51 
REMARK   15  A    between atoms: C_43  and  O_49 
REMARK   16  A    between atoms: C_44  and  O_47 
ROOT
ATOM      1  O   LIG     1     -28.597   9.051   1.528  0.00  0.00    -0.331 OA
ATOM      2  C   LIG     1     -28.282  10.435   1.389  0.00  0.00     0.340 C 
ATOM      3  C   LIG     1     -28.644  11.199   2.662  0.00  0.00     0.214 C 
ATOM      4  C   LIG     1     -27.996  10.566   3.894  0.00  0.00     0.180 C 
ATOM      5  C   LIG     1     -28.223   9.054   3.923  0.00  0.00     0.177 C 
ATOM      6  C   LIG     1     -27.857   8.424   2.577  0.00  0.00     0.179 C 
ENDROOT
BRANCH   2   7
ATOM      7  O   LIG     1     -29.033  10.994   0.312  0.00  0.00    -0.453 OA
BRANCH   7   8
ATOM      8  C   LIG     1     -28.252  11.179  -0.808  0.00  0.00     0.214 A 
ATOM      9  C   LIG     1     -28.269  10.342  -1.862  0.00  0.00     0.181 A 
ATOM     10  O   LIG     1     -27.473  10.481  -2.989  0.00  0.00    -0.451 OA
ATOM     11  C   LIG     1     -26.620  11.552  -3.059  0.00  0.00     0.147 A 
ATOM     12  C   LIG     1     -25.840  11.670  -4.210  0.00  0.00     0.092 A 
ATOM     13  C   LIG     1     -26.510  12.498  -2.043  0.00  0.00     0.109 A 
ATOM     14  C   LIG     1     -24.952  12.738  -4.340  0.00  0.00     0.124 A 
ATOM     15  C   LIG     1     -24.843  13.685  -3.321  0.00  0.00     0.091 A 
ATOM     16  C   LIG     1     -25.621  13.570  -2.168  0.00  0.00     0.135 A 
ATOM     17  C   LIG     1     -27.342  12.349  -0.838  0.00  0.00     0.238 A 
ATOM     18  O   LIG     1     -27.285  13.146   0.089  0.00  0.00    -0.283 OA
BRANCH   9  19
ATOM     19  C   LIG     1     -29.136   9.152  -1.914  0.00  0.00     0.025 A 
ATOM     20  C   LIG     1     -30.482   9.253  -1.560  0.00  0.00     0.015 A 
ATOM     21  C   LIG     1     -31.303   8.127  -1.610  0.00  0.00     0.050 A 
ATOM     22  C   LIG     1     -30.779   6.899  -2.013  0.00  0.00     0.158 A 
ATOM     23  C   LIG     1     -29.434   6.797  -2.367  0.00  0.00     0.159 A 
ATOM     24  C   LIG     1     -28.613   7.924  -2.318  0.00  0.00     0.060 A 
BRANCH  22  25
ATOM     25  O   LIG     1     -31.590   5.806  -2.056  0.00  0.00    -0.503 OA
ATOM     26  H   LIG     1     -31.327   5.232  -2.792  0.00  0.00     0.292 HD
ENDBRANCH  22  25
BRANCH  23  27
ATOM     27  O   LIG     1     -28.911   5.603  -2.764  0.00  0.00    -0.503 OA
ATOM     28  H   LIG     1     -28.652   5.655  -3.699  0.00  0.00     0.292 HD
ENDBRANCH  23  27
ENDBRANCH   9  19
BRANCH  14  29
ATOM     29  O   LIG     1     -24.190  12.855  -5.461  0.00  0.00    -0.507 OA
ATOM     30  H   LIG     1     -24.684  13.365  -6.127  0.00  0.00     0.292 HD
ENDBRANCH  14  29
BRANCH  16  31
ATOM     31  O   LIG     1     -25.476  14.521  -1.205  0.00  0.00    -0.506 OA
ATOM     32  H   LIG     1     -26.040  15.285  -1.415  0.00  0.00     0.292 HD
ENDBRANCH  16  31
ENDBRANCH   7   8
ENDBRANCH   2   7
BRANCH   3  33
ATOM     33  O   LIG     1     -28.186  12.544   2.524  0.00  0.00    -0.383 OA
ATOM     34  H   LIG     1     -28.102  12.737   1.575  0.00  0.00     0.210 HD
ENDBRANCH   3  33
BRANCH   6  35
ATOM     35  C   LIG     1     -28.183   6.934   2.542  0.00  0.00     0.197 C 
BRANCH  35  36
ATOM     36  O   LIG     1     -27.459   6.279   3.574  0.00  0.00    -0.346 OA
BRANCH  36  37
ATOM     37  C   LIG     1     -28.317   5.493   4.394  0.00  0.00     0.282 C 
ATOM     38  O   LIG     1     -28.164   5.790   5.786  0.00  0.00    -0.343 OA
ATOM     39  C   LIG     1     -26.871   5.474   6.314  0.00  0.00     0.149 C 
ATOM     40  C   LIG     1     -26.556   3.982   6.143  0.00  0.00     0.174 C 
ATOM     41  C   LIG     1     -26.874   5.894   7.782  0.00  0.00     0.041 C 
ATOM     42  C   LIG     1     -26.709   3.576   4.677  0.00  0.00     0.179 C 
ATOM     43  C   LIG     1     -28.070   4.009   4.129  0.00  0.00     0.201 C 
BRANCH  40  44
ATOM     44  O   LIG     1     -25.213   3.713   6.540  0.00  0.00    -0.387 OA
ATOM     45  H   LIG     1     -24.965   4.367   7.215  0.00  0.00     0.210 HD
ENDBRANCH  40  44
BRANCH  42  46
ATOM     46  O   LIG     1     -26.567   2.162   4.563  0.00  0.00    -0.386 OA
ATOM     47  H   LIG     1     -26.139   1.975   3.711  0.00  0.00     0.210 HD
ENDBRANCH  42  46
BRANCH  43  48
ATOM     48  O   LIG     1     -29.111   3.273   4.772  0.00  0.00    -0.384 OA
ATOM     49  H   LIG     1     -28.804   3.018   5.659  0.00  0.00     0.210 HD
ENDBRANCH  43  48
ENDBRANCH  36  37
ENDBRANCH  35  36
ENDBRANCH   6  35
BRANCH   4  50
ATOM     50  O   LIG     1     -28.577  11.122   5.075  0.00  0.00    -0.386 OA
ATOM     51  H   LIG     1     -29.488  11.383   4.857  0.00  0.00     0.210 HD
ENDBRANCH   4  50
BRANCH   5  52
ATOM     52  O   LIG     1     -27.417   8.477   4.947  0.00  0.00    -0.386 OA
ATOM     53  H   LIG     1     -27.558   8.986   5.763  0.00  0.00     0.210 HD
ENDBRANCH   5  52
TORSDOF 16
ENDMDL
