REMARK  Name = 7431
REMARK  4 active torsions:
REMARK  status: ('A' for Active; 'I' for Inactive)
REMARK    1  A    between atoms: O_3  and  C_12
REMARK    2  A    between atoms: O_4  and  C_13
REMARK    3  A    between atoms: C_7  and  C_12
REMARK    4  A    between atoms: C_8  and  C_13
REMARK                            x       y       z     vdW  Elec       q    Type
REMARK                         _______ _______ _______ _____ _____    ______ ____
ROOT
ATOM      1  O   UNL     1      -0.000   0.801   0.000  0.00  0.00    +0.000 OA
ATOM      2  O   UNL     1       0.000  -3.247  -0.000  0.00  0.00    +0.000 OA
ATOM      3  C   UNL     1       1.182   0.090   0.000  0.00  0.00    +0.000 A 
ATOM      4  C   UNL     1      -1.182   0.090   0.000  0.00  0.00    +0.000 A 
ATOM      5  C   UNL     1       1.261  -1.246   0.000  0.00  0.00    +0.000 A 
ATOM      6  C   UNL     1      -1.261  -1.246   0.000  0.00  0.00    +0.000 A 
ATOM      7  C   UNL     1       0.000  -2.021   0.000  0.00  0.00    +0.000 A 
ENDROOT
BRANCH   3   9
ATOM      8  O   UNL     1       3.544   0.360  -0.000  0.00  0.00    +0.000 OA
ATOM      9  C   UNL     1       2.429   0.854  -0.000  0.00  0.00    +0.000 C 
BRANCH   9  10
ATOM     10  O   UNL     1       2.153   2.176   0.000  0.00  0.00    +0.000 OA
ATOM     11  H   UNL     1       2.967   2.723   0.000  0.00  0.00    +0.000 HD
ENDBRANCH   9  10
ENDBRANCH   3   9
BRANCH   4  13
ATOM     12  O   UNL     1      -3.544   0.360   0.000  0.00  0.00    +0.000 OA
ATOM     13  C   UNL     1      -2.429   0.854   0.000  0.00  0.00    +0.000 C 
BRANCH  13  14
ATOM     14  O   UNL     1      -2.153   2.176  -0.000  0.00  0.00    +0.000 OA
ATOM     15  H   UNL     1      -2.967   2.723  -0.001  0.00  0.00    +0.000 HD
ENDBRANCH  13  14
ENDBRANCH   4  13
TORSDOF 4
