REMARK WARNING: 32 MAX_TORS EXCEEDED!!!
REMARK  38 active torsions:
REMARK  status: ('A' for Active; 'I' for Inactive)
REMARK    1  A    between atoms: O_2  and  C_27 
REMARK    2  A    between atoms: O_2  and  C_33 
REMARK    3  A    between atoms: O_3  and  C_28 
REMARK    4  A    between atoms: O_3  and  C_34 
REMARK    5  A    between atoms: O_4  and  C_29 
REMARK    6  A    between atoms: O_4  and  C_35 
REMARK    7  A    between atoms: O_5  and  C_31 
REMARK    8  A    between atoms: O_5  and  C_36 
REMARK    9  A    between atoms: O_6  and  C_32 
REMARK   10  A    between atoms: O_6  and  C_39 
REMARK   11  A    between atoms: O_12  and  C_51 
REMARK   12  A    between atoms: O_13  and  C_52 
REMARK   13  A    between atoms: O_14  and  C_53 
REMARK   14  A    between atoms: O_15  and  C_54 
REMARK   15  A    between atoms: O_16  and  C_55 
REMARK   16  A    between atoms: O_17  and  C_56 
REMARK   17  A    between atoms: O_18  and  C_59 
REMARK   18  A    between atoms: O_19  and  C_60 
REMARK   19  A    between atoms: O_20  and  C_61 
REMARK   20  A    between atoms: O_21  and  C_62 
REMARK   21  A    between atoms: O_22  and  C_63 
REMARK   22  A    between atoms: O_23  and  C_64 
REMARK   23  A    between atoms: O_24  and  C_65 
REMARK   24  A    between atoms: O_24  and  C_86 
REMARK   25  A    between atoms: O_25  and  C_66 
REMARK   26  A    between atoms: O_26  and  C_67 
REMARK   27  A    between atoms: C_28  and  C_30 
REMARK   28  A    between atoms: C_29  and  C_31 
REMARK   29  A    between atoms: C_30  and  C_32 
REMARK   30  A    between atoms: C_33  and  C_37 
REMARK   31  A    between atoms: C_34  and  C_38 
REMARK   32  A    between atoms: C_35  and  C_40 
REMARK   33  A    between atoms: C_36  and  C_41 
REMARK   34  A    between atoms: C_39  and  C_42 
REMARK   35  A    between atoms: O_83  and  C_90 
REMARK   36  A    between atoms: O_84  and  C_91 
REMARK   37  A    between atoms: O_85  and  C_92 
REMARK   38  A    between atoms: C_86  and  C_87 
ROOT
HETATM    1  O   UNL     1       0.809   1.100  -0.694  1.00  0.00    -0.348 OA
HETATM    2  C   UNL     1       0.105   0.412   0.246  1.00  0.00     0.201 A 
HETATM    3  C   UNL     1       1.534   0.412   0.246  1.00  0.00     0.282 A 
ENDROOT
BRANCH   2   4
HETATM    4  C   UNL     1       0.105  -0.412   0.246  1.00  0.00     0.199 A 
HETATM    5  C   UNL     1       0.938  -1.035  -0.944  1.00  0.00     0.198 A 
HETATM    6  C   UNL     1       1.534  -0.412   0.246  1.00  0.00     0.215 A 
BRANCH   4   7
HETATM    7  O   UNL     1      -1.224  -0.480  -0.884  1.00  0.00    -0.306 OA
BRANCH   7   8
HETATM    8  C   UNL     1      -2.491  -0.701  -1.189  1.00  0.00     0.294 C 
HETATM    9  O   UNL     1      -2.975  -0.382  -2.270  1.00  0.00    -0.259 OA
BRANCH   8  10
HETATM   10  C   UNL     1      -3.356  -1.406  -0.260  1.00  0.00     0.045 A 
HETATM   11  C   UNL     1      -4.346  -0.670   0.402  1.00  0.00     0.057 A 
HETATM   12  C   UNL     1      -5.452  -1.345   0.899  1.00  0.00     0.102 A 
HETATM   13  C   UNL     1      -5.551  -2.727   0.756  1.00  0.00     0.132 A 
HETATM   14  C   UNL     1      -4.543  -3.449   0.126  1.00  0.00     0.102 A 
HETATM   15  C   UNL     1      -3.450  -2.792  -0.411  1.00  0.00     0.057 A 
BRANCH  12  16
HETATM   16  O   UNL     1      -6.502  -0.677   1.465  1.00  0.00    -0.358 OA
HETATM   17  H   UNL     1      -6.285   0.274   1.462  1.00  0.00     0.217 HD
ENDBRANCH  12  16
BRANCH  13  18
HETATM   18  O   UNL     1      -6.677  -3.388   1.167  1.00  0.00    -0.356 OA
HETATM   19  H   UNL     1      -7.273  -2.674   1.474  1.00  0.00     0.218 HD
ENDBRANCH  13  18
BRANCH  14  20
HETATM   20  O   UNL     1      -4.662  -4.799  -0.040  1.00  0.00    -0.358 OA
HETATM   21  H   UNL     1      -5.555  -5.001   0.312  1.00  0.00     0.217 HD
ENDBRANCH  14  20
ENDBRANCH   8  10
ENDBRANCH   7   8
ENDBRANCH   4   7
BRANCH   5  22
HETATM   22  O   UNL     1       0.886  -2.573  -0.858  1.00  0.00    -0.306 OA
BRANCH  22  23
HETATM   23  C   UNL     1       0.190  -3.234   0.137  1.00  0.00     0.294 C 
HETATM   24  O   UNL     1      -0.501  -2.748   1.024  1.00  0.00    -0.259 OA
BRANCH  23  25
HETATM   25  C   UNL     1       0.343  -4.685   0.109  1.00  0.00     0.045 A 
HETATM   26  C   UNL     1      -0.807  -5.493   0.099  1.00  0.00     0.057 A 
HETATM   27  C   UNL     1      -0.659  -6.872   0.095  1.00  0.00     0.102 A 
HETATM   28  C   UNL     1       0.613  -7.429   0.132  1.00  0.00     0.132 A 
HETATM   29  C   UNL     1       1.734  -6.618   0.257  1.00  0.00     0.102 A 
HETATM   30  C   UNL     1       1.610  -5.240   0.263  1.00  0.00     0.057 A 
BRANCH  27  31
HETATM   31  O   UNL     1      -1.733  -7.714   0.060  1.00  0.00    -0.358 OA
HETATM   32  H   UNL     1      -2.544  -7.187   0.192  1.00  0.00     0.217 HD
ENDBRANCH  27  31
BRANCH  28  33
HETATM   33  O   UNL     1       0.781  -8.784   0.053  1.00  0.00    -0.356 OA
HETATM   34  H   UNL     1      -0.122  -9.126  -0.110  1.00  0.00     0.218 HD
ENDBRANCH  28  33
BRANCH  29  35
HETATM   35  O   UNL     1       2.974  -7.168   0.375  1.00  0.00    -0.358 OA
HETATM   36  H   UNL     1       2.830  -8.131   0.294  1.00  0.00     0.217 HD
ENDBRANCH  29  35
ENDBRANCH  23  25
ENDBRANCH  22  23
ENDBRANCH   5  22
BRANCH   6  37
HETATM   37  O   UNL     1       3.106  -0.858   0.436  1.00  0.00    -0.304 OA
BRANCH  37  38
HETATM   38  C   UNL     1       4.117  -0.618  -0.442  1.00  0.00     0.294 C 
HETATM   39  O   UNL     1       4.126   0.167  -1.367  1.00  0.00    -0.259 OA
BRANCH  38  40
HETATM   40  C   UNL     1       5.215  -1.527  -0.104  1.00  0.00     0.045 A 
HETATM   41  C   UNL     1       4.930  -2.894  -0.106  1.00  0.00     0.057 A 
HETATM   42  C   UNL     1       5.939  -3.792   0.176  1.00  0.00     0.102 A 
HETATM   43  C   UNL     1       7.223  -3.340   0.439  1.00  0.00     0.132 A 
HETATM   44  C   UNL     1       7.510  -1.976   0.410  1.00  0.00     0.102 A 
HETATM   45  C   UNL     1       6.507  -1.051   0.141  1.00  0.00     0.057 A 
BRANCH  42  46
HETATM   46  O   UNL     1       5.649  -5.121   0.167  1.00  0.00    -0.358 OA
HETATM   47  H   UNL     1       6.491  -5.571   0.375  1.00  0.00     0.217 HD
ENDBRANCH  42  46
BRANCH  43  48
HETATM   48  O   UNL     1       8.205  -4.255   0.699  1.00  0.00    -0.356 OA
HETATM   49  H   UNL     1       9.008  -3.713   0.838  1.00  0.00     0.218 HD
ENDBRANCH  43  48
BRANCH  44  50
HETATM   50  O   UNL     1       8.805  -1.598   0.630  1.00  0.00    -0.358 OA
HETATM   51  H   UNL     1       8.881  -0.646   0.436  1.00  0.00     0.217 HD
ENDBRANCH  44  50
ENDBRANCH  38  40
ENDBRANCH  37  38
ENDBRANCH   6  37
ENDBRANCH   2   4
BRANCH   2  52
HETATM   52  C   UNL     1      -1.047   0.834   1.359  1.00  0.00     0.216 C 
BRANCH  52  53
HETATM   53  O   UNL     1      -1.693   1.987   0.827  1.00  0.00    -0.315 OA
BRANCH  53  54
HETATM   54  C   UNL     1      -2.281   2.756   1.755  1.00  0.00     0.293 C 
HETATM   55  O   UNL     1      -2.958   2.373   2.689  1.00  0.00    -0.259 OA
BRANCH  54  56
HETATM   56  C   UNL     1      -2.013   4.153   1.373  1.00  0.00     0.045 C 
HETATM   57  C   UNL     1      -0.870   4.517   0.635  1.00  0.00     0.057 C 
HETATM   58  C   UNL     1      -0.702   5.829   0.231  1.00  0.00     0.102 C 
HETATM   59  C   UNL     1      -1.725   6.742   0.422  1.00  0.00     0.133 C 
HETATM   60  C   UNL     1      -2.904   6.324   1.044  1.00  0.00     0.116 C 
HETATM   61  C   UNL     1      -3.003   5.082   1.658  1.00  0.00     0.058 C 
BRANCH  58  62
HETATM   62  O   UNL     1       0.426   6.195  -0.445  1.00  0.00    -0.358 OA
HETATM   63  H   UNL     1       0.252   7.119  -0.721  1.00  0.00     0.217 HD
ENDBRANCH  58  62
BRANCH  59  64
HETATM   64  O   UNL     1      -1.565   7.988  -0.113  1.00  0.00    -0.356 OA
HETATM   65  H   UNL     1      -2.418   8.458  -0.034  1.00  0.00     0.218 HD
ENDBRANCH  59  64
BRANCH  60  66
HETATM   66  O   UNL     1      -4.096   7.019   0.840  1.00  0.00    -0.272 OA
BRANCH  66  67
HETATM   67  C   UNL     1      -4.480   6.732  -0.464  1.00  0.00     0.298 C 
HETATM   68  O   UNL     1      -4.420   7.549  -1.370  1.00  0.00    -0.259 OA
BRANCH  67  69
HETATM   69  C   UNL     1      -5.004   5.350  -0.654  1.00  0.00     0.045 A 
HETATM   70  C   UNL     1      -4.254   4.431  -1.405  1.00  0.00     0.057 A 
HETATM   71  C   UNL     1      -4.708   3.123  -1.534  1.00  0.00     0.102 A 
HETATM   72  C   UNL     1      -5.914   2.740  -0.965  1.00  0.00     0.132 A 
HETATM   73  C   UNL     1      -6.670   3.666  -0.248  1.00  0.00     0.102 A 
HETATM   74  C   UNL     1      -6.216   4.971  -0.063  1.00  0.00     0.057 A 
BRANCH  71  75
HETATM   75  O   UNL     1      -3.934   2.254  -2.238  1.00  0.00    -0.358 OA
HETATM   76  H   UNL     1      -4.355   1.368  -2.236  1.00  0.00     0.217 HD
ENDBRANCH  71  75
BRANCH  72  77
HETATM   77  O   UNL     1      -6.365   1.460  -1.121  1.00  0.00    -0.356 OA
HETATM   78  H   UNL     1      -7.284   1.468  -0.782  1.00  0.00     0.218 HD
ENDBRANCH  72  77
BRANCH  73  79
HETATM   79  O   UNL     1      -7.871   3.244   0.253  1.00  0.00    -0.358 OA
HETATM   80  H   UNL     1      -8.398   4.029   0.492  1.00  0.00     0.217 HD
ENDBRANCH  73  79
ENDBRANCH  67  69
ENDBRANCH  66  67
ENDBRANCH  60  66
ENDBRANCH  54  56
ENDBRANCH  53  54
ENDBRANCH  52  53
ENDBRANCH   2  52
BRANCH   3  81
HETATM   81  O   UNL     1       1.891   1.083   1.611  1.00  0.00    -0.285 OA
BRANCH  81  82
HETATM   82  C   UNL     1       2.041   2.431   1.711  1.00  0.00     0.295 C 
HETATM   83  O   UNL     1       1.228   3.110   2.323  1.00  0.00    -0.259 OA
BRANCH  82  84
HETATM   84  C   UNL     1       3.296   3.033   1.184  1.00  0.00     0.045 A 
HETATM   85  C   UNL     1       4.527   2.368   1.253  1.00  0.00     0.057 A 
HETATM   86  C   UNL     1       5.681   3.029   0.836  1.00  0.00     0.102 A 
HETATM   87  C   UNL     1       5.625   4.341   0.377  1.00  0.00     0.132 A 
HETATM   88  C   UNL     1       4.411   5.009   0.324  1.00  0.00     0.102 A 
HETATM   89  C   UNL     1       3.245   4.365   0.728  1.00  0.00     0.057 A 
BRANCH  86  90
HETATM   90  O   UNL     1       6.892   2.398   0.895  1.00  0.00    -0.358 OA
HETATM   91  H   UNL     1       7.523   3.070   0.558  1.00  0.00     0.217 HD
ENDBRANCH  86  90
BRANCH  87  92
HETATM   92  O   UNL     1       6.787   4.962   0.003  1.00  0.00    -0.356 OA
HETATM   93  H   UNL     1       6.506   5.865  -0.257  1.00  0.00     0.218 HD
ENDBRANCH  87  92
BRANCH  88  94
HETATM   94  O   UNL     1       4.415   6.305  -0.113  1.00  0.00    -0.358 OA
HETATM   95  H   UNL     1       3.492   6.620  -0.130  1.00  0.00     0.217 HD
ENDBRANCH  88  94
ENDBRANCH  82  84
ENDBRANCH  81  82
ENDBRANCH   3  81
TORSDOF 38
