MODEL 1
REMARK VINA RESULT:      -7.9      0.000      0.000
REMARK  13 active torsions:
REMARK  status: ('A' for Active; 'I' for Inactive)
REMARK    1  A    between atoms: O_2  and  C_16 
REMARK    2  A    between atoms: O_2  and  C_17 
REMARK    3  A    between atoms: O_4  and  C_12 
REMARK    4  A    between atoms: O_5  and  C_13 
REMARK    5  A    between atoms: O_6  and  C_15 
REMARK    6  A    between atoms: O_6  and  C_22 
REMARK    7  A    between atoms: O_7  and  C_14 
REMARK    8  A    between atoms: O_8  and  C_18 
REMARK    9  A    between atoms: O_9  and  C_19 
REMARK   10  A    between atoms: O_10  and  C_20 
REMARK   11  A    between atoms: C_11  and  C_16 
REMARK   12  A    between atoms: C_22  and  C_23 
REMARK   13  A    between atoms: C_24  and  C_25 
ROOT
HETATM    1  O   UNK     0     182.646 181.130 173.038  0.00  0.00    -0.348 OA
HETATM    2  C   UNK     0     183.126 182.462 173.231  0.00  0.00     0.180 C 
HETATM    3  C   UNK     0     182.058 183.306 173.930  0.00  0.00     0.180 C 
HETATM    4  C   UNK     0     180.748 183.282 173.144  0.00  0.00     0.183 C 
HETATM    5  C   UNK     0     180.342 181.852 172.788  0.00  0.00     0.204 C 
HETATM    6  C   UNK     0     181.510 181.078 172.180  0.00  0.00     0.291 C 
ENDROOT
BRANCH   2   7
HETATM    7  C   UNK     0     184.408 182.375 174.055  0.00  0.00     0.205 C 
BRANCH   7   8
HETATM    8  O   UNK     0     185.274 183.420 173.651  0.00  0.00    -0.356 OA
BRANCH   8   9
HETATM    9  C   UNK     0     185.749 184.172 174.763  0.00  0.00     0.290 C 
HETATM   10  O   UNK     0     185.181 185.486 174.803  0.00  0.00    -0.356 OA
HETATM   11  C   UNK     0     185.593 186.323 173.726  0.00  0.00     0.205 C 
HETATM   12  C   UNK     0     187.104 186.514 173.742  0.00  0.00     0.173 C 
HETATM   13  C   UNK     0     187.819 185.163 173.663  0.00  0.00     0.182 C 
HETATM   14  C   UNK     0     187.284 184.220 174.745  0.00  0.00     0.204 C 
BRANCH  12  15
HETATM   15  O   UNK     0     187.511 187.338 172.659  0.00  0.00    -0.391 OA
HETATM   16  H   UNK     0     186.930 188.119 172.649  0.00  0.00     0.210 HD
ENDBRANCH  12  15
BRANCH  13  17
HETATM   17  O   UNK     0     187.598 184.588 172.376  0.00  0.00    -0.390 OA
HETATM   18  H   UNK     0     188.466 184.486 171.948  0.00  0.00     0.210 HD
ENDBRANCH  13  17
BRANCH  14  19
HETATM   19  O   UNK     0     187.726 184.669 176.025  0.00  0.00    -0.388 OA
HETATM   20  H   UNK     0     188.538 185.189 175.903  0.00  0.00     0.210 HD
ENDBRANCH  14  19
ENDBRANCH   8   9
ENDBRANCH   7   8
ENDBRANCH   2   7
BRANCH   6  21
HETATM   21  O   UNK     0     181.098 179.722 172.008  0.00  0.00    -0.355 OA
BRANCH  21  22
HETATM   22  C   UNK     0     182.084 178.818 172.481  0.00  0.00     0.198 C 
BRANCH  22  23
HETATM   23  C   UNK     0     181.888 177.498 171.808  0.00  0.00     0.000 C 
HETATM   24  C   UNK     0     181.838 176.333 172.472  0.00  0.00     0.009 C 
BRANCH  24  25
HETATM   25  C   UNK     0     181.632 175.011 171.854  0.00  0.00    -0.036 A 
HETATM   26  C   UNK     0     182.528 174.562 170.897  0.00  0.00     0.011 A 
HETATM   27  C   UNK     0     182.333 173.310 170.312  0.00  0.00     0.001 A 
HETATM   28  C   UNK     0     181.245 172.525 170.693  0.00  0.00     0.000 A 
HETATM   29  C   UNK     0     180.352 172.990 171.657  0.00  0.00     0.001 A 
HETATM   30  C   UNK     0     180.547 174.242 172.242  0.00  0.00     0.011 A 
ENDBRANCH  24  25
ENDBRANCH  22  23
ENDBRANCH  21  22
ENDBRANCH   6  21
BRANCH   3  31
HETATM   31  O   UNK     0     182.518 184.651 174.040  0.00  0.00    -0.390 OA
HETATM   32  H   UNK     0     183.102 184.705 174.817  0.00  0.00     0.210 HD
ENDBRANCH   3  31
BRANCH   5  33
HETATM   33  O   UNK     0     179.280 181.885 171.834  0.00  0.00    -0.388 OA
HETATM   34  H   UNK     0     179.666 181.766 170.950  0.00  0.00     0.210 HD
ENDBRANCH   5  33
BRANCH   4  35
HETATM   35  O   UNK     0     179.734 183.877 173.957  0.00  0.00    -0.390 OA
HETATM   36  H   UNK     0     179.837 183.520 174.856  0.00  0.00     0.210 HD
ENDBRANCH   4  35
TORSDOF 13
ENDMDL
MODEL 2
REMARK VINA RESULT:      -7.8      5.536      9.592
REMARK  13 active torsions:
REMARK  status: ('A' for Active; 'I' for Inactive)
REMARK    1  A    between atoms: O_2  and  C_16 
REMARK    2  A    between atoms: O_2  and  C_17 
REMARK    3  A    between atoms: O_4  and  C_12 
REMARK    4  A    between atoms: O_5  and  C_13 
REMARK    5  A    between atoms: O_6  and  C_15 
REMARK    6  A    between atoms: O_6  and  C_22 
REMARK    7  A    between atoms: O_7  and  C_14 
REMARK    8  A    between atoms: O_8  and  C_18 
REMARK    9  A    between atoms: O_9  and  C_19 
REMARK   10  A    between atoms: O_10  and  C_20 
REMARK   11  A    between atoms: C_11  and  C_16 
REMARK   12  A    between atoms: C_22  and  C_23 
REMARK   13  A    between atoms: C_24  and  C_25 
ROOT
HETATM    1  O   UNK     0     181.789 186.508 170.803  0.00  0.00    -0.348 OA
HETATM    2  C   UNK     0     182.334 186.130 172.068  0.00  0.00     0.180 C 
HETATM    3  C   UNK     0     181.782 184.765 172.488  0.00  0.00     0.180 C 
HETATM    4  C   UNK     0     180.254 184.782 172.510  0.00  0.00     0.183 C 
HETATM    5  C   UNK     0     179.688 185.362 171.213  0.00  0.00     0.204 C 
HETATM    6  C   UNK     0     180.374 186.677 170.846  0.00  0.00     0.291 C 
ENDROOT
BRANCH   2   7
HETATM    7  C   UNK     0     183.853 186.105 171.926  0.00  0.00     0.205 C 
BRANCH   7   8
HETATM    8  O   UNK     0     184.424 185.976 173.215  0.00  0.00    -0.356 OA
BRANCH   8   9
HETATM    9  C   UNK     0     185.806 185.639 173.149  0.00  0.00     0.290 C 
HETATM   10  O   UNK     0     186.016 184.347 172.568  0.00  0.00    -0.356 OA
HETATM   11  C   UNK     0     185.522 183.272 173.364  0.00  0.00     0.205 C 
HETATM   12  C   UNK     0     186.215 183.245 174.720  0.00  0.00     0.173 C 
HETATM   13  C   UNK     0     186.021 184.574 175.451  0.00  0.00     0.182 C 
HETATM   14  C   UNK     0     186.436 185.739 174.547  0.00  0.00     0.204 C 
BRANCH  12  15
HETATM   15  O   UNK     0     185.710 182.180 175.513  0.00  0.00    -0.391 OA
HETATM   16  H   UNK     0     186.389 181.483 175.536  0.00  0.00     0.210 HD
ENDBRANCH  12  15
BRANCH  13  17
HETATM   17  O   UNK     0     184.648 184.716 175.814  0.00  0.00    -0.390 OA
HETATM   18  H   UNK     0     184.609 185.308 176.585  0.00  0.00     0.210 HD
ENDBRANCH  13  17
BRANCH  14  19
HETATM   19  O   UNK     0     187.854 185.737 174.393  0.00  0.00    -0.388 OA
HETATM   20  H   UNK     0     188.127 186.606 174.054  0.00  0.00     0.210 HD
ENDBRANCH  14  19
ENDBRANCH   8   9
ENDBRANCH   7   8
ENDBRANCH   2   7
BRANCH   6  21
HETATM   21  O   UNK     0     179.897 187.078 169.563  0.00  0.00    -0.355 OA
BRANCH  21  22
HETATM   22  C   UNK     0     179.747 188.487 169.485  0.00  0.00     0.198 C 
BRANCH  22  23
HETATM   23  C   UNK     0     178.612 188.899 170.368  0.00  0.00     0.000 C 
HETATM   24  C   UNK     0     178.415 190.163 170.773  0.00  0.00     0.009 C 
BRANCH  24  25
HETATM   25  C   UNK     0     177.305 190.617 171.629  0.00  0.00    -0.036 A 
HETATM   26  C   UNK     0     176.096 190.961 171.047  0.00  0.00     0.011 A 
HETATM   27  C   UNK     0     175.045 191.392 171.857  0.00  0.00     0.001 A 
HETATM   28  C   UNK     0     175.218 191.471 173.239  0.00  0.00     0.000 A 
HETATM   29  C   UNK     0     176.441 191.121 173.810  0.00  0.00     0.001 A 
HETATM   30  C   UNK     0     177.492 190.691 173.000  0.00  0.00     0.011 A 
ENDBRANCH  24  25
ENDBRANCH  22  23
ENDBRANCH  21  22
ENDBRANCH   6  21
BRANCH   3  31
HETATM   31  O   UNK     0     182.269 184.439 173.787  0.00  0.00    -0.390 OA
HETATM   32  H   UNK     0     182.179 183.478 173.909  0.00  0.00     0.210 HD
ENDBRANCH   3  31
BRANCH   5  33
HETATM   33  O   UNK     0     178.293 185.615 171.377  0.00  0.00    -0.388 OA
HETATM   34  H   UNK     0     178.163 186.035 172.244  0.00  0.00     0.210 HD
ENDBRANCH   5  33
BRANCH   4  35
HETATM   35  O   UNK     0     179.800 183.437 172.668  0.00  0.00    -0.390 OA
HETATM   36  H   UNK     0     180.379 182.869 172.132  0.00  0.00     0.210 HD
ENDBRANCH   4  35
TORSDOF 13
ENDMDL
MODEL 3
REMARK VINA RESULT:      -7.8      7.939      9.515
REMARK  13 active torsions:
REMARK  status: ('A' for Active; 'I' for Inactive)
REMARK    1  A    between atoms: O_2  and  C_16 
REMARK    2  A    between atoms: O_2  and  C_17 
REMARK    3  A    between atoms: O_4  and  C_12 
REMARK    4  A    between atoms: O_5  and  C_13 
REMARK    5  A    between atoms: O_6  and  C_15 
REMARK    6  A    between atoms: O_6  and  C_22 
REMARK    7  A    between atoms: O_7  and  C_14 
REMARK    8  A    between atoms: O_8  and  C_18 
REMARK    9  A    between atoms: O_9  and  C_19 
REMARK   10  A    between atoms: O_10  and  C_20 
REMARK   11  A    between atoms: C_11  and  C_16 
REMARK   12  A    between atoms: C_22  and  C_23 
REMARK   13  A    between atoms: C_24  and  C_25 
ROOT
HETATM    1  O   UNK     0     184.488 187.709 167.667  0.00  0.00    -0.348 OA
HETATM    2  C   UNK     0     185.739 188.312 167.999  0.00  0.00     0.180 C 
HETATM    3  C   UNK     0     185.578 189.203 169.233  0.00  0.00     0.180 C 
HETATM    4  C   UNK     0     184.484 190.247 169.010  0.00  0.00     0.183 C 
HETATM    5  C   UNK     0     183.203 189.602 168.479  0.00  0.00     0.204 C 
HETATM    6  C   UNK     0     183.496 188.667 167.307  0.00  0.00     0.291 C 
ENDROOT
BRANCH   2   7
HETATM    7  C   UNK     0     186.743 187.189 168.240  0.00  0.00     0.205 C 
BRANCH   7   8
HETATM    8  O   UNK     0     187.121 187.208 169.604  0.00  0.00    -0.356 OA
BRANCH   8   9
HETATM    9  C   UNK     0     186.875 185.957 170.237  0.00  0.00     0.290 C 
HETATM   10  O   UNK     0     185.707 185.995 171.065  0.00  0.00    -0.356 OA
HETATM   11  C   UNK     0     185.837 186.844 172.203  0.00  0.00     0.205 C 
HETATM   12  C   UNK     0     186.976 186.371 173.098  0.00  0.00     0.173 C 
HETATM   13  C   UNK     0     188.292 186.329 172.319  0.00  0.00     0.182 C 
HETATM   14  C   UNK     0     188.116 185.519 171.031  0.00  0.00     0.204 C 
BRANCH  12  15
HETATM   15  O   UNK     0     187.109 187.227 174.224  0.00  0.00    -0.391 OA
HETATM   16  H   UNK     0     187.141 188.142 173.895  0.00  0.00     0.210 HD
ENDBRANCH  12  15
BRANCH  13  17
HETATM   17  O   UNK     0     188.691 187.660 171.997  0.00  0.00    -0.390 OA
HETATM   18  H   UNK     0     189.389 187.601 171.322  0.00  0.00     0.210 HD
ENDBRANCH  13  17
BRANCH  14  19
HETATM   19  O   UNK     0     187.967 184.139 171.356  0.00  0.00    -0.388 OA
HETATM   20  H   UNK     0     188.599 183.920 172.062  0.00  0.00     0.210 HD
ENDBRANCH  14  19
ENDBRANCH   8   9
ENDBRANCH   7   8
ENDBRANCH   2   7
BRANCH   6  21
HETATM   21  O   UNK     0     182.283 188.000 166.963  0.00  0.00    -0.355 OA
BRANCH  21  22
HETATM   22  C   UNK     0     181.837 188.374 165.669  0.00  0.00     0.198 C 
BRANCH  22  23
HETATM   23  C   UNK     0     181.133 187.209 165.048  0.00  0.00     0.000 C 
HETATM   24  C   UNK     0     179.957 187.314 164.410  0.00  0.00     0.009 C 
BRANCH  24  25
HETATM   25  C   UNK     0     179.235 186.201 163.771  0.00  0.00    -0.036 A 
HETATM   26  C   UNK     0     178.057 185.741 164.338  0.00  0.00     0.011 A 
HETATM   27  C   UNK     0     177.373 184.686 163.733  0.00  0.00     0.001 A 
HETATM   28  C   UNK     0     177.876 184.106 162.569  0.00  0.00     0.000 A 
HETATM   29  C   UNK     0     179.063 184.579 162.010  0.00  0.00     0.001 A 
HETATM   30  C   UNK     0     179.747 185.634 162.615  0.00  0.00     0.011 A 
ENDBRANCH  24  25
ENDBRANCH  22  23
ENDBRANCH  21  22
ENDBRANCH   6  21
BRANCH   3  31
HETATM   31  O   UNK     0     186.812 189.863 169.503  0.00  0.00    -0.390 OA
HETATM   32  H   UNK     0     187.503 189.183 169.589  0.00  0.00     0.210 HD
ENDBRANCH   3  31
BRANCH   5  33
HETATM   33  O   UNK     0     182.312 190.622 168.028  0.00  0.00    -0.388 OA
HETATM   34  H   UNK     0     181.501 190.193 167.707  0.00  0.00     0.210 HD
ENDBRANCH   5  33
BRANCH   4  35
HETATM   35  O   UNK     0     184.216 190.880 170.262  0.00  0.00    -0.390 OA
HETATM   36  H   UNK     0     183.288 191.172 170.248  0.00  0.00     0.210 HD
ENDBRANCH   4  35
TORSDOF 13
ENDMDL
MODEL 4
REMARK VINA RESULT:      -7.8      1.147      1.565
REMARK  13 active torsions:
REMARK  status: ('A' for Active; 'I' for Inactive)
REMARK    1  A    between atoms: O_2  and  C_16 
REMARK    2  A    between atoms: O_2  and  C_17 
REMARK    3  A    between atoms: O_4  and  C_12 
REMARK    4  A    between atoms: O_5  and  C_13 
REMARK    5  A    between atoms: O_6  and  C_15 
REMARK    6  A    between atoms: O_6  and  C_22 
REMARK    7  A    between atoms: O_7  and  C_14 
REMARK    8  A    between atoms: O_8  and  C_18 
REMARK    9  A    between atoms: O_9  and  C_19 
REMARK   10  A    between atoms: O_10  and  C_20 
REMARK   11  A    between atoms: C_11  and  C_16 
REMARK   12  A    between atoms: C_22  and  C_23 
REMARK   13  A    between atoms: C_24  and  C_25 
ROOT
HETATM    1  O   UNK     0     182.610 181.068 173.573  0.00  0.00    -0.348 OA
HETATM    2  C   UNK     0     183.125 182.391 173.422  0.00  0.00     0.180 C 
HETATM    3  C   UNK     0     182.066 183.415 173.839  0.00  0.00     0.180 C 
HETATM    4  C   UNK     0     180.775 183.213 173.047  0.00  0.00     0.183 C 
HETATM    5  C   UNK     0     180.335 181.748 173.069  0.00  0.00     0.204 C 
HETATM    6  C   UNK     0     181.494 180.815 172.724  0.00  0.00     0.291 C 
ENDROOT
BRANCH   2   7
HETATM    7  C   UNK     0     184.383 182.498 174.280  0.00  0.00     0.205 C 
BRANCH   7   8
HETATM    8  O   UNK     0     185.157 183.586 173.811  0.00  0.00    -0.356 OA
BRANCH   8   9
HETATM    9  C   UNK     0     185.676 184.365 174.884  0.00  0.00     0.290 C 
HETATM   10  O   UNK     0     185.213 185.720 174.837  0.00  0.00    -0.356 OA
HETATM   11  C   UNK     0     185.702 186.456 173.718  0.00  0.00     0.205 C 
HETATM   12  C   UNK     0     187.223 186.529 173.746  0.00  0.00     0.173 C 
HETATM   13  C   UNK     0     187.830 185.125 173.759  0.00  0.00     0.182 C 
HETATM   14  C   UNK     0     187.211 184.293 174.887  0.00  0.00     0.204 C 
BRANCH  12  15
HETATM   15  O   UNK     0     187.705 187.252 172.623  0.00  0.00    -0.391 OA
HETATM   16  H   UNK     0     187.999 188.124 172.939  0.00  0.00     0.210 HD
ENDBRANCH  12  15
BRANCH  13  17
HETATM   17  O   UNK     0     187.579 184.491 172.506  0.00  0.00    -0.390 OA
HETATM   18  H   UNK     0     187.051 185.106 171.968  0.00  0.00     0.210 HD
ENDBRANCH  13  17
BRANCH  14  19
HETATM   19  O   UNK     0     187.673 184.783 176.144  0.00  0.00    -0.388 OA
HETATM   20  H   UNK     0     188.283 185.522 175.981  0.00  0.00     0.210 HD
ENDBRANCH  14  19
ENDBRANCH   8   9
ENDBRANCH   7   8
ENDBRANCH   2   7
BRANCH   6  21
HETATM   21  O   UNK     0     181.046 179.472 172.904  0.00  0.00    -0.355 OA
BRANCH  21  22
HETATM   22  C   UNK     0     181.785 178.568 172.098  0.00  0.00     0.198 C 
BRANCH  22  23
HETATM   23  C   UNK     0     181.110 177.234 172.130  0.00  0.00     0.000 C 
HETATM   24  C   UNK     0     180.309 176.838 173.130  0.00  0.00     0.009 C 
BRANCH  24  25
HETATM   25  C   UNK     0     179.612 175.541 173.198  0.00  0.00    -0.036 A 
HETATM   26  C   UNK     0     180.294 174.385 172.852  0.00  0.00     0.011 A 
HETATM   27  C   UNK     0     179.634 173.157 172.916  0.00  0.00     0.001 A 
HETATM   28  C   UNK     0     178.302 173.103 173.326  0.00  0.00     0.000 A 
HETATM   29  C   UNK     0     177.629 174.274 173.671  0.00  0.00     0.001 A 
HETATM   30  C   UNK     0     178.289 175.502 173.607  0.00  0.00     0.011 A 
ENDBRANCH  24  25
ENDBRANCH  22  23
ENDBRANCH  21  22
ENDBRANCH   6  21
BRANCH   3  31
HETATM   31  O   UNK     0     182.563 184.730 173.605  0.00  0.00    -0.390 OA
HETATM   32  H   UNK     0     182.446 185.245 174.422  0.00  0.00     0.210 HD
ENDBRANCH   3  31
BRANCH   5  33
HETATM   33  O   UNK     0     179.299 181.552 172.108  0.00  0.00    -0.388 OA
HETATM   34  H   UNK     0     179.714 181.436 171.236  0.00  0.00     0.210 HD
ENDBRANCH   5  33
BRANCH   4  35
HETATM   35  O   UNK     0     179.760 184.024 173.642  0.00  0.00    -0.390 OA
HETATM   36  H   UNK     0     179.260 184.440 172.920  0.00  0.00     0.210 HD
ENDBRANCH   4  35
TORSDOF 13
ENDMDL
MODEL 5
REMARK VINA RESULT:      -7.7      5.875      8.194
REMARK  13 active torsions:
REMARK  status: ('A' for Active; 'I' for Inactive)
REMARK    1  A    between atoms: O_2  and  C_16 
REMARK    2  A    between atoms: O_2  and  C_17 
REMARK    3  A    between atoms: O_4  and  C_12 
REMARK    4  A    between atoms: O_5  and  C_13 
REMARK    5  A    between atoms: O_6  and  C_15 
REMARK    6  A    between atoms: O_6  and  C_22 
REMARK    7  A    between atoms: O_7  and  C_14 
REMARK    8  A    between atoms: O_8  and  C_18 
REMARK    9  A    between atoms: O_9  and  C_19 
REMARK   10  A    between atoms: O_10  and  C_20 
REMARK   11  A    between atoms: C_11  and  C_16 
REMARK   12  A    between atoms: C_22  and  C_23 
REMARK   13  A    between atoms: C_24  and  C_25 
ROOT
HETATM    1  O   UNK     0     186.797 183.405 169.126  0.00  0.00    -0.348 OA
HETATM    2  C   UNK     0     187.084 183.921 170.427  0.00  0.00     0.180 C 
HETATM    3  C   UNK     0     188.034 185.116 170.317  0.00  0.00     0.180 C 
HETATM    4  C   UNK     0     189.307 184.730 169.565  0.00  0.00     0.183 C 
HETATM    5  C   UNK     0     188.980 184.013 168.254  0.00  0.00     0.204 C 
HETATM    6  C   UNK     0     187.957 182.899 168.471  0.00  0.00     0.291 C 
ENDROOT
BRANCH   2   7
HETATM    7  C   UNK     0     185.757 184.311 171.071  0.00  0.00     0.205 C 
BRANCH   7   8
HETATM    8  O   UNK     0     186.016 184.805 172.372  0.00  0.00    -0.356 OA
BRANCH   8   9
HETATM    9  C   UNK     0     185.455 183.966 173.377  0.00  0.00     0.290 C 
HETATM   10  O   UNK     0     184.360 184.595 174.051  0.00  0.00    -0.356 OA
HETATM   11  C   UNK     0     184.739 185.724 174.835  0.00  0.00     0.205 C 
HETATM   12  C   UNK     0     185.727 185.316 175.920  0.00  0.00     0.173 C 
HETATM   13  C   UNK     0     186.965 184.662 175.304  0.00  0.00     0.182 C 
HETATM   14  C   UNK     0     186.549 183.527 174.363  0.00  0.00     0.204 C 
BRANCH  12  15
HETATM   15  O   UNK     0     186.111 186.447 176.690  0.00  0.00    -0.391 OA
HETATM   16  H   UNK     0     185.419 186.598 177.356  0.00  0.00     0.210 HD
ENDBRANCH  12  15
BRANCH  13  17
HETATM   17  O   UNK     0     187.702 185.642 174.575  0.00  0.00    -0.390 OA
HETATM   18  H   UNK     0     187.724 185.358 173.644  0.00  0.00     0.210 HD
ENDBRANCH  13  17
BRANCH  14  19
HETATM   19  O   UNK     0     186.039 182.439 175.131  0.00  0.00    -0.388 OA
HETATM   20  H   UNK     0     185.115 182.288 174.873  0.00  0.00     0.210 HD
ENDBRANCH  14  19
ENDBRANCH   8   9
ENDBRANCH   7   8
ENDBRANCH   2   7
BRANCH   6  21
HETATM   21  O   UNK     0     187.598 182.377 167.192  0.00  0.00    -0.355 OA
BRANCH  21  22
HETATM   22  C   UNK     0     186.482 181.505 167.284  0.00  0.00     0.198 C 
BRANCH  22  23
HETATM   23  C   UNK     0     185.511 181.852 166.202  0.00  0.00     0.000 C 
HETATM   24  C   UNK     0     185.884 182.182 164.955  0.00  0.00     0.009 C 
BRANCH  24  25
HETATM   25  C   UNK     0     184.964 182.516 163.854  0.00  0.00    -0.036 A 
HETATM   26  C   UNK     0     185.464 183.119 162.711  0.00  0.00     0.011 A 
HETATM   27  C   UNK     0     184.593 183.436 161.668  0.00  0.00     0.001 A 
HETATM   28  C   UNK     0     183.234 183.144 161.782  0.00  0.00     0.000 A 
HETATM   29  C   UNK     0     182.745 182.537 162.938  0.00  0.00     0.001 A 
HETATM   30  C   UNK     0     183.616 182.220 163.981  0.00  0.00     0.011 A 
ENDBRANCH  24  25
ENDBRANCH  22  23
ENDBRANCH  21  22
ENDBRANCH   6  21
BRANCH   3  31
HETATM   31  O   UNK     0     188.377 185.568 171.625  0.00  0.00    -0.390 OA
HETATM   32  H   UNK     0     188.938 184.889 172.038  0.00  0.00     0.210 HD
ENDBRANCH   3  31
BRANCH   5  33
HETATM   33  O   UNK     0     190.170 183.432 167.723  0.00  0.00    -0.388 OA
HETATM   34  H   UNK     0     190.604 182.931 168.434  0.00  0.00     0.210 HD
ENDBRANCH   5  33
BRANCH   4  35
HETATM   35  O   UNK     0     190.034 185.927 169.284  0.00  0.00    -0.390 OA
HETATM   36  H   UNK     0     189.410 186.562 168.893  0.00  0.00     0.210 HD
ENDBRANCH   4  35
TORSDOF 13
ENDMDL
MODEL 6
REMARK VINA RESULT:      -7.6      1.261      2.084
REMARK  13 active torsions:
REMARK  status: ('A' for Active; 'I' for Inactive)
REMARK    1  A    between atoms: O_2  and  C_16 
REMARK    2  A    between atoms: O_2  and  C_17 
REMARK    3  A    between atoms: O_4  and  C_12 
REMARK    4  A    between atoms: O_5  and  C_13 
REMARK    5  A    between atoms: O_6  and  C_15 
REMARK    6  A    between atoms: O_6  and  C_22 
REMARK    7  A    between atoms: O_7  and  C_14 
REMARK    8  A    between atoms: O_8  and  C_18 
REMARK    9  A    between atoms: O_9  and  C_19 
REMARK   10  A    between atoms: O_10  and  C_20 
REMARK   11  A    between atoms: C_11  and  C_16 
REMARK   12  A    between atoms: C_22  and  C_23 
REMARK   13  A    between atoms: C_24  and  C_25 
ROOT
HETATM    1  O   UNK     0     182.993 182.052 172.299  0.00  0.00    -0.348 OA
HETATM    2  C   UNK     0     182.917 183.383 171.787  0.00  0.00     0.180 C 
HETATM    3  C   UNK     0     181.942 184.211 172.629  0.00  0.00     0.180 C 
HETATM    4  C   UNK     0     180.569 183.542 172.682  0.00  0.00     0.183 C 
HETATM    5  C   UNK     0     180.687 182.064 173.056  0.00  0.00     0.204 C 
HETATM    6  C   UNK     0     181.750 181.361 172.214  0.00  0.00     0.291 C 
ENDROOT
BRANCH   2   7
HETATM    7  C   UNK     0     184.325 183.970 171.815  0.00  0.00     0.205 C 
BRANCH   7   8
HETATM    8  O   UNK     0     184.528 184.595 173.068  0.00  0.00    -0.356 OA
BRANCH   8   9
HETATM    9  C   UNK     0     185.685 185.426 173.063  0.00  0.00     0.290 C 
HETATM   10  O   UNK     0     186.875 184.686 172.771  0.00  0.00    -0.356 OA
HETATM   11  C   UNK     0     187.232 183.748 173.784  0.00  0.00     0.205 C 
HETATM   12  C   UNK     0     187.487 184.458 175.107  0.00  0.00     0.173 C 
HETATM   13  C   UNK     0     186.255 185.256 175.538  0.00  0.00     0.182 C 
HETATM   14  C   UNK     0     185.797 186.174 174.400  0.00  0.00     0.204 C 
BRANCH  12  15
HETATM   15  O   UNK     0     187.829 183.518 176.116  0.00  0.00    -0.391 OA
HETATM   16  H   UNK     0     187.796 182.632 175.715  0.00  0.00     0.210 HD
ENDBRANCH  12  15
BRANCH  13  17
HETATM   17  O   UNK     0     185.203 184.353 175.875  0.00  0.00    -0.390 OA
HETATM   18  H   UNK     0     184.722 184.733 176.631  0.00  0.00     0.210 HD
ENDBRANCH  13  17
BRANCH  14  19
HETATM   19  O   UNK     0     186.742 187.231 174.236  0.00  0.00    -0.388 OA
HETATM   20  H   UNK     0     186.494 187.959 174.829  0.00  0.00     0.210 HD
ENDBRANCH  14  19
ENDBRANCH   8   9
ENDBRANCH   7   8
ENDBRANCH   2   7
BRANCH   6  21
HETATM   21  O   UNK     0     181.900 180.034 172.715  0.00  0.00    -0.355 OA
BRANCH  21  22
HETATM   22  C   UNK     0     182.936 179.340 172.037  0.00  0.00     0.198 C 
BRANCH  22  23
HETATM   23  C   UNK     0     182.638 177.875 172.075  0.00  0.00     0.000 C 
HETATM   24  C   UNK     0     182.267 177.170 170.995  0.00  0.00     0.009 C 
BRANCH  24  25
HETATM   25  C   UNK     0     181.978 175.726 170.981  0.00  0.00    -0.036 A 
HETATM   26  C   UNK     0     182.815 174.873 170.280  0.00  0.00     0.011 A 
HETATM   27  C   UNK     0     182.542 173.504 170.267  0.00  0.00     0.001 A 
HETATM   28  C   UNK     0     181.436 173.008 170.956  0.00  0.00     0.000 A 
HETATM   29  C   UNK     0     180.603 173.879 171.658  0.00  0.00     0.001 A 
HETATM   30  C   UNK     0     180.875 175.247 171.671  0.00  0.00     0.011 A 
ENDBRANCH  24  25
ENDBRANCH  22  23
ENDBRANCH  21  22
ENDBRANCH   6  21
BRANCH   3  31
HETATM   31  O   UNK     0     181.812 185.511 172.058  0.00  0.00    -0.390 OA
HETATM   32  H   UNK     0     181.868 185.420 171.091  0.00  0.00     0.210 HD
ENDBRANCH   3  31
BRANCH   5  33
HETATM   33  O   UNK     0     179.434 181.418 172.830  0.00  0.00    -0.388 OA
HETATM   34  H   UNK     0     178.844 182.050 172.387  0.00  0.00     0.210 HD
ENDBRANCH   5  33
BRANCH   4  35
HETATM   35  O   UNK     0     179.785 184.221 173.665  0.00  0.00    -0.390 OA
HETATM   36  H   UNK     0     178.866 184.234 173.347  0.00  0.00     0.210 HD
ENDBRANCH   4  35
TORSDOF 13
ENDMDL
MODEL 7
REMARK VINA RESULT:      -7.5      5.560      7.555
REMARK  13 active torsions:
REMARK  status: ('A' for Active; 'I' for Inactive)
REMARK    1  A    between atoms: O_2  and  C_16 
REMARK    2  A    between atoms: O_2  and  C_17 
REMARK    3  A    between atoms: O_4  and  C_12 
REMARK    4  A    between atoms: O_5  and  C_13 
REMARK    5  A    between atoms: O_6  and  C_15 
REMARK    6  A    between atoms: O_6  and  C_22 
REMARK    7  A    between atoms: O_7  and  C_14 
REMARK    8  A    between atoms: O_8  and  C_18 
REMARK    9  A    between atoms: O_9  and  C_19 
REMARK   10  A    between atoms: O_10  and  C_20 
REMARK   11  A    between atoms: C_11  and  C_16 
REMARK   12  A    between atoms: C_22  and  C_23 
REMARK   13  A    between atoms: C_24  and  C_25 
ROOT
HETATM    1  O   UNK     0     181.906 186.164 170.436  0.00  0.00    -0.348 OA
HETATM    2  C   UNK     0     182.386 185.976 171.768  0.00  0.00     0.180 C 
HETATM    3  C   UNK     0     181.807 184.686 172.354  0.00  0.00     0.180 C 
HETATM    4  C   UNK     0     180.281 184.700 172.296  0.00  0.00     0.183 C 
HETATM    5  C   UNK     0     179.783 185.083 170.901  0.00  0.00     0.204 C 
HETATM    6  C   UNK     0     180.492 186.332 170.382  0.00  0.00     0.291 C 
ENDROOT
BRANCH   2   7
HETATM    7  C   UNK     0     183.910 185.937 171.708  0.00  0.00     0.205 C 
BRANCH   7   8
HETATM    8  O   UNK     0     184.413 185.974 173.031  0.00  0.00    -0.356 OA
BRANCH   8   9
HETATM    9  C   UNK     0     185.805 185.677 173.075  0.00  0.00     0.290 C 
HETATM   10  O   UNK     0     186.093 184.378 172.545  0.00  0.00    -0.356 OA
HETATM   11  C   UNK     0     185.572 183.308 173.330  0.00  0.00     0.205 C 
HETATM   12  C   UNK     0     186.164 183.334 174.733  0.00  0.00     0.173 C 
HETATM   13  C   UNK     0     185.880 184.674 175.414  0.00  0.00     0.182 C 
HETATM   14  C   UNK     0     186.328 185.829 174.512  0.00  0.00     0.204 C 
BRANCH  12  15
HETATM   15  O   UNK     0     185.632 182.274 175.515  0.00  0.00    -0.391 OA
HETATM   16  H   UNK     0     185.303 182.659 176.347  0.00  0.00     0.210 HD
ENDBRANCH  12  15
BRANCH  13  17
HETATM   17  O   UNK     0     184.481 184.785 175.671  0.00  0.00    -0.390 OA
HETATM   18  H   UNK     0     184.039 184.950 174.821  0.00  0.00     0.210 HD
ENDBRANCH  13  17
BRANCH  14  19
HETATM   19  O   UNK     0     187.753 185.865 174.461  0.00  0.00    -0.388 OA
HETATM   20  H   UNK     0     188.028 186.762 174.211  0.00  0.00     0.210 HD
ENDBRANCH  14  19
ENDBRANCH   8   9
ENDBRANCH   7   8
ENDBRANCH   2   7
BRANCH   6  21
HETATM   21  O   UNK     0     180.083 186.541 169.031  0.00  0.00    -0.355 OA
BRANCH  21  22
HETATM   22  C   UNK     0     180.826 185.730 168.134  0.00  0.00     0.198 C 
BRANCH  22  23
HETATM   23  C   UNK     0     180.000 185.481 166.913  0.00  0.00     0.000 C 
HETATM   24  C   UNK     0     180.523 185.132 165.728  0.00  0.00     0.009 C 
BRANCH  24  25
HETATM   25  C   UNK     0     179.749 184.862 164.504  0.00  0.00    -0.036 A 
HETATM   26  C   UNK     0     180.065 185.541 163.338  0.00  0.00     0.011 A 
HETATM   27  C   UNK     0     179.332 185.285 162.178  0.00  0.00     0.001 A 
HETATM   28  C   UNK     0     178.294 184.354 162.201  0.00  0.00     0.000 A 
HETATM   29  C   UNK     0     177.988 183.678 163.382  0.00  0.00     0.001 A 
HETATM   30  C   UNK     0     178.721 183.934 164.542  0.00  0.00     0.011 A 
ENDBRANCH  24  25
ENDBRANCH  22  23
ENDBRANCH  21  22
ENDBRANCH   6  21
BRANCH   3  31
HETATM   31  O   UNK     0     182.227 184.554 173.710  0.00  0.00    -0.390 OA
HETATM   32  H   UNK     0     182.080 183.632 173.981  0.00  0.00     0.210 HD
ENDBRANCH   3  31
BRANCH   5  33
HETATM   33  O   UNK     0     178.382 185.352 170.956  0.00  0.00    -0.388 OA
HETATM   34  H   UNK     0     178.254 186.183 171.444  0.00  0.00     0.210 HD
ENDBRANCH   5  33
BRANCH   4  35
HETATM   35  O   UNK     0     179.814 183.391 172.625  0.00  0.00    -0.390 OA
HETATM   36  H   UNK     0     179.970 182.823 171.852  0.00  0.00     0.210 HD
ENDBRANCH   4  35
TORSDOF 13
ENDMDL
MODEL 8
REMARK VINA RESULT:      -7.5      4.149      9.814
REMARK  13 active torsions:
REMARK  status: ('A' for Active; 'I' for Inactive)
REMARK    1  A    between atoms: O_2  and  C_16 
REMARK    2  A    between atoms: O_2  and  C_17 
REMARK    3  A    between atoms: O_4  and  C_12 
REMARK    4  A    between atoms: O_5  and  C_13 
REMARK    5  A    between atoms: O_6  and  C_15 
REMARK    6  A    between atoms: O_6  and  C_22 
REMARK    7  A    between atoms: O_7  and  C_14 
REMARK    8  A    between atoms: O_8  and  C_18 
REMARK    9  A    between atoms: O_9  and  C_19 
REMARK   10  A    between atoms: O_10  and  C_20 
REMARK   11  A    between atoms: C_11  and  C_16 
REMARK   12  A    between atoms: C_22  and  C_23 
REMARK   13  A    between atoms: C_24  and  C_25 
ROOT
HETATM    1  O   UNK     0     185.562 184.831 172.455  0.00  0.00    -0.348 OA
HETATM    2  C   UNK     0     185.934 183.677 173.210  0.00  0.00     0.180 C 
HETATM    3  C   UNK     0     185.881 183.993 174.707  0.00  0.00     0.180 C 
HETATM    4  C   UNK     0     186.761 185.197 175.039  0.00  0.00     0.183 C 
HETATM    5  C   UNK     0     186.475 186.368 174.098  0.00  0.00     0.204 C 
HETATM    6  C   UNK     0     186.466 185.918 172.638  0.00  0.00     0.291 C 
ENDROOT
BRANCH   2   7
HETATM    7  C   UNK     0     184.973 182.552 172.835  0.00  0.00     0.205 C 
BRANCH   7   8
HETATM    8  O   UNK     0     183.854 183.117 172.178  0.00  0.00    -0.356 OA
BRANCH   8   9
HETATM    9  C   UNK     0     182.817 182.160 171.985  0.00  0.00     0.290 C 
HETATM   10  O   UNK     0     181.752 182.678 171.180  0.00  0.00    -0.356 OA
HETATM   11  C   UNK     0     181.022 183.732 171.803  0.00  0.00     0.205 C 
HETATM   12  C   UNK     0     180.379 183.249 173.097  0.00  0.00     0.173 C 
HETATM   13  C   UNK     0     181.440 182.705 174.055  0.00  0.00     0.182 C 
HETATM   14  C   UNK     0     182.306 181.659 173.345  0.00  0.00     0.204 C 
BRANCH  12  15
HETATM   15  O   UNK     0     179.664 184.306 173.720  0.00  0.00    -0.391 OA
HETATM   16  H   UNK     0     179.334 183.975 174.574  0.00  0.00     0.210 HD
ENDBRANCH  12  15
BRANCH  13  17
HETATM   17  O   UNK     0     182.263 183.779 174.507  0.00  0.00    -0.390 OA
HETATM   18  H   UNK     0     181.909 184.600 174.123  0.00  0.00     0.210 HD
ENDBRANCH  13  17
BRANCH  14  19
HETATM   19  O   UNK     0     181.536 180.480 173.120  0.00  0.00    -0.388 OA
HETATM   20  H   UNK     0     181.967 179.961 172.420  0.00  0.00     0.210 HD
ENDBRANCH  14  19
ENDBRANCH   8   9
ENDBRANCH   7   8
ENDBRANCH   2   7
BRANCH   6  21
HETATM   21  O   UNK     0     186.054 187.027 171.839  0.00  0.00    -0.355 OA
BRANCH  21  22
HETATM   22  C   UNK     0     185.515 186.597 170.598  0.00  0.00     0.198 C 
BRANCH  22  23
HETATM   23  C   UNK     0     184.310 187.426 170.285  0.00  0.00     0.000 C 
HETATM   24  C   UNK     0     184.370 188.592 169.624  0.00  0.00     0.009 C 
BRANCH  24  25
HETATM   25  C   UNK     0     183.211 189.434 169.280  0.00  0.00    -0.036 A 
HETATM   26  C   UNK     0     182.004 188.832 168.963  0.00  0.00     0.011 A 
HETATM   27  C   UNK     0     180.906 189.629 168.638  0.00  0.00     0.001 A 
HETATM   28  C   UNK     0     181.030 191.018 168.635  0.00  0.00     0.000 A 
HETATM   29  C   UNK     0     182.251 191.610 168.956  0.00  0.00     0.001 A 
HETATM   30  C   UNK     0     183.349 190.813 169.282  0.00  0.00     0.011 A 
ENDBRANCH  24  25
ENDBRANCH  22  23
ENDBRANCH  21  22
ENDBRANCH   6  21
BRANCH   3  31
HETATM   31  O   UNK     0     186.333 182.860 175.444  0.00  0.00    -0.390 OA
HETATM   32  H   UNK     0     186.196 183.044 176.390  0.00  0.00     0.210 HD
ENDBRANCH   3  31
BRANCH   5  33
HETATM   33  O   UNK     0     187.490 187.360 174.255  0.00  0.00    -0.388 OA
HETATM   34  H   UNK     0     187.056 188.207 174.450  0.00  0.00     0.210 HD
ENDBRANCH   5  33
BRANCH   4  35
HETATM   35  O   UNK     0     186.484 185.589 176.385  0.00  0.00    -0.390 OA
HETATM   36  H   UNK     0     187.223 186.147 176.683  0.00  0.00     0.210 HD
ENDBRANCH   4  35
TORSDOF 13
ENDMDL
MODEL 9
REMARK VINA RESULT:      -7.5      4.371      9.779
REMARK  13 active torsions:
REMARK  status: ('A' for Active; 'I' for Inactive)
REMARK    1  A    between atoms: O_2  and  C_16 
REMARK    2  A    between atoms: O_2  and  C_17 
REMARK    3  A    between atoms: O_4  and  C_12 
REMARK    4  A    between atoms: O_5  and  C_13 
REMARK    5  A    between atoms: O_6  and  C_15 
REMARK    6  A    between atoms: O_6  and  C_22 
REMARK    7  A    between atoms: O_7  and  C_14 
REMARK    8  A    between atoms: O_8  and  C_18 
REMARK    9  A    between atoms: O_9  and  C_19 
REMARK   10  A    between atoms: O_10  and  C_20 
REMARK   11  A    between atoms: C_11  and  C_16 
REMARK   12  A    between atoms: C_22  and  C_23 
REMARK   13  A    between atoms: C_24  and  C_25 
ROOT
HETATM    1  O   UNK     0     184.571 184.798 173.458  0.00  0.00    -0.348 OA
HETATM    2  C   UNK     0     184.514 183.474 173.992  0.00  0.00     0.180 C 
HETATM    3  C   UNK     0     185.533 183.323 175.125  0.00  0.00     0.180 C 
HETATM    4  C   UNK     0     186.937 183.682 174.642  0.00  0.00     0.183 C 
HETATM    5  C   UNK     0     186.946 185.024 173.911  0.00  0.00     0.204 C 
HETATM    6  C   UNK     0     185.833 185.095 172.866  0.00  0.00     0.291 C 
ENDROOT
BRANCH   2   7
HETATM    7  C   UNK     0     183.088 183.235 174.478  0.00  0.00     0.205 C 
BRANCH   7   8
HETATM    8  O   UNK     0     182.372 182.561 173.459  0.00  0.00    -0.356 OA
BRANCH   8   9
HETATM    9  C   UNK     0     180.972 182.807 173.546  0.00  0.00     0.290 C 
HETATM   10  O   UNK     0     180.225 181.976 172.651  0.00  0.00    -0.356 OA
HETATM   11  C   UNK     0     180.456 182.262 171.273  0.00  0.00     0.205 C 
HETATM   12  C   UNK     0     180.061 183.697 170.949  0.00  0.00     0.173 C 
HETATM   13  C   UNK     0     180.835 184.681 171.829  0.00  0.00     0.182 C 
HETATM   14  C   UNK     0     180.688 184.298 173.305  0.00  0.00     0.204 C 
BRANCH  12  15
HETATM   15  O   UNK     0     180.305 183.981 169.579  0.00  0.00    -0.391 OA
HETATM   16  H   UNK     0     179.904 183.266 169.055  0.00  0.00     0.210 HD
ENDBRANCH  12  15
BRANCH  13  17
HETATM   17  O   UNK     0     182.214 184.655 171.464  0.00  0.00    -0.390 OA
HETATM   18  H   UNK     0     182.514 185.577 171.385  0.00  0.00     0.210 HD
ENDBRANCH  13  17
BRANCH  14  19
HETATM   19  O   UNK     0     179.354 184.567 173.733  0.00  0.00    -0.388 OA
HETATM   20  H   UNK     0     178.792 183.816 173.477  0.00  0.00     0.210 HD
ENDBRANCH  14  19
ENDBRANCH   8   9
ENDBRANCH   7   8
ENDBRANCH   2   7
BRANCH   6  21
HETATM   21  O   UNK     0     185.816 186.418 172.331  0.00  0.00    -0.355 OA
BRANCH  21  22
HETATM   22  C   UNK     0     185.540 186.409 170.939  0.00  0.00     0.198 C 
BRANCH  22  23
HETATM   23  C   UNK     0     184.813 187.666 170.585  0.00  0.00     0.000 C 
HETATM   24  C   UNK     0     183.777 187.703 169.732  0.00  0.00     0.009 C 
BRANCH  24  25
HETATM   25  C   UNK     0     183.023 188.914 169.365  0.00  0.00    -0.036 A 
HETATM   26  C   UNK     0     181.699 188.796 168.973  0.00  0.00     0.011 A 
HETATM   27  C   UNK     0     180.983 189.942 168.625  0.00  0.00     0.001 A 
HETATM   28  C   UNK     0     181.602 191.191 168.675  0.00  0.00     0.000 A 
HETATM   29  C   UNK     0     182.935 191.295 169.072  0.00  0.00     0.001 A 
HETATM   30  C   UNK     0     183.650 190.148 169.420  0.00  0.00     0.011 A 
ENDBRANCH  24  25
ENDBRANCH  22  23
ENDBRANCH  21  22
ENDBRANCH   6  21
BRANCH   3  31
HETATM   31  O   UNK     0     185.523 181.976 175.591  0.00  0.00    -0.390 OA
HETATM   32  H   UNK     0     186.199 181.482 175.095  0.00  0.00     0.210 HD
ENDBRANCH   3  31
BRANCH   5  33
HETATM   33  O   UNK     0     188.197 185.192 173.245  0.00  0.00    -0.388 OA
HETATM   34  H   UNK     0     188.380 186.145 173.182  0.00  0.00     0.210 HD
ENDBRANCH   5  33
BRANCH   4  35
HETATM   35  O   UNK     0     187.791 183.757 175.786  0.00  0.00    -0.390 OA
HETATM   36  H   UNK     0     187.255 184.086 176.527  0.00  0.00     0.210 HD
ENDBRANCH   4  35
TORSDOF 13
ENDMDL
MODEL 10
REMARK VINA RESULT:      -7.5      5.524      7.254
REMARK  13 active torsions:
REMARK  status: ('A' for Active; 'I' for Inactive)
REMARK    1  A    between atoms: O_2  and  C_16 
REMARK    2  A    between atoms: O_2  and  C_17 
REMARK    3  A    between atoms: O_4  and  C_12 
REMARK    4  A    between atoms: O_5  and  C_13 
REMARK    5  A    between atoms: O_6  and  C_15 
REMARK    6  A    between atoms: O_6  and  C_22 
REMARK    7  A    between atoms: O_7  and  C_14 
REMARK    8  A    between atoms: O_8  and  C_18 
REMARK    9  A    between atoms: O_9  and  C_19 
REMARK   10  A    between atoms: O_10  and  C_20 
REMARK   11  A    between atoms: C_11  and  C_16 
REMARK   12  A    between atoms: C_22  and  C_23 
REMARK   13  A    between atoms: C_24  and  C_25 
ROOT
HETATM    1  O   UNK     0     182.176 184.852 170.106  0.00  0.00    -0.348 OA
HETATM    2  C   UNK     0     182.716 185.022 171.417  0.00  0.00     0.180 C 
HETATM    3  C   UNK     0     181.831 184.311 172.444  0.00  0.00     0.180 C 
HETATM    4  C   UNK     0     180.389 184.809 172.354  0.00  0.00     0.183 C 
HETATM    5  C   UNK     0     179.886 184.790 170.910  0.00  0.00     0.204 C 
HETATM    6  C   UNK     0     180.889 185.447 169.963  0.00  0.00     0.291 C 
ENDROOT
BRANCH   2   7
HETATM    7  C   UNK     0     184.135 184.460 171.408  0.00  0.00     0.205 C 
BRANCH   7   8
HETATM    8  O   UNK     0     184.899 185.149 172.381  0.00  0.00    -0.356 OA
BRANCH   8   9
HETATM    9  C   UNK     0     185.777 184.273 173.080  0.00  0.00     0.290 C 
HETATM   10  O   UNK     0     185.203 183.803 174.305  0.00  0.00    -0.356 OA
HETATM   11  C   UNK     0     185.018 184.824 175.282  0.00  0.00     0.205 C 
HETATM   12  C   UNK     0     186.353 185.457 175.655  0.00  0.00     0.173 C 
HETATM   13  C   UNK     0     187.042 186.032 174.416  0.00  0.00     0.182 C 
HETATM   14  C   UNK     0     187.127 184.967 173.318  0.00  0.00     0.204 C 
BRANCH  12  15
HETATM   15  O   UNK     0     186.162 186.482 176.620  0.00  0.00    -0.391 OA
HETATM   16  H   UNK     0     185.924 187.296 176.141  0.00  0.00     0.210 HD
ENDBRANCH  12  15
BRANCH  13  17
HETATM   17  O   UNK     0     186.296 187.151 173.939  0.00  0.00    -0.390 OA
HETATM   18  H   UNK     0     186.136 187.741 174.696  0.00  0.00     0.210 HD
ENDBRANCH  13  17
BRANCH  14  19
HETATM   19  O   UNK     0     188.074 183.971 173.699  0.00  0.00    -0.388 OA
HETATM   20  H   UNK     0     188.340 183.480 172.903  0.00  0.00     0.210 HD
ENDBRANCH  14  19
ENDBRANCH   8   9
ENDBRANCH   7   8
ENDBRANCH   2   7
BRANCH   6  21
HETATM   21  O   UNK     0     180.419 185.265 168.628  0.00  0.00    -0.355 OA
BRANCH  21  22
HETATM   22  C   UNK     0     180.407 183.893 168.268  0.00  0.00     0.198 C 
BRANCH  22  23
HETATM   23  C   UNK     0     179.945 183.772 166.851  0.00  0.00     0.000 C 
HETATM   24  C   UNK     0     179.826 184.822 166.023  0.00  0.00     0.009 C 
BRANCH  24  25
HETATM   25  C   UNK     0     179.390 184.751 164.618  0.00  0.00    -0.036 A 
HETATM   26  C   UNK     0     179.930 185.630 163.693  0.00  0.00     0.011 A 
HETATM   27  C   UNK     0     179.518 185.563 162.362  0.00  0.00     0.001 A 
HETATM   28  C   UNK     0     178.570 184.616 161.974  0.00  0.00     0.000 A 
HETATM   29  C   UNK     0     178.035 183.737 162.915  0.00  0.00     0.001 A 
HETATM   30  C   UNK     0     178.447 183.805 164.246  0.00  0.00     0.011 A 
ENDBRANCH  24  25
ENDBRANCH  22  23
ENDBRANCH  21  22
ENDBRANCH   6  21
BRANCH   3  31
HETATM   31  O   UNK     0     182.335 184.558 173.754  0.00  0.00    -0.390 OA
HETATM   32  H   UNK     0     181.911 183.928 174.362  0.00  0.00     0.210 HD
ENDBRANCH   3  31
BRANCH   5  33
HETATM   33  O   UNK     0     178.655 185.509 170.828  0.00  0.00    -0.388 OA
HETATM   34  H   UNK     0     178.034 185.116 171.463  0.00  0.00     0.210 HD
ENDBRANCH   5  33
BRANCH   4  35
HETATM   35  O   UNK     0     179.574 183.949 173.153  0.00  0.00    -0.390 OA
HETATM   36  H   UNK     0     178.656 184.058 172.854  0.00  0.00     0.210 HD
ENDBRANCH   4  35
TORSDOF 13
ENDMDL
