REMARK VINA RESULT:      -7.5      4.371      9.779
REMARK  13 active torsions:
REMARK  status: ('A' for Active; 'I' for Inactive)
REMARK    1  A    between atoms: O_2  and  C_16 
REMARK    2  A    between atoms: O_2  and  C_17 
REMARK    3  A    between atoms: O_4  and  C_12 
REMARK    4  A    between atoms: O_5  and  C_13 
REMARK    5  A    between atoms: O_6  and  C_15 
REMARK    6  A    between atoms: O_6  and  C_22 
REMARK    7  A    between atoms: O_7  and  C_14 
REMARK    8  A    between atoms: O_8  and  C_18 
REMARK    9  A    between atoms: O_9  and  C_19 
REMARK   10  A    between atoms: O_10  and  C_20 
REMARK   11  A    between atoms: C_11  and  C_16 
REMARK   12  A    between atoms: C_22  and  C_23 
REMARK   13  A    between atoms: C_24  and  C_25 
ROOT
HETATM    1  O   UNK     0     184.571 184.798 173.458  0.00  0.00    -0.348 OA
HETATM    2  C   UNK     0     184.514 183.474 173.992  0.00  0.00     0.180 C 
HETATM    3  C   UNK     0     185.533 183.323 175.125  0.00  0.00     0.180 C 
HETATM    4  C   UNK     0     186.937 183.682 174.642  0.00  0.00     0.183 C 
HETATM    5  C   UNK     0     186.946 185.024 173.911  0.00  0.00     0.204 C 
HETATM    6  C   UNK     0     185.833 185.095 172.866  0.00  0.00     0.291 C 
ENDROOT
BRANCH   2   7
HETATM    7  C   UNK     0     183.088 183.235 174.478  0.00  0.00     0.205 C 
BRANCH   7   8
HETATM    8  O   UNK     0     182.372 182.561 173.459  0.00  0.00    -0.356 OA
BRANCH   8   9
HETATM    9  C   UNK     0     180.972 182.807 173.546  0.00  0.00     0.290 C 
HETATM   10  O   UNK     0     180.225 181.976 172.651  0.00  0.00    -0.356 OA
HETATM   11  C   UNK     0     180.456 182.262 171.273  0.00  0.00     0.205 C 
HETATM   12  C   UNK     0     180.061 183.697 170.949  0.00  0.00     0.173 C 
HETATM   13  C   UNK     0     180.835 184.681 171.829  0.00  0.00     0.182 C 
HETATM   14  C   UNK     0     180.688 184.298 173.305  0.00  0.00     0.204 C 
BRANCH  12  15
HETATM   15  O   UNK     0     180.305 183.981 169.579  0.00  0.00    -0.391 OA
HETATM   16  H   UNK     0     179.904 183.266 169.055  0.00  0.00     0.210 HD
ENDBRANCH  12  15
BRANCH  13  17
HETATM   17  O   UNK     0     182.214 184.655 171.464  0.00  0.00    -0.390 OA
HETATM   18  H   UNK     0     182.514 185.577 171.385  0.00  0.00     0.210 HD
ENDBRANCH  13  17
BRANCH  14  19
HETATM   19  O   UNK     0     179.354 184.567 173.733  0.00  0.00    -0.388 OA
HETATM   20  H   UNK     0     178.792 183.816 173.477  0.00  0.00     0.210 HD
ENDBRANCH  14  19
ENDBRANCH   8   9
ENDBRANCH   7   8
ENDBRANCH   2   7
BRANCH   6  21
HETATM   21  O   UNK     0     185.816 186.418 172.331  0.00  0.00    -0.355 OA
BRANCH  21  22
HETATM   22  C   UNK     0     185.540 186.409 170.939  0.00  0.00     0.198 C 
BRANCH  22  23
HETATM   23  C   UNK     0     184.813 187.666 170.585  0.00  0.00     0.000 C 
HETATM   24  C   UNK     0     183.777 187.703 169.732  0.00  0.00     0.009 C 
BRANCH  24  25
HETATM   25  C   UNK     0     183.023 188.914 169.365  0.00  0.00    -0.036 A 
HETATM   26  C   UNK     0     181.699 188.796 168.973  0.00  0.00     0.011 A 
HETATM   27  C   UNK     0     180.983 189.942 168.625  0.00  0.00     0.001 A 
HETATM   28  C   UNK     0     181.602 191.191 168.675  0.00  0.00     0.000 A 
HETATM   29  C   UNK     0     182.935 191.295 169.072  0.00  0.00     0.001 A 
HETATM   30  C   UNK     0     183.650 190.148 169.420  0.00  0.00     0.011 A 
ENDBRANCH  24  25
ENDBRANCH  22  23
ENDBRANCH  21  22
ENDBRANCH   6  21
BRANCH   3  31
HETATM   31  O   UNK     0     185.523 181.976 175.591  0.00  0.00    -0.390 OA
HETATM   32  H   UNK     0     186.199 181.482 175.095  0.00  0.00     0.210 HD
ENDBRANCH   3  31
BRANCH   5  33
HETATM   33  O   UNK     0     188.197 185.192 173.245  0.00  0.00    -0.388 OA
HETATM   34  H   UNK     0     188.380 186.145 173.182  0.00  0.00     0.210 HD
ENDBRANCH   5  33
BRANCH   4  35
HETATM   35  O   UNK     0     187.791 183.757 175.786  0.00  0.00    -0.390 OA
HETATM   36  H   UNK     0     187.255 184.086 176.527  0.00  0.00     0.210 HD
ENDBRANCH   4  35
TORSDOF 13
