REMARK VINA RESULT:      -7.8      5.536      9.592
REMARK  13 active torsions:
REMARK  status: ('A' for Active; 'I' for Inactive)
REMARK    1  A    between atoms: O_2  and  C_16 
REMARK    2  A    between atoms: O_2  and  C_17 
REMARK    3  A    between atoms: O_4  and  C_12 
REMARK    4  A    between atoms: O_5  and  C_13 
REMARK    5  A    between atoms: O_6  and  C_15 
REMARK    6  A    between atoms: O_6  and  C_22 
REMARK    7  A    between atoms: O_7  and  C_14 
REMARK    8  A    between atoms: O_8  and  C_18 
REMARK    9  A    between atoms: O_9  and  C_19 
REMARK   10  A    between atoms: O_10  and  C_20 
REMARK   11  A    between atoms: C_11  and  C_16 
REMARK   12  A    between atoms: C_22  and  C_23 
REMARK   13  A    between atoms: C_24  and  C_25 
ROOT
HETATM    1  O   UNK     0     181.789 186.508 170.803  0.00  0.00    -0.348 OA
HETATM    2  C   UNK     0     182.334 186.130 172.068  0.00  0.00     0.180 C 
HETATM    3  C   UNK     0     181.782 184.765 172.488  0.00  0.00     0.180 C 
HETATM    4  C   UNK     0     180.254 184.782 172.510  0.00  0.00     0.183 C 
HETATM    5  C   UNK     0     179.688 185.362 171.213  0.00  0.00     0.204 C 
HETATM    6  C   UNK     0     180.374 186.677 170.846  0.00  0.00     0.291 C 
ENDROOT
BRANCH   2   7
HETATM    7  C   UNK     0     183.853 186.105 171.926  0.00  0.00     0.205 C 
BRANCH   7   8
HETATM    8  O   UNK     0     184.424 185.976 173.215  0.00  0.00    -0.356 OA
BRANCH   8   9
HETATM    9  C   UNK     0     185.806 185.639 173.149  0.00  0.00     0.290 C 
HETATM   10  O   UNK     0     186.016 184.347 172.568  0.00  0.00    -0.356 OA
HETATM   11  C   UNK     0     185.522 183.272 173.364  0.00  0.00     0.205 C 
HETATM   12  C   UNK     0     186.215 183.245 174.720  0.00  0.00     0.173 C 
HETATM   13  C   UNK     0     186.021 184.574 175.451  0.00  0.00     0.182 C 
HETATM   14  C   UNK     0     186.436 185.739 174.547  0.00  0.00     0.204 C 
BRANCH  12  15
HETATM   15  O   UNK     0     185.710 182.180 175.513  0.00  0.00    -0.391 OA
HETATM   16  H   UNK     0     186.389 181.483 175.536  0.00  0.00     0.210 HD
ENDBRANCH  12  15
BRANCH  13  17
HETATM   17  O   UNK     0     184.648 184.716 175.814  0.00  0.00    -0.390 OA
HETATM   18  H   UNK     0     184.609 185.308 176.585  0.00  0.00     0.210 HD
ENDBRANCH  13  17
BRANCH  14  19
HETATM   19  O   UNK     0     187.854 185.737 174.393  0.00  0.00    -0.388 OA
HETATM   20  H   UNK     0     188.127 186.606 174.054  0.00  0.00     0.210 HD
ENDBRANCH  14  19
ENDBRANCH   8   9
ENDBRANCH   7   8
ENDBRANCH   2   7
BRANCH   6  21
HETATM   21  O   UNK     0     179.897 187.078 169.563  0.00  0.00    -0.355 OA
BRANCH  21  22
HETATM   22  C   UNK     0     179.747 188.487 169.485  0.00  0.00     0.198 C 
BRANCH  22  23
HETATM   23  C   UNK     0     178.612 188.899 170.368  0.00  0.00     0.000 C 
HETATM   24  C   UNK     0     178.415 190.163 170.773  0.00  0.00     0.009 C 
BRANCH  24  25
HETATM   25  C   UNK     0     177.305 190.617 171.629  0.00  0.00    -0.036 A 
HETATM   26  C   UNK     0     176.096 190.961 171.047  0.00  0.00     0.011 A 
HETATM   27  C   UNK     0     175.045 191.392 171.857  0.00  0.00     0.001 A 
HETATM   28  C   UNK     0     175.218 191.471 173.239  0.00  0.00     0.000 A 
HETATM   29  C   UNK     0     176.441 191.121 173.810  0.00  0.00     0.001 A 
HETATM   30  C   UNK     0     177.492 190.691 173.000  0.00  0.00     0.011 A 
ENDBRANCH  24  25
ENDBRANCH  22  23
ENDBRANCH  21  22
ENDBRANCH   6  21
BRANCH   3  31
HETATM   31  O   UNK     0     182.269 184.439 173.787  0.00  0.00    -0.390 OA
HETATM   32  H   UNK     0     182.179 183.478 173.909  0.00  0.00     0.210 HD
ENDBRANCH   3  31
BRANCH   5  33
HETATM   33  O   UNK     0     178.293 185.615 171.377  0.00  0.00    -0.388 OA
HETATM   34  H   UNK     0     178.163 186.035 172.244  0.00  0.00     0.210 HD
ENDBRANCH   5  33
BRANCH   4  35
HETATM   35  O   UNK     0     179.800 183.437 172.668  0.00  0.00    -0.390 OA
HETATM   36  H   UNK     0     180.379 182.869 172.132  0.00  0.00     0.210 HD
ENDBRANCH   4  35
TORSDOF 13
