REMARK VINA RESULT:      -7.9      0.000      0.000
REMARK  13 active torsions:
REMARK  status: ('A' for Active; 'I' for Inactive)
REMARK    1  A    between atoms: O_2  and  C_16 
REMARK    2  A    between atoms: O_2  and  C_17 
REMARK    3  A    between atoms: O_4  and  C_12 
REMARK    4  A    between atoms: O_5  and  C_13 
REMARK    5  A    between atoms: O_6  and  C_15 
REMARK    6  A    between atoms: O_6  and  C_22 
REMARK    7  A    between atoms: O_7  and  C_14 
REMARK    8  A    between atoms: O_8  and  C_18 
REMARK    9  A    between atoms: O_9  and  C_19 
REMARK   10  A    between atoms: O_10  and  C_20 
REMARK   11  A    between atoms: C_11  and  C_16 
REMARK   12  A    between atoms: C_22  and  C_23 
REMARK   13  A    between atoms: C_24  and  C_25 
ROOT
HETATM    1  O   UNK     0     182.646 181.130 173.038  0.00  0.00    -0.348 OA
HETATM    2  C   UNK     0     183.126 182.462 173.231  0.00  0.00     0.180 C 
HETATM    3  C   UNK     0     182.058 183.306 173.930  0.00  0.00     0.180 C 
HETATM    4  C   UNK     0     180.748 183.282 173.144  0.00  0.00     0.183 C 
HETATM    5  C   UNK     0     180.342 181.852 172.788  0.00  0.00     0.204 C 
HETATM    6  C   UNK     0     181.510 181.078 172.180  0.00  0.00     0.291 C 
ENDROOT
BRANCH   2   7
HETATM    7  C   UNK     0     184.408 182.375 174.055  0.00  0.00     0.205 C 
BRANCH   7   8
HETATM    8  O   UNK     0     185.274 183.420 173.651  0.00  0.00    -0.356 OA
BRANCH   8   9
HETATM    9  C   UNK     0     185.749 184.172 174.763  0.00  0.00     0.290 C 
HETATM   10  O   UNK     0     185.181 185.486 174.803  0.00  0.00    -0.356 OA
HETATM   11  C   UNK     0     185.593 186.323 173.726  0.00  0.00     0.205 C 
HETATM   12  C   UNK     0     187.104 186.514 173.742  0.00  0.00     0.173 C 
HETATM   13  C   UNK     0     187.819 185.163 173.663  0.00  0.00     0.182 C 
HETATM   14  C   UNK     0     187.284 184.220 174.745  0.00  0.00     0.204 C 
BRANCH  12  15
HETATM   15  O   UNK     0     187.511 187.338 172.659  0.00  0.00    -0.391 OA
HETATM   16  H   UNK     0     186.930 188.119 172.649  0.00  0.00     0.210 HD
ENDBRANCH  12  15
BRANCH  13  17
HETATM   17  O   UNK     0     187.598 184.588 172.376  0.00  0.00    -0.390 OA
HETATM   18  H   UNK     0     188.466 184.486 171.948  0.00  0.00     0.210 HD
ENDBRANCH  13  17
BRANCH  14  19
HETATM   19  O   UNK     0     187.726 184.669 176.025  0.00  0.00    -0.388 OA
HETATM   20  H   UNK     0     188.538 185.189 175.903  0.00  0.00     0.210 HD
ENDBRANCH  14  19
ENDBRANCH   8   9
ENDBRANCH   7   8
ENDBRANCH   2   7
BRANCH   6  21
HETATM   21  O   UNK     0     181.098 179.722 172.008  0.00  0.00    -0.355 OA
BRANCH  21  22
HETATM   22  C   UNK     0     182.084 178.818 172.481  0.00  0.00     0.198 C 
BRANCH  22  23
HETATM   23  C   UNK     0     181.888 177.498 171.808  0.00  0.00     0.000 C 
HETATM   24  C   UNK     0     181.838 176.333 172.472  0.00  0.00     0.009 C 
BRANCH  24  25
HETATM   25  C   UNK     0     181.632 175.011 171.854  0.00  0.00    -0.036 A 
HETATM   26  C   UNK     0     182.528 174.562 170.897  0.00  0.00     0.011 A 
HETATM   27  C   UNK     0     182.333 173.310 170.312  0.00  0.00     0.001 A 
HETATM   28  C   UNK     0     181.245 172.525 170.693  0.00  0.00     0.000 A 
HETATM   29  C   UNK     0     180.352 172.990 171.657  0.00  0.00     0.001 A 
HETATM   30  C   UNK     0     180.547 174.242 172.242  0.00  0.00     0.011 A 
ENDBRANCH  24  25
ENDBRANCH  22  23
ENDBRANCH  21  22
ENDBRANCH   6  21
BRANCH   3  31
HETATM   31  O   UNK     0     182.518 184.651 174.040  0.00  0.00    -0.390 OA
HETATM   32  H   UNK     0     183.102 184.705 174.817  0.00  0.00     0.210 HD
ENDBRANCH   3  31
BRANCH   5  33
HETATM   33  O   UNK     0     179.280 181.885 171.834  0.00  0.00    -0.388 OA
HETATM   34  H   UNK     0     179.666 181.766 170.950  0.00  0.00     0.210 HD
ENDBRANCH   5  33
BRANCH   4  35
HETATM   35  O   UNK     0     179.734 183.877 173.957  0.00  0.00    -0.390 OA
HETATM   36  H   UNK     0     179.837 183.520 174.856  0.00  0.00     0.210 HD
ENDBRANCH   4  35
TORSDOF 13
