REMARK VINA RESULT:      -7.8      7.939      9.515
REMARK  13 active torsions:
REMARK  status: ('A' for Active; 'I' for Inactive)
REMARK    1  A    between atoms: O_2  and  C_16 
REMARK    2  A    between atoms: O_2  and  C_17 
REMARK    3  A    between atoms: O_4  and  C_12 
REMARK    4  A    between atoms: O_5  and  C_13 
REMARK    5  A    between atoms: O_6  and  C_15 
REMARK    6  A    between atoms: O_6  and  C_22 
REMARK    7  A    between atoms: O_7  and  C_14 
REMARK    8  A    between atoms: O_8  and  C_18 
REMARK    9  A    between atoms: O_9  and  C_19 
REMARK   10  A    between atoms: O_10  and  C_20 
REMARK   11  A    between atoms: C_11  and  C_16 
REMARK   12  A    between atoms: C_22  and  C_23 
REMARK   13  A    between atoms: C_24  and  C_25 
ROOT
HETATM    1  O   UNK     0     184.488 187.709 167.667  0.00  0.00    -0.348 OA
HETATM    2  C   UNK     0     185.739 188.312 167.999  0.00  0.00     0.180 C 
HETATM    3  C   UNK     0     185.578 189.203 169.233  0.00  0.00     0.180 C 
HETATM    4  C   UNK     0     184.484 190.247 169.010  0.00  0.00     0.183 C 
HETATM    5  C   UNK     0     183.203 189.602 168.479  0.00  0.00     0.204 C 
HETATM    6  C   UNK     0     183.496 188.667 167.307  0.00  0.00     0.291 C 
ENDROOT
BRANCH   2   7
HETATM    7  C   UNK     0     186.743 187.189 168.240  0.00  0.00     0.205 C 
BRANCH   7   8
HETATM    8  O   UNK     0     187.121 187.208 169.604  0.00  0.00    -0.356 OA
BRANCH   8   9
HETATM    9  C   UNK     0     186.875 185.957 170.237  0.00  0.00     0.290 C 
HETATM   10  O   UNK     0     185.707 185.995 171.065  0.00  0.00    -0.356 OA
HETATM   11  C   UNK     0     185.837 186.844 172.203  0.00  0.00     0.205 C 
HETATM   12  C   UNK     0     186.976 186.371 173.098  0.00  0.00     0.173 C 
HETATM   13  C   UNK     0     188.292 186.329 172.319  0.00  0.00     0.182 C 
HETATM   14  C   UNK     0     188.116 185.519 171.031  0.00  0.00     0.204 C 
BRANCH  12  15
HETATM   15  O   UNK     0     187.109 187.227 174.224  0.00  0.00    -0.391 OA
HETATM   16  H   UNK     0     187.141 188.142 173.895  0.00  0.00     0.210 HD
ENDBRANCH  12  15
BRANCH  13  17
HETATM   17  O   UNK     0     188.691 187.660 171.997  0.00  0.00    -0.390 OA
HETATM   18  H   UNK     0     189.389 187.601 171.322  0.00  0.00     0.210 HD
ENDBRANCH  13  17
BRANCH  14  19
HETATM   19  O   UNK     0     187.967 184.139 171.356  0.00  0.00    -0.388 OA
HETATM   20  H   UNK     0     188.599 183.920 172.062  0.00  0.00     0.210 HD
ENDBRANCH  14  19
ENDBRANCH   8   9
ENDBRANCH   7   8
ENDBRANCH   2   7
BRANCH   6  21
HETATM   21  O   UNK     0     182.283 188.000 166.963  0.00  0.00    -0.355 OA
BRANCH  21  22
HETATM   22  C   UNK     0     181.837 188.374 165.669  0.00  0.00     0.198 C 
BRANCH  22  23
HETATM   23  C   UNK     0     181.133 187.209 165.048  0.00  0.00     0.000 C 
HETATM   24  C   UNK     0     179.957 187.314 164.410  0.00  0.00     0.009 C 
BRANCH  24  25
HETATM   25  C   UNK     0     179.235 186.201 163.771  0.00  0.00    -0.036 A 
HETATM   26  C   UNK     0     178.057 185.741 164.338  0.00  0.00     0.011 A 
HETATM   27  C   UNK     0     177.373 184.686 163.733  0.00  0.00     0.001 A 
HETATM   28  C   UNK     0     177.876 184.106 162.569  0.00  0.00     0.000 A 
HETATM   29  C   UNK     0     179.063 184.579 162.010  0.00  0.00     0.001 A 
HETATM   30  C   UNK     0     179.747 185.634 162.615  0.00  0.00     0.011 A 
ENDBRANCH  24  25
ENDBRANCH  22  23
ENDBRANCH  21  22
ENDBRANCH   6  21
BRANCH   3  31
HETATM   31  O   UNK     0     186.812 189.863 169.503  0.00  0.00    -0.390 OA
HETATM   32  H   UNK     0     187.503 189.183 169.589  0.00  0.00     0.210 HD
ENDBRANCH   3  31
BRANCH   5  33
HETATM   33  O   UNK     0     182.312 190.622 168.028  0.00  0.00    -0.388 OA
HETATM   34  H   UNK     0     181.501 190.193 167.707  0.00  0.00     0.210 HD
ENDBRANCH   5  33
BRANCH   4  35
HETATM   35  O   UNK     0     184.216 190.880 170.262  0.00  0.00    -0.390 OA
HETATM   36  H   UNK     0     183.288 191.172 170.248  0.00  0.00     0.210 HD
ENDBRANCH   4  35
TORSDOF 13
