REMARK VINA RESULT:      -7.7      5.875      8.194
REMARK  13 active torsions:
REMARK  status: ('A' for Active; 'I' for Inactive)
REMARK    1  A    between atoms: O_2  and  C_16 
REMARK    2  A    between atoms: O_2  and  C_17 
REMARK    3  A    between atoms: O_4  and  C_12 
REMARK    4  A    between atoms: O_5  and  C_13 
REMARK    5  A    between atoms: O_6  and  C_15 
REMARK    6  A    between atoms: O_6  and  C_22 
REMARK    7  A    between atoms: O_7  and  C_14 
REMARK    8  A    between atoms: O_8  and  C_18 
REMARK    9  A    between atoms: O_9  and  C_19 
REMARK   10  A    between atoms: O_10  and  C_20 
REMARK   11  A    between atoms: C_11  and  C_16 
REMARK   12  A    between atoms: C_22  and  C_23 
REMARK   13  A    between atoms: C_24  and  C_25 
ROOT
HETATM    1  O   UNK     0     186.797 183.405 169.126  0.00  0.00    -0.348 OA
HETATM    2  C   UNK     0     187.084 183.921 170.427  0.00  0.00     0.180 C 
HETATM    3  C   UNK     0     188.034 185.116 170.317  0.00  0.00     0.180 C 
HETATM    4  C   UNK     0     189.307 184.730 169.565  0.00  0.00     0.183 C 
HETATM    5  C   UNK     0     188.980 184.013 168.254  0.00  0.00     0.204 C 
HETATM    6  C   UNK     0     187.957 182.899 168.471  0.00  0.00     0.291 C 
ENDROOT
BRANCH   2   7
HETATM    7  C   UNK     0     185.757 184.311 171.071  0.00  0.00     0.205 C 
BRANCH   7   8
HETATM    8  O   UNK     0     186.016 184.805 172.372  0.00  0.00    -0.356 OA
BRANCH   8   9
HETATM    9  C   UNK     0     185.455 183.966 173.377  0.00  0.00     0.290 C 
HETATM   10  O   UNK     0     184.360 184.595 174.051  0.00  0.00    -0.356 OA
HETATM   11  C   UNK     0     184.739 185.724 174.835  0.00  0.00     0.205 C 
HETATM   12  C   UNK     0     185.727 185.316 175.920  0.00  0.00     0.173 C 
HETATM   13  C   UNK     0     186.965 184.662 175.304  0.00  0.00     0.182 C 
HETATM   14  C   UNK     0     186.549 183.527 174.363  0.00  0.00     0.204 C 
BRANCH  12  15
HETATM   15  O   UNK     0     186.111 186.447 176.690  0.00  0.00    -0.391 OA
HETATM   16  H   UNK     0     185.419 186.598 177.356  0.00  0.00     0.210 HD
ENDBRANCH  12  15
BRANCH  13  17
HETATM   17  O   UNK     0     187.702 185.642 174.575  0.00  0.00    -0.390 OA
HETATM   18  H   UNK     0     187.724 185.358 173.644  0.00  0.00     0.210 HD
ENDBRANCH  13  17
BRANCH  14  19
HETATM   19  O   UNK     0     186.039 182.439 175.131  0.00  0.00    -0.388 OA
HETATM   20  H   UNK     0     185.115 182.288 174.873  0.00  0.00     0.210 HD
ENDBRANCH  14  19
ENDBRANCH   8   9
ENDBRANCH   7   8
ENDBRANCH   2   7
BRANCH   6  21
HETATM   21  O   UNK     0     187.598 182.377 167.192  0.00  0.00    -0.355 OA
BRANCH  21  22
HETATM   22  C   UNK     0     186.482 181.505 167.284  0.00  0.00     0.198 C 
BRANCH  22  23
HETATM   23  C   UNK     0     185.511 181.852 166.202  0.00  0.00     0.000 C 
HETATM   24  C   UNK     0     185.884 182.182 164.955  0.00  0.00     0.009 C 
BRANCH  24  25
HETATM   25  C   UNK     0     184.964 182.516 163.854  0.00  0.00    -0.036 A 
HETATM   26  C   UNK     0     185.464 183.119 162.711  0.00  0.00     0.011 A 
HETATM   27  C   UNK     0     184.593 183.436 161.668  0.00  0.00     0.001 A 
HETATM   28  C   UNK     0     183.234 183.144 161.782  0.00  0.00     0.000 A 
HETATM   29  C   UNK     0     182.745 182.537 162.938  0.00  0.00     0.001 A 
HETATM   30  C   UNK     0     183.616 182.220 163.981  0.00  0.00     0.011 A 
ENDBRANCH  24  25
ENDBRANCH  22  23
ENDBRANCH  21  22
ENDBRANCH   6  21
BRANCH   3  31
HETATM   31  O   UNK     0     188.377 185.568 171.625  0.00  0.00    -0.390 OA
HETATM   32  H   UNK     0     188.938 184.889 172.038  0.00  0.00     0.210 HD
ENDBRANCH   3  31
BRANCH   5  33
HETATM   33  O   UNK     0     190.170 183.432 167.723  0.00  0.00    -0.388 OA
HETATM   34  H   UNK     0     190.604 182.931 168.434  0.00  0.00     0.210 HD
ENDBRANCH   5  33
BRANCH   4  35
HETATM   35  O   UNK     0     190.034 185.927 169.284  0.00  0.00    -0.390 OA
HETATM   36  H   UNK     0     189.410 186.562 168.893  0.00  0.00     0.210 HD
ENDBRANCH   4  35
TORSDOF 13
