MODEL 1
REMARK VINA RESULT:    -7.841      0.000      0.000
REMARK INTER + INTRA:          -9.339
REMARK INTER:                  -9.217
REMARK INTRA:                  -0.122
REMARK UNBOUND:                -0.122
REMARK  Name = 7431
REMARK  4 active torsions:
REMARK  status: ('A' for Active; 'I' for Inactive)
REMARK    1  A    between atoms: O_3  and  C_12
REMARK    2  A    between atoms: O_4  and  C_13
REMARK    3  A    between atoms: C_7  and  C_12
REMARK    4  A    between atoms: C_8  and  C_13
REMARK                            x       y       z     vdW  Elec       q    Type
REMARK                         _______ _______ _______ _____ _____    ______ ____
ROOT
ATOM      1  O   UNL     1      81.747  82.060 103.958  0.00  0.00    +0.000 OA
ATOM      2  O   UNL     1      79.093  83.475 101.249  0.00  0.00    +0.000 OA
ATOM      3  C   UNL     1      82.151  82.422 102.690  0.00  0.00    +0.000 A 
ATOM      4  C   UNL     1      80.412  82.195 104.275  0.00  0.00    +0.000 A 
ATOM      5  C   UNL     1      81.333  82.897 101.743  0.00  0.00    +0.000 A 
ATOM      6  C   UNL     1      79.478  82.654 103.434  0.00  0.00    +0.000 A 
ATOM      7  C   UNL     1      79.897  83.047 102.070  0.00  0.00    +0.000 A 
ENDROOT
BRANCH   3   9
ATOM      8  O   UNL     1      84.159  82.934 101.525  0.00  0.00    +0.000 OA
ATOM      9  C   UNL     1      83.569  82.275 102.365  0.00  0.00    +0.000 C 
BRANCH   9  10
ATOM     10  O   UNL     1      84.114  81.307 103.133  0.00  0.00    +0.000 OA
ATOM     11  H   UNL     1      84.150  81.563 104.079  0.00  0.00    +0.000 HD
ENDBRANCH   9  10
ENDBRANCH   3   9
BRANCH   4  13
ATOM     12  O   UNL     1      79.052  82.295 106.223  0.00  0.00    +0.000 OA
ATOM     13  C   UNL     1      79.995  81.808 105.622  0.00  0.00    +0.000 C 
BRANCH  13  14
ATOM     14  O   UNL     1      80.810  80.838 106.090  0.00  0.00    +0.000 OA
ATOM     15  H   UNL     1      80.815  80.800 107.070  0.00  0.00    +0.000 HD
ENDBRANCH  13  14
ENDBRANCH   4  13
TORSDOF 4
ENDMDL
MODEL 2
REMARK VINA RESULT:    -7.796      0.077      4.000
REMARK INTER + INTRA:          -9.286
REMARK INTER:                  -9.163
REMARK INTRA:                  -0.123
REMARK UNBOUND:                -0.122
REMARK  Name = 7431
REMARK  4 active torsions:
REMARK  status: ('A' for Active; 'I' for Inactive)
REMARK    1  A    between atoms: O_3  and  C_12
REMARK    2  A    between atoms: O_4  and  C_13
REMARK    3  A    between atoms: C_7  and  C_12
REMARK    4  A    between atoms: C_8  and  C_13
REMARK                            x       y       z     vdW  Elec       q    Type
REMARK                         _______ _______ _______ _____ _____    ______ ____
ROOT
ATOM      1  O   UNL     1      81.761  82.065 103.928  0.00  0.00    +0.000 OA
ATOM      2  O   UNL     1      79.180  83.523 101.172  0.00  0.00    +0.000 OA
ATOM      3  C   UNL     1      80.421  82.214 104.218  0.00  0.00    +0.000 A 
ATOM      4  C   UNL     1      82.195  82.428 102.670  0.00  0.00    +0.000 A 
ATOM      5  C   UNL     1      79.510  82.688 103.360  0.00  0.00    +0.000 A 
ATOM      6  C   UNL     1      81.402  82.916 101.708  0.00  0.00    +0.000 A 
ATOM      7  C   UNL     1      79.962  83.081 102.007  0.00  0.00    +0.000 A 
ENDROOT
BRANCH   3   9
ATOM      8  O   UNL     1      78.999  82.292 106.122  0.00  0.00    +0.000 OA
ATOM      9  C   UNL     1      79.973  81.825 105.555  0.00  0.00    +0.000 C 
BRANCH   9  10
ATOM     10  O   UNL     1      80.797  80.880 106.054  0.00  0.00    +0.000 OA
ATOM     11  H   UNL     1      81.736  81.055 105.834  0.00  0.00    +0.000 HD
ENDBRANCH   9  10
ENDBRANCH   3   9
BRANCH   4  13
ATOM     12  O   UNL     1      84.228  82.907 101.534  0.00  0.00    +0.000 OA
ATOM     13  C   UNL     1      83.618  82.266 102.373  0.00  0.00    +0.000 C 
BRANCH  13  14
ATOM     14  O   UNL     1      84.141  81.306 103.166  0.00  0.00    +0.000 OA
ATOM     15  H   UNL     1      83.449  80.730 103.555  0.00  0.00    +0.000 HD
ENDBRANCH  13  14
ENDBRANCH   4  13
TORSDOF 4
ENDMDL
MODEL 3
REMARK VINA RESULT:    -7.402      2.120      4.757
REMARK INTER + INTRA:          -8.822
REMARK INTER:                  -8.709
REMARK INTRA:                  -0.113
REMARK UNBOUND:                -0.122
REMARK  Name = 7431
REMARK  4 active torsions:
REMARK  status: ('A' for Active; 'I' for Inactive)
REMARK    1  A    between atoms: O_3  and  C_12
REMARK    2  A    between atoms: O_4  and  C_13
REMARK    3  A    between atoms: C_7  and  C_12
REMARK    4  A    between atoms: C_8  and  C_13
REMARK                            x       y       z     vdW  Elec       q    Type
REMARK                         _______ _______ _______ _____ _____    ______ ____
ROOT
ATOM      1  O   UNL     1      80.456  84.391 102.745  0.00  0.00    +0.000 OA
ATOM      2  O   UNL     1      84.092  83.129 101.492  0.00  0.00    +0.000 OA
ATOM      3  C   UNL     1      81.068  83.299 103.324  0.00  0.00    +0.000 A 
ATOM      4  C   UNL     1      81.121  85.040 101.726  0.00  0.00    +0.000 A 
ATOM      5  C   UNL     1      82.266  82.824 102.964  0.00  0.00    +0.000 A 
ATOM      6  C   UNL     1      82.323  84.681 101.259  0.00  0.00    +0.000 A 
ATOM      7  C   UNL     1      82.991  83.511 101.872  0.00  0.00    +0.000 A 
ENDROOT
BRANCH   3   9
ATOM      8  O   UNL     1      79.182  82.809 104.688  0.00  0.00    +0.000 OA
ATOM      9  C   UNL     1      80.353  82.619 104.404  0.00  0.00    +0.000 C 
BRANCH   9  10
ATOM     10  O   UNL     1      81.185  81.758 105.029  0.00  0.00    +0.000 OA
ATOM     11  H   UNL     1      81.496  82.105 105.892  0.00  0.00    +0.000 HD
ENDBRANCH   9  10
ENDBRANCH   3   9
BRANCH   4  13
ATOM     12  O   UNL     1      80.866  87.344 101.201  0.00  0.00    +0.000 OA
ATOM     13  C   UNL     1      80.463  86.196 101.119  0.00  0.00    +0.000 C 
BRANCH  13  14
ATOM     14  O   UNL     1      79.352  85.796 100.463  0.00  0.00    +0.000 OA
ATOM     15  H   UNL     1      79.144  84.852 100.632  0.00  0.00    +0.000 HD
ENDBRANCH  13  14
ENDBRANCH   4  13
TORSDOF 4
ENDMDL
MODEL 4
REMARK VINA RESULT:    -7.392      2.541      4.337
REMARK INTER + INTRA:          -8.811
REMARK INTER:                  -8.711
REMARK INTRA:                  -0.100
REMARK UNBOUND:                -0.122
REMARK  Name = 7431
REMARK  4 active torsions:
REMARK  status: ('A' for Active; 'I' for Inactive)
REMARK    1  A    between atoms: O_3  and  C_12
REMARK    2  A    between atoms: O_4  and  C_13
REMARK    3  A    between atoms: C_7  and  C_12
REMARK    4  A    between atoms: C_8  and  C_13
REMARK                            x       y       z     vdW  Elec       q    Type
REMARK                         _______ _______ _______ _____ _____    ______ ____
ROOT
ATOM      1  O   UNL     1      82.291  84.544 102.550  0.00  0.00    +0.000 OA
ATOM      2  O   UNL     1      78.702  83.949 100.776  0.00  0.00    +0.000 OA
ATOM      3  C   UNL     1      81.552  83.408 102.804  0.00  0.00    +0.000 A 
ATOM      4  C   UNL     1      81.769  85.471 101.672  0.00  0.00    +0.000 A 
ATOM      5  C   UNL     1      80.360  83.142 102.257  0.00  0.00    +0.000 A 
ATOM      6  C   UNL     1      80.592  85.344 101.049  0.00  0.00    +0.000 A 
ATOM      7  C   UNL     1      79.789  84.129 101.313  0.00  0.00    +0.000 A 
ENDROOT
BRANCH   3   9
ATOM      8  O   UNL     1      83.096  81.743 103.510  0.00  0.00    +0.000 OA
ATOM      9  C   UNL     1      82.115  82.431 103.736  0.00  0.00    +0.000 C 
BRANCH   9  10
ATOM     10  O   UNL     1      81.385  82.414 104.873  0.00  0.00    +0.000 OA
ATOM     11  H   UNL     1      80.513  82.846 104.758  0.00  0.00    +0.000 HD
ENDBRANCH   9  10
ENDBRANCH   3   9
BRANCH   4  13
ATOM     12  O   UNL     1      82.215  87.807 101.693  0.00  0.00    +0.000 OA
ATOM     13  C   UNL     1      82.562  86.672 101.410  0.00  0.00    +0.000 C 
BRANCH  13  14
ATOM     14  O   UNL     1      83.723  86.330 100.811  0.00  0.00    +0.000 OA
ATOM     15  H   UNL     1      83.821  85.358 100.725  0.00  0.00    +0.000 HD
ENDBRANCH  13  14
ENDBRANCH   4  13
TORSDOF 4
ENDMDL
MODEL 5
REMARK VINA RESULT:    -7.389      2.534      3.393
REMARK INTER + INTRA:          -8.807
REMARK INTER:                  -8.707
REMARK INTRA:                  -0.100
REMARK UNBOUND:                -0.122
REMARK  Name = 7431
REMARK  4 active torsions:
REMARK  status: ('A' for Active; 'I' for Inactive)
REMARK    1  A    between atoms: O_3  and  C_12
REMARK    2  A    between atoms: O_4  and  C_13
REMARK    3  A    between atoms: C_7  and  C_12
REMARK    4  A    between atoms: C_8  and  C_13
REMARK                            x       y       z     vdW  Elec       q    Type
REMARK                         _______ _______ _______ _____ _____    ______ ____
ROOT
ATOM      1  O   UNL     1      82.262  84.531 102.558  0.00  0.00    +0.000 OA
ATOM      2  O   UNL     1      78.677  83.947 100.770  0.00  0.00    +0.000 OA
ATOM      3  C   UNL     1      81.752  85.454 101.668  0.00  0.00    +0.000 A 
ATOM      4  C   UNL     1      81.512  83.403 102.819  0.00  0.00    +0.000 A 
ATOM      5  C   UNL     1      80.577  85.329 101.040  0.00  0.00    +0.000 A 
ATOM      6  C   UNL     1      80.321  83.141 102.268  0.00  0.00    +0.000 A 
ATOM      7  C   UNL     1      79.763  84.124 101.311  0.00  0.00    +0.000 A 
ENDROOT
BRANCH   3   9
ATOM      8  O   UNL     1      82.220  87.784 101.679  0.00  0.00    +0.000 OA
ATOM      9  C   UNL     1      82.555  86.646 101.398  0.00  0.00    +0.000 C 
BRANCH   9  10
ATOM     10  O   UNL     1      83.711  86.289 100.797  0.00  0.00    +0.000 OA
ATOM     11  H   UNL     1      83.639  85.424 100.342  0.00  0.00    +0.000 HD
ENDBRANCH   9  10
ENDBRANCH   3   9
BRANCH   4  13
ATOM     12  O   UNL     1      83.033  81.726 103.546  0.00  0.00    +0.000 OA
ATOM     13  C   UNL     1      82.062  82.431 103.764  0.00  0.00    +0.000 C 
BRANCH  13  14
ATOM     14  O   UNL     1      81.334  82.439 104.901  0.00  0.00    +0.000 OA
ATOM     15  H   UNL     1      80.968  81.554 105.112  0.00  0.00    +0.000 HD
ENDBRANCH  13  14
ENDBRANCH   4  13
TORSDOF 4
ENDMDL
MODEL 6
REMARK VINA RESULT:    -7.388      2.142      3.729
REMARK INTER + INTRA:          -8.806
REMARK INTER:                  -8.694
REMARK INTRA:                  -0.112
REMARK UNBOUND:                -0.122
REMARK  Name = 7431
REMARK  4 active torsions:
REMARK  status: ('A' for Active; 'I' for Inactive)
REMARK    1  A    between atoms: O_3  and  C_12
REMARK    2  A    between atoms: O_4  and  C_13
REMARK    3  A    between atoms: C_7  and  C_12
REMARK    4  A    between atoms: C_8  and  C_13
REMARK                            x       y       z     vdW  Elec       q    Type
REMARK                         _______ _______ _______ _____ _____    ______ ____
ROOT
ATOM      1  O   UNL     1      80.469  84.413 102.736  0.00  0.00    +0.000 OA
ATOM      2  O   UNL     1      84.081  83.068 101.497  0.00  0.00    +0.000 OA
ATOM      3  C   UNL     1      81.153  85.045 101.718  0.00  0.00    +0.000 A 
ATOM      4  C   UNL     1      81.055  83.308 103.318  0.00  0.00    +0.000 A 
ATOM      5  C   UNL     1      82.348  84.660 101.256  0.00  0.00    +0.000 A 
ATOM      6  C   UNL     1      82.243  82.806 102.963  0.00  0.00    +0.000 A 
ATOM      7  C   UNL     1      82.987  83.475 101.872  0.00  0.00    +0.000 A 
ENDROOT
BRANCH   3   9
ATOM      8  O   UNL     1      80.958  87.353 101.180  0.00  0.00    +0.000 OA
ATOM      9  C   UNL     1      80.523  86.216 101.108  0.00  0.00    +0.000 C 
BRANCH   9  10
ATOM     10  O   UNL     1      79.398  85.842 100.461  0.00  0.00    +0.000 OA
ATOM     11  H   UNL     1      79.284  86.320  99.612  0.00  0.00    +0.000 HD
ENDBRANCH   9  10
ENDBRANCH   3   9
BRANCH   4  13
ATOM     12  O   UNL     1      79.127  82.779 104.606  0.00  0.00    +0.000 OA
ATOM     13  C   UNL     1      80.321  82.645 104.396  0.00  0.00    +0.000 C 
BRANCH  13  14
ATOM     14  O   UNL     1      81.165  81.871 105.112  0.00  0.00    +0.000 OA
ATOM     15  H   UNL     1      82.069  81.859 104.731  0.00  0.00    +0.000 HD
ENDBRANCH  13  14
ENDBRANCH   4  13
TORSDOF 4
ENDMDL
MODEL 7
REMARK VINA RESULT:    -7.355      2.447      4.173
REMARK INTER + INTRA:          -8.768
REMARK INTER:                  -8.654
REMARK INTRA:                  -0.114
REMARK UNBOUND:                -0.122
REMARK  Name = 7431
REMARK  4 active torsions:
REMARK  status: ('A' for Active; 'I' for Inactive)
REMARK    1  A    between atoms: O_3  and  C_12
REMARK    2  A    between atoms: O_4  and  C_13
REMARK    3  A    between atoms: C_7  and  C_12
REMARK    4  A    between atoms: C_8  and  C_13
REMARK                            x       y       z     vdW  Elec       q    Type
REMARK                         _______ _______ _______ _____ _____    ______ ____
ROOT
ATOM      1  O   UNL     1      83.143  84.120 101.926  0.00  0.00    +0.000 OA
ATOM      2  O   UNL     1      79.637  83.568 103.872  0.00  0.00    +0.000 OA
ATOM      3  C   UNL     1      82.791  82.881 102.419  0.00  0.00    +0.000 A 
ATOM      4  C   UNL     1      82.263  85.165 102.115  0.00  0.00    +0.000 A 
ATOM      5  C   UNL     1      81.652  82.623 103.072  0.00  0.00    +0.000 A 
ATOM      6  C   UNL     1      81.088  85.060 102.748  0.00  0.00    +0.000 A 
ATOM      7  C   UNL     1      80.699  83.735 103.282  0.00  0.00    +0.000 A 
ENDROOT
BRANCH   3   9
ATOM      8  O   UNL     1      84.160  81.431 101.126  0.00  0.00    +0.000 OA
ATOM      9  C   UNL     1      83.732  81.781 102.212  0.00  0.00    +0.000 C 
BRANCH   9  10
ATOM     10  O   UNL     1      84.046  81.221 103.401  0.00  0.00    +0.000 OA
ATOM     11  H   UNL     1      84.837  80.644 103.339  0.00  0.00    +0.000 HD
ENDBRANCH   9  10
ENDBRANCH   3   9
BRANCH   4  13
ATOM     12  O   UNL     1      83.785  86.796 101.292  0.00  0.00    +0.000 OA
ATOM     13  C   UNL     1      82.646  86.474 101.588  0.00  0.00    +0.000 C 
BRANCH  13  14
ATOM     14  O   UNL     1      81.553  87.260 101.481  0.00  0.00    +0.000 OA
ATOM     15  H   UNL     1      80.724  86.765 101.656  0.00  0.00    +0.000 HD
ENDBRANCH  13  14
ENDBRANCH   4  13
TORSDOF 4
ENDMDL
MODEL 8
REMARK VINA RESULT:    -7.332      1.865      2.361
REMARK INTER + INTRA:          -8.741
REMARK INTER:                  -8.632
REMARK INTRA:                  -0.109
REMARK UNBOUND:                -0.122
REMARK  Name = 7431
REMARK  4 active torsions:
REMARK  status: ('A' for Active; 'I' for Inactive)
REMARK    1  A    between atoms: O_3  and  C_12
REMARK    2  A    between atoms: O_4  and  C_13
REMARK    3  A    between atoms: C_7  and  C_12
REMARK    4  A    between atoms: C_8  and  C_13
REMARK                            x       y       z     vdW  Elec       q    Type
REMARK                         _______ _______ _______ _____ _____    ______ ____
ROOT
ATOM      1  O   UNL     1      81.854  82.555 102.931  0.00  0.00    +0.000 OA
ATOM      2  O   UNL     1      80.896  82.975  99.021  0.00  0.00    +0.000 OA
ATOM      3  C   UNL     1      82.715  82.134 101.939  0.00  0.00    +0.000 A 
ATOM      4  C   UNL     1      80.657  83.124 102.550  0.00  0.00    +0.000 A 
ATOM      5  C   UNL     1      82.467  82.239 100.628  0.00  0.00    +0.000 A 
ATOM      6  C   UNL     1      80.272  83.296 101.280  0.00  0.00    +0.000 A 
ATOM      7  C   UNL     1      81.186  82.848 100.205  0.00  0.00    +0.000 A 
ENDROOT
BRANCH   3   9
ATOM      8  O   UNL     1      84.149  80.923 103.398  0.00  0.00    +0.000 OA
ATOM      9  C   UNL     1      83.981  81.532 102.355  0.00  0.00    +0.000 C 
BRANCH   9  10
ATOM     10  O   UNL     1      84.923  81.755 101.412  0.00  0.00    +0.000 OA
ATOM     11  H   UNL     1      85.186  80.931 100.951  0.00  0.00    +0.000 HD
ENDBRANCH   9  10
ENDBRANCH   3   9
BRANCH   4  13
ATOM     12  O   UNL     1      78.720  82.998 103.922  0.00  0.00    +0.000 OA
ATOM     13  C   UNL     1      79.752  83.567 103.610  0.00  0.00    +0.000 C 
BRANCH  13  14
ATOM     14  O   UNL     1      80.236  84.692 104.180  0.00  0.00    +0.000 OA
ATOM     15  H   UNL     1      79.637  85.040 104.875  0.00  0.00    +0.000 HD
ENDBRANCH  13  14
ENDBRANCH   4  13
TORSDOF 4
ENDMDL
MODEL 9
REMARK VINA RESULT:    -7.304      2.472      4.149
REMARK INTER + INTRA:          -8.707
REMARK INTER:                  -8.595
REMARK INTRA:                  -0.112
REMARK UNBOUND:                -0.122
REMARK  Name = 7431
REMARK  4 active torsions:
REMARK  status: ('A' for Active; 'I' for Inactive)
REMARK    1  A    between atoms: O_3  and  C_12
REMARK    2  A    between atoms: O_4  and  C_13
REMARK    3  A    between atoms: C_7  and  C_12
REMARK    4  A    between atoms: C_8  and  C_13
REMARK                            x       y       z     vdW  Elec       q    Type
REMARK                         _______ _______ _______ _____ _____    ______ ____
ROOT
ATOM      1  O   UNL     1      83.113  84.138 101.873  0.00  0.00    +0.000 OA
ATOM      2  O   UNL     1      79.585  83.638 103.795  0.00  0.00    +0.000 OA
ATOM      3  C   UNL     1      82.258  85.201 102.077  0.00  0.00    +0.000 A 
ATOM      4  C   UNL     1      82.729  82.900 102.344  0.00  0.00    +0.000 A 
ATOM      5  C   UNL     1      81.078  85.113 102.703  0.00  0.00    +0.000 A 
ATOM      6  C   UNL     1      81.580  82.658 102.987  0.00  0.00    +0.000 A 
ATOM      7  C   UNL     1      80.654  83.790 103.213  0.00  0.00    +0.000 A 
ENDROOT
BRANCH   3   9
ATOM      8  O   UNL     1      83.819  86.801 101.268  0.00  0.00    +0.000 OA
ATOM      9  C   UNL     1      82.675  86.509 101.574  0.00  0.00    +0.000 C 
BRANCH   9  10
ATOM     10  O   UNL     1      81.606  87.332 101.503  0.00  0.00    +0.000 OA
ATOM     11  H   UNL     1      81.221  87.360 100.602  0.00  0.00    +0.000 HD
ENDBRANCH   9  10
ENDBRANCH   3   9
BRANCH   4  13
ATOM     12  O   UNL     1      84.009  81.392 101.024  0.00  0.00    +0.000 OA
ATOM     13  C   UNL     1      83.643  81.780 102.121  0.00  0.00    +0.000 C 
BRANCH  13  14
ATOM     14  O   UNL     1      84.013  81.252 103.308  0.00  0.00    +0.000 OA
ATOM     15  H   UNL     1      84.077  81.932 104.011  0.00  0.00    +0.000 HD
ENDBRANCH  13  14
ENDBRANCH   4  13
TORSDOF 4
ENDMDL
MODEL 10
REMARK VINA RESULT:    -7.116      3.049      4.526
REMARK INTER + INTRA:          -8.486
REMARK INTER:                  -8.386
REMARK INTRA:                  -0.101
REMARK UNBOUND:                -0.122
REMARK  Name = 7431
REMARK  4 active torsions:
REMARK  status: ('A' for Active; 'I' for Inactive)
REMARK    1  A    between atoms: O_3  and  C_12
REMARK    2  A    between atoms: O_4  and  C_13
REMARK    3  A    between atoms: C_7  and  C_12
REMARK    4  A    between atoms: C_8  and  C_13
REMARK                            x       y       z     vdW  Elec       q    Type
REMARK                         _______ _______ _______ _____ _____    ______ ____
ROOT
ATOM      1  O   UNL     1      83.175  84.285 101.765  0.00  0.00    +0.000 OA
ATOM      2  O   UNL     1      80.713  83.043  98.801  0.00  0.00    +0.000 OA
ATOM      3  C   UNL     1      82.974  82.941 101.524  0.00  0.00    +0.000 A 
ATOM      4  C   UNL     1      82.512  85.191 100.965  0.00  0.00    +0.000 A 
ATOM      5  C   UNL     1      82.176  82.456 100.565  0.00  0.00    +0.000 A 
ATOM      6  C   UNL     1      81.684  84.857  99.968  0.00  0.00    +0.000 A 
ATOM      7  C   UNL     1      81.459  83.419  99.699  0.00  0.00    +0.000 A 
ENDROOT
BRANCH   3   9
ATOM      8  O   UNL     1      83.279  81.596 103.460  0.00  0.00    +0.000 OA
ATOM      9  C   UNL     1      83.682  81.989 102.378  0.00  0.00    +0.000 C 
BRANCH   9  10
ATOM     10  O   UNL     1      84.838  81.618 101.786  0.00  0.00    +0.000 OA
ATOM     11  H   UNL     1      84.819  81.765 100.817  0.00  0.00    +0.000 HD
ENDBRANCH   9  10
ENDBRANCH   3   9
BRANCH   4  13
ATOM     12  O   UNL     1      81.850  87.417 101.475  0.00  0.00    +0.000 OA
ATOM     13  C   UNL     1      82.733  86.613 101.229  0.00  0.00    +0.000 C 
BRANCH  13  14
ATOM     14  O   UNL     1      84.053  86.889 101.158  0.00  0.00    +0.000 OA
ATOM     15  H   UNL     1      84.291  87.344 100.323  0.00  0.00    +0.000 HD
ENDBRANCH  13  14
ENDBRANCH   4  13
TORSDOF 4
ENDMDL
