MODEL 1
REMARK VINA RESULT:      -8.5      0.000      0.000
REMARK  10 active torsions:
REMARK  status: ('A' for Active; 'I' for Inactive)
REMARK    1  A    between atoms: O_2  and  C_12 
REMARK    2  A    between atoms: O_2  and  C_14 
REMARK    3  A    between atoms: O_3  and  C_8 
REMARK    4  A    between atoms: O_4  and  C_9 
REMARK    5  A    between atoms: O_5  and  C_10 
REMARK    6  A    between atoms: O_6  and  C_13 
REMARK    7  A    between atoms: O_7  and  C_21 
REMARK    8  A    between atoms: C_11  and  C_13 
REMARK    9  A    between atoms: C_14  and  C_15 
REMARK   10  A    between atoms: C_15  and  C_16 
ROOT
HETATM    1  O   UNK     0      16.223  37.565  27.546  0.00  0.00    -0.348 OA
HETATM    2  C   UNK     0      17.475  39.897  26.431  0.00  0.00     0.183 C 
HETATM    3  C   UNK     0      16.080  39.434  26.010  0.00  0.00     0.180 C 
HETATM    4  C   UNK     0      18.282  38.745  27.032  0.00  0.00     0.204 C 
HETATM    5  C   UNK     0      15.400  38.660  27.141  0.00  0.00     0.179 C 
HETATM    6  C   UNK     0      17.472  37.990  28.086  0.00  0.00     0.291 C 
ENDROOT
BRANCH   5   7
HETATM    7  C   UNK     0      14.056  38.088  26.704  0.00  0.00     0.198 C 
BRANCH   7   8
HETATM    8  O   UNK     0      13.039  39.010  27.048  0.00  0.00    -0.398 OA
HETATM    9  H   UNK     0      13.066  39.734  26.400  0.00  0.00     0.209 HD
ENDBRANCH   7   8
ENDBRANCH   5   7
BRANCH   6  10
HETATM   10  O   UNK     0      18.233  36.853  28.492  0.00  0.00    -0.358 OA
BRANCH  10  11
HETATM   11  C   UNK     0      18.185  35.824  27.515  0.00  0.00     0.175 C 
BRANCH  11  12
HETATM   12  C   UNK     0      17.891  34.488  28.188  0.00  0.00     0.065 C 
BRANCH  12  13
HETATM   13  C   UNK     0      18.700  33.358  27.598  0.00  0.00    -0.056 A 
HETATM   14  C   UNK     0      19.644  33.635  26.624  0.00  0.00     0.010 A 
HETATM   15  C   UNK     0      20.391  32.591  26.079  0.00  0.00     0.037 A 
HETATM   16  C   UNK     0      20.182  31.282  26.516  0.00  0.00     0.065 A 
HETATM   17  C   UNK     0      19.228  31.019  27.498  0.00  0.00     0.037 A 
HETATM   18  C   UNK     0      18.482  32.064  28.043  0.00  0.00     0.010 A 
BRANCH  16  19
HETATM   19  O   UNK     0      20.912  30.264  25.984  0.00  0.00    -0.361 OA
HETATM   20  H   UNK     0      20.389  29.833  25.286  0.00  0.00     0.217 HD
ENDBRANCH  16  19
ENDBRANCH  12  13
ENDBRANCH  11  12
ENDBRANCH  10  11
ENDBRANCH   6  10
BRANCH   3  21
HETATM   21  O   UNK     0      15.289  40.571  25.674  0.00  0.00    -0.390 OA
HETATM   22  H   UNK     0      14.398  40.436  26.040  0.00  0.00     0.210 HD
ENDBRANCH   3  21
BRANCH   4  23
HETATM   23  O   UNK     0      19.455  39.265  27.658  0.00  0.00    -0.388 OA
HETATM   24  H   UNK     0      20.163  38.602  27.570  0.00  0.00     0.210 HD
ENDBRANCH   4  23
BRANCH   2  25
HETATM   25  O   UNK     0      18.145  40.392  25.271  0.00  0.00    -0.390 OA
HETATM   26  H   UNK     0      17.488  40.448  24.557  0.00  0.00     0.210 HD
ENDBRANCH   2  25
TORSDOF 10
ENDMDL
MODEL 2
REMARK VINA RESULT:      -8.4     11.755     18.643
REMARK  10 active torsions:
REMARK  status: ('A' for Active; 'I' for Inactive)
REMARK    1  A    between atoms: O_2  and  C_12 
REMARK    2  A    between atoms: O_2  and  C_14 
REMARK    3  A    between atoms: O_3  and  C_8 
REMARK    4  A    between atoms: O_4  and  C_9 
REMARK    5  A    between atoms: O_5  and  C_10 
REMARK    6  A    between atoms: O_6  and  C_13 
REMARK    7  A    between atoms: O_7  and  C_21 
REMARK    8  A    between atoms: C_11  and  C_13 
REMARK    9  A    between atoms: C_14  and  C_15 
REMARK   10  A    between atoms: C_15  and  C_16 
ROOT
HETATM    1  O   UNK     0      28.179  20.500  24.706  0.00  0.00    -0.348 OA
HETATM    2  C   UNK     0      27.022  18.857  22.653  0.00  0.00     0.183 C 
HETATM    3  C   UNK     0      28.439  19.425  22.550  0.00  0.00     0.180 C 
HETATM    4  C   UNK     0      26.168  19.676  23.622  0.00  0.00     0.204 C 
HETATM    5  C   UNK     0      29.036  19.652  23.940  0.00  0.00     0.179 C 
HETATM    6  C   UNK     0      26.900  19.916  24.943  0.00  0.00     0.291 C 
ENDROOT
BRANCH   5   7
HETATM    7  C   UNK     0      30.401  20.327  23.864  0.00  0.00     0.198 C 
BRANCH   7   8
HETATM    8  O   UNK     0      31.402  19.345  24.062  0.00  0.00    -0.398 OA
HETATM    9  H   UNK     0      32.194  19.796  24.400  0.00  0.00     0.209 HD
ENDBRANCH   7   8
ENDBRANCH   5   7
BRANCH   6  10
HETATM   10  O   UNK     0      26.105  20.800  25.731  0.00  0.00    -0.358 OA
BRANCH  10  11
HETATM   11  C   UNK     0      25.968  22.067  25.106  0.00  0.00     0.175 C 
BRANCH  11  12
HETATM   12  C   UNK     0      26.509  23.156  26.025  0.00  0.00     0.065 C 
BRANCH  12  13
HETATM   13  C   UNK     0      25.712  24.435  25.931  0.00  0.00    -0.056 A 
HETATM   14  C   UNK     0      24.820  24.604  24.886  0.00  0.00     0.010 A 
HETATM   15  C   UNK     0      24.084  25.785  24.799  0.00  0.00     0.037 A 
HETATM   16  C   UNK     0      24.250  26.783  25.761  0.00  0.00     0.065 A 
HETATM   17  C   UNK     0      25.151  26.598  26.808  0.00  0.00     0.037 A 
HETATM   18  C   UNK     0      25.888  25.416  26.894  0.00  0.00     0.010 A 
BRANCH  16  19
HETATM   19  O   UNK     0      23.531  27.935  25.676  0.00  0.00    -0.361 OA
HETATM   20  H   UNK     0      22.839  27.926  26.359  0.00  0.00     0.217 HD
ENDBRANCH  16  19
ENDBRANCH  12  13
ENDBRANCH  11  12
ENDBRANCH  10  11
ENDBRANCH   6  10
BRANCH   3  21
HETATM   21  O   UNK     0      29.260  18.511  21.827  0.00  0.00    -0.390 OA
HETATM   22  H   UNK     0      29.533  18.941  20.999  0.00  0.00     0.210 HD
ENDBRANCH   3  21
BRANCH   4  23
HETATM   23  O   UNK     0      24.960  18.969  23.903  0.00  0.00    -0.388 OA
HETATM   24  H   UNK     0      24.346  19.116  23.163  0.00  0.00     0.210 HD
ENDBRANCH   4  23
BRANCH   2  25
HETATM   25  O   UNK     0      26.435  18.895  21.353  0.00  0.00    -0.390 OA
HETATM   26  H   UNK     0      25.976  19.748  21.265  0.00  0.00     0.210 HD
ENDBRANCH   2  25
TORSDOF 10
ENDMDL
MODEL 3
REMARK VINA RESULT:      -8.1     16.272     18.541
REMARK  10 active torsions:
REMARK  status: ('A' for Active; 'I' for Inactive)
REMARK    1  A    between atoms: O_2  and  C_12 
REMARK    2  A    between atoms: O_2  and  C_14 
REMARK    3  A    between atoms: O_3  and  C_8 
REMARK    4  A    between atoms: O_4  and  C_9 
REMARK    5  A    between atoms: O_5  and  C_10 
REMARK    6  A    between atoms: O_6  and  C_13 
REMARK    7  A    between atoms: O_7  and  C_21 
REMARK    8  A    between atoms: C_11  and  C_13 
REMARK    9  A    between atoms: C_14  and  C_15 
REMARK   10  A    between atoms: C_15  and  C_16 
ROOT
HETATM    1  O   UNK     0      23.269  35.117  12.107  0.00  0.00    -0.348 OA
HETATM    2  C   UNK     0      23.049  32.296  11.611  0.00  0.00     0.183 C 
HETATM    3  C   UNK     0      23.287  32.868  13.009  0.00  0.00     0.180 C 
HETATM    4  C   UNK     0      23.485  33.284  10.529  0.00  0.00     0.204 C 
HETATM    5  C   UNK     0      22.713  34.281  13.124  0.00  0.00     0.179 C 
HETATM    6  C   UNK     0      22.925  34.682  10.793  0.00  0.00     0.291 C 
ENDROOT
BRANCH   5   7
HETATM    7  C   UNK     0      23.041  34.917  14.470  0.00  0.00     0.198 C 
BRANCH   7   8
HETATM    8  O   UNK     0      21.934  34.740  15.335  0.00  0.00    -0.398 OA
HETATM    9  H   UNK     0      21.127  34.892  14.815  0.00  0.00     0.209 HD
ENDBRANCH   7   8
ENDBRANCH   5   7
BRANCH   6  10
HETATM   10  O   UNK     0      23.489  35.569   9.829  0.00  0.00    -0.358 OA
BRANCH  10  11
HETATM   11  C   UNK     0      24.065  36.709  10.451  0.00  0.00     0.175 C 
BRANCH  11  12
HETATM   12  C   UNK     0      23.873  37.933   9.563  0.00  0.00     0.065 C 
BRANCH  12  13
HETATM   13  C   UNK     0      25.054  38.872   9.617  0.00  0.00    -0.056 A 
HETATM   14  C   UNK     0      26.146  38.639   8.798  0.00  0.00     0.010 A 
HETATM   15  C   UNK     0      27.237  39.506   8.849  0.00  0.00     0.037 A 
HETATM   16  C   UNK     0      27.220  40.597   9.719  0.00  0.00     0.065 A 
HETATM   17  C   UNK     0      26.114  40.819  10.538  0.00  0.00     0.037 A 
HETATM   18  C   UNK     0      25.023  39.951  10.487  0.00  0.00     0.010 A 
BRANCH  16  19
HETATM   19  O   UNK     0      28.285  41.444   9.768  0.00  0.00    -0.361 OA
HETATM   20  H   UNK     0      28.170  42.052  10.519  0.00  0.00     0.217 HD
ENDBRANCH  16  19
ENDBRANCH  12  13
ENDBRANCH  11  12
ENDBRANCH  10  11
ENDBRANCH   6  10
BRANCH   3  21
HETATM   21  O   UNK     0      22.661  32.026  13.975  0.00  0.00    -0.390 OA
HETATM   22  H   UNK     0      22.185  31.324  13.499  0.00  0.00     0.210 HD
ENDBRANCH   3  21
BRANCH   4  23
HETATM   23  O   UNK     0      23.001  32.841   9.261  0.00  0.00    -0.388 OA
HETATM   24  H   UNK     0      22.095  32.506   9.384  0.00  0.00     0.210 HD
ENDBRANCH   4  23
BRANCH   2  25
HETATM   25  O   UNK     0      23.807  31.093  11.491  0.00  0.00    -0.390 OA
HETATM   26  H   UNK     0      24.173  30.889  12.369  0.00  0.00     0.210 HD
ENDBRANCH   2  25
TORSDOF 10
ENDMDL
MODEL 4
REMARK VINA RESULT:      -8.0     12.125     16.746
REMARK  10 active torsions:
REMARK  status: ('A' for Active; 'I' for Inactive)
REMARK    1  A    between atoms: O_2  and  C_12 
REMARK    2  A    between atoms: O_2  and  C_14 
REMARK    3  A    between atoms: O_3  and  C_8 
REMARK    4  A    between atoms: O_4  and  C_9 
REMARK    5  A    between atoms: O_5  and  C_10 
REMARK    6  A    between atoms: O_6  and  C_13 
REMARK    7  A    between atoms: O_7  and  C_21 
REMARK    8  A    between atoms: C_11  and  C_13 
REMARK    9  A    between atoms: C_14  and  C_15 
REMARK   10  A    between atoms: C_15  and  C_16 
ROOT
HETATM    1  O   UNK     0      24.726  24.164  24.779  0.00  0.00    -0.348 OA
HETATM    2  C   UNK     0      27.502  24.866  25.007  0.00  0.00     0.183 C 
HETATM    3  C   UNK     0      26.397  25.916  24.876  0.00  0.00     0.180 C 
HETATM    4  C   UNK     0      27.044  23.512  24.464  0.00  0.00     0.204 C 
HETATM    5  C   UNK     0      25.075  25.385  25.432  0.00  0.00     0.179 C 
HETATM    6  C   UNK     0      25.673  23.125  25.019  0.00  0.00     0.291 C 
ENDROOT
BRANCH   5   7
HETATM    7  C   UNK     0      23.932  26.369  25.206  0.00  0.00     0.198 C 
BRANCH   7   8
HETATM    8  O   UNK     0      24.151  27.510  26.014  0.00  0.00    -0.398 OA
HETATM    9  H   UNK     0      23.306  27.984  26.090  0.00  0.00     0.209 HD
ENDBRANCH   7   8
ENDBRANCH   5   7
BRANCH   6  10
HETATM   10  O   UNK     0      25.255  21.930  24.361  0.00  0.00    -0.358 OA
BRANCH  10  11
HETATM   11  C   UNK     0      25.066  22.145  22.970  0.00  0.00     0.175 C 
BRANCH  11  12
HETATM   12  C   UNK     0      24.825  20.813  22.270  0.00  0.00     0.065 C 
BRANCH  12  13
HETATM   13  C   UNK     0      25.964  19.843  22.475  0.00  0.00    -0.056 A 
HETATM   14  C   UNK     0      25.707  18.600  23.028  0.00  0.00     0.010 A 
HETATM   15  C   UNK     0      26.760  17.705  23.217  0.00  0.00     0.037 A 
HETATM   16  C   UNK     0      28.057  18.066  22.851  0.00  0.00     0.065 A 
HETATM   17  C   UNK     0      28.300  19.321  22.295  0.00  0.00     0.037 A 
HETATM   18  C   UNK     0      27.247  20.216  22.106  0.00  0.00     0.010 A 
BRANCH  16  19
HETATM   19  O   UNK     0      29.084  17.192  23.035  0.00  0.00    -0.361 OA
HETATM   20  H   UNK     0      28.823  16.322  22.688  0.00  0.00     0.217 HD
ENDBRANCH  16  19
ENDBRANCH  12  13
ENDBRANCH  11  12
ENDBRANCH  10  11
ENDBRANCH   6  10
BRANCH   3  21
HETATM   21  O   UNK     0      26.774  27.088  25.594  0.00  0.00    -0.390 OA
HETATM   22  H   UNK     0      26.015  27.368  26.133  0.00  0.00     0.210 HD
ENDBRANCH   3  21
BRANCH   4  23
HETATM   23  O   UNK     0      27.982  22.506  24.849  0.00  0.00    -0.388 OA
HETATM   24  H   UNK     0      28.749  22.566  24.254  0.00  0.00     0.210 HD
ENDBRANCH   4  23
BRANCH   2  25
HETATM   25  O   UNK     0      28.632  25.319  24.262  0.00  0.00    -0.390 OA
HETATM   26  H   UNK     0      28.815  26.234  24.537  0.00  0.00     0.210 HD
ENDBRANCH   2  25
TORSDOF 10
ENDMDL
MODEL 5
REMARK VINA RESULT:      -7.9     18.138     20.780
REMARK  10 active torsions:
REMARK  status: ('A' for Active; 'I' for Inactive)
REMARK    1  A    between atoms: O_2  and  C_12 
REMARK    2  A    between atoms: O_2  and  C_14 
REMARK    3  A    between atoms: O_3  and  C_8 
REMARK    4  A    between atoms: O_4  and  C_9 
REMARK    5  A    between atoms: O_5  and  C_10 
REMARK    6  A    between atoms: O_6  and  C_13 
REMARK    7  A    between atoms: O_7  and  C_21 
REMARK    8  A    between atoms: C_11  and  C_13 
REMARK    9  A    between atoms: C_14  and  C_15 
REMARK   10  A    between atoms: C_15  and  C_16 
ROOT
HETATM    1  O   UNK     0      22.212  28.585  10.626  0.00  0.00    -0.348 OA
HETATM    2  C   UNK     0      22.668  31.364  11.189  0.00  0.00     0.183 C 
HETATM    3  C   UNK     0      22.367  30.343  12.287  0.00  0.00     0.180 C 
HETATM    4  C   UNK     0      22.166  30.878   9.829  0.00  0.00     0.204 C 
HETATM    5  C   UNK     0      22.822  28.944  11.867  0.00  0.00     0.179 C 
HETATM    6  C   UNK     0      22.606  29.440   9.555  0.00  0.00     0.291 C 
ENDROOT
BRANCH   5   7
HETATM    7  C   UNK     0      22.426  27.889  12.895  0.00  0.00     0.198 C 
BRANCH   7   8
HETATM    8  O   UNK     0      23.352  27.931  13.964  0.00  0.00    -0.398 OA
HETATM    9  H   UNK     0      24.070  28.535  13.709  0.00  0.00     0.209 HD
ENDBRANCH   7   8
ENDBRANCH   5   7
BRANCH   6  10
HETATM   10  O   UNK     0      21.984  29.014   8.344  0.00  0.00    -0.358 OA
BRANCH  10  11
HETATM   11  C   UNK     0      21.684  27.627   8.378  0.00  0.00     0.175 C 
BRANCH  11  12
HETATM   12  C   UNK     0      22.188  26.959   7.104  0.00  0.00     0.065 C 
BRANCH  12  13
HETATM   13  C   UNK     0      21.070  26.645   6.140  0.00  0.00    -0.056 A 
HETATM   14  C   UNK     0      21.372  26.112   4.898  0.00  0.00     0.010 A 
HETATM   15  C   UNK     0      20.339  25.822   4.007  0.00  0.00     0.037 A 
HETATM   16  C   UNK     0      19.015  26.071   4.371  0.00  0.00     0.065 A 
HETATM   17  C   UNK     0      18.725  26.608   5.625  0.00  0.00     0.037 A 
HETATM   18  C   UNK     0      19.759  26.897   6.515  0.00  0.00     0.010 A 
BRANCH  16  19
HETATM   19  O   UNK     0      18.007  25.788   3.501  0.00  0.00    -0.361 OA
HETATM   20  H   UNK     0      17.397  25.157   3.921  0.00  0.00     0.217 HD
ENDBRANCH  16  19
ENDBRANCH  12  13
ENDBRANCH  11  12
ENDBRANCH  10  11
ENDBRANCH   6  10
BRANCH   3  21
HETATM   21  O   UNK     0      23.046  30.721  13.481  0.00  0.00    -0.390 OA
HETATM   22  H   UNK     0      22.858  30.050  14.159  0.00  0.00     0.210 HD
ENDBRANCH   3  21
BRANCH   4  23
HETATM   23  O   UNK     0      22.701  31.713   8.801  0.00  0.00    -0.388 OA
HETATM   24  H   UNK     0      23.671  31.646   8.833  0.00  0.00     0.210 HD
ENDBRANCH   4  23
BRANCH   2  25
HETATM   25  O   UNK     0      22.012  32.586  11.529  0.00  0.00    -0.390 OA
HETATM   26  H   UNK     0      22.057  32.681  12.496  0.00  0.00     0.210 HD
ENDBRANCH   2  25
TORSDOF 10
ENDMDL
MODEL 6
REMARK VINA RESULT:      -7.8      1.552      2.100
REMARK  10 active torsions:
REMARK  status: ('A' for Active; 'I' for Inactive)
REMARK    1  A    between atoms: O_2  and  C_12 
REMARK    2  A    between atoms: O_2  and  C_14 
REMARK    3  A    between atoms: O_3  and  C_8 
REMARK    4  A    between atoms: O_4  and  C_9 
REMARK    5  A    between atoms: O_5  and  C_10 
REMARK    6  A    between atoms: O_6  and  C_13 
REMARK    7  A    between atoms: O_7  and  C_21 
REMARK    8  A    between atoms: C_11  and  C_13 
REMARK    9  A    between atoms: C_14  and  C_15 
REMARK   10  A    between atoms: C_15  and  C_16 
ROOT
HETATM    1  O   UNK     0      17.186  38.629  26.662  0.00  0.00    -0.348 OA
HETATM    2  C   UNK     0      18.041  41.234  27.517  0.00  0.00     0.183 C 
HETATM    3  C   UNK     0      16.700  40.997  26.822  0.00  0.00     0.180 C 
HETATM    4  C   UNK     0      19.031  40.111  27.205  0.00  0.00     0.204 C 
HETATM    5  C   UNK     0      16.199  39.574  27.077  0.00  0.00     0.179 C 
HETATM    6  C   UNK     0      18.396  38.736  27.409  0.00  0.00     0.291 C 
ENDROOT
BRANCH   5   7
HETATM    7  C   UNK     0      14.922  39.276  26.299  0.00  0.00     0.198 C 
BRANCH   7   8
HETATM    8  O   UNK     0      15.018  39.884  25.024  0.00  0.00    -0.398 OA
HETATM    9  H   UNK     0      14.979  39.178  24.357  0.00  0.00     0.209 HD
ENDBRANCH   7   8
ENDBRANCH   5   7
BRANCH   6  10
HETATM   10  O   UNK     0      19.327  37.752  26.963  0.00  0.00    -0.358 OA
BRANCH  10  11
HETATM   11  C   UNK     0      18.664  36.647  26.366  0.00  0.00     0.175 C 
BRANCH  11  12
HETATM   12  C   UNK     0      19.689  35.610  25.923  0.00  0.00     0.065 C 
BRANCH  12  13
HETATM   13  C   UNK     0      19.378  34.232  26.455  0.00  0.00    -0.056 A 
HETATM   14  C   UNK     0      18.251  34.045  27.238  0.00  0.00     0.010 A 
HETATM   15  C   UNK     0      17.964  32.772  27.731  0.00  0.00     0.037 A 
HETATM   16  C   UNK     0      18.809  31.702  27.433  0.00  0.00     0.065 A 
HETATM   17  C   UNK     0      19.940  31.906  26.643  0.00  0.00     0.037 A 
HETATM   18  C   UNK     0      20.226  33.179  26.151  0.00  0.00     0.010 A 
BRANCH  16  19
HETATM   19  O   UNK     0      18.528  30.460  27.913  0.00  0.00    -0.361 OA
HETATM   20  H   UNK     0      17.622  30.456  28.267  0.00  0.00     0.217 HD
ENDBRANCH  16  19
ENDBRANCH  12  13
ENDBRANCH  11  12
ENDBRANCH  10  11
ENDBRANCH   6  10
BRANCH   3  21
HETATM   21  O   UNK     0      15.742  41.929  27.318  0.00  0.00    -0.390 OA
HETATM   22  H   UNK     0      15.650  41.786  28.275  0.00  0.00     0.210 HD
ENDBRANCH   3  21
BRANCH   4  23
HETATM   23  O   UNK     0      20.158  40.217  28.075  0.00  0.00    -0.388 OA
HETATM   24  H   UNK     0      20.889  40.618  27.574  0.00  0.00     0.210 HD
ENDBRANCH   4  23
BRANCH   2  25
HETATM   25  O   UNK     0      18.567  42.476  27.050  0.00  0.00    -0.390 OA
HETATM   26  H   UNK     0      18.595  43.085  27.808  0.00  0.00     0.210 HD
ENDBRANCH   2  25
TORSDOF 10
ENDMDL
MODEL 7
REMARK VINA RESULT:      -7.8      1.603      2.051
REMARK  10 active torsions:
REMARK  status: ('A' for Active; 'I' for Inactive)
REMARK    1  A    between atoms: O_2  and  C_12 
REMARK    2  A    between atoms: O_2  and  C_14 
REMARK    3  A    between atoms: O_3  and  C_8 
REMARK    4  A    between atoms: O_4  and  C_9 
REMARK    5  A    between atoms: O_5  and  C_10 
REMARK    6  A    between atoms: O_6  and  C_13 
REMARK    7  A    between atoms: O_7  and  C_21 
REMARK    8  A    between atoms: C_11  and  C_13 
REMARK    9  A    between atoms: C_14  and  C_15 
REMARK   10  A    between atoms: C_15  and  C_16 
ROOT
HETATM    1  O   UNK     0      16.695  37.914  27.246  0.00  0.00    -0.348 OA
HETATM    2  C   UNK     0      18.969  38.415  25.566  0.00  0.00     0.183 C 
HETATM    3  C   UNK     0      17.735  39.317  25.566  0.00  0.00     0.180 C 
HETATM    4  C   UNK     0      18.634  37.019  26.092  0.00  0.00     0.204 C 
HETATM    5  C   UNK     0      17.024  39.265  26.920  0.00  0.00     0.179 C 
HETATM    6  C   UNK     0      17.849  37.091  27.401  0.00  0.00     0.291 C 
ENDROOT
BRANCH   5   7
HETATM    7  C   UNK     0      15.725  40.064  26.907  0.00  0.00     0.198 C 
BRANCH   7   8
HETATM    8  O   UNK     0      15.401  40.378  25.566  0.00  0.00    -0.398 OA
HETATM    9  H   UNK     0      14.522  40.007  25.381  0.00  0.00     0.209 HD
ENDBRANCH   7   8
ENDBRANCH   5   7
BRANCH   6  10
HETATM   10  O   UNK     0      17.453  35.765  27.748  0.00  0.00    -0.358 OA
BRANCH  10  11
HETATM   11  C   UNK     0      16.243  35.401  27.100  0.00  0.00     0.175 C 
BRANCH  11  12
HETATM   12  C   UNK     0      16.387  34.015  26.482  0.00  0.00     0.065 C 
BRANCH  12  13
HETATM   13  C   UNK     0      17.630  33.302  26.955  0.00  0.00    -0.056 A 
HETATM   14  C   UNK     0      18.642  33.027  26.050  0.00  0.00     0.010 A 
HETATM   15  C   UNK     0      19.791  32.368  26.488  0.00  0.00     0.037 A 
HETATM   16  C   UNK     0      19.911  31.992  27.826  0.00  0.00     0.065 A 
HETATM   17  C   UNK     0      18.884  32.275  28.726  0.00  0.00     0.037 A 
HETATM   18  C   UNK     0      17.736  32.934  28.287  0.00  0.00     0.010 A 
BRANCH  16  19
HETATM   19  O   UNK     0      21.033  31.348  28.253  0.00  0.00    -0.361 OA
HETATM   20  H   UNK     0      21.021  31.306  29.225  0.00  0.00     0.217 HD
ENDBRANCH  16  19
ENDBRANCH  12  13
ENDBRANCH  11  12
ENDBRANCH  10  11
ENDBRANCH   6  10
BRANCH   3  21
HETATM   21  O   UNK     0      18.131  40.658  25.293  0.00  0.00    -0.390 OA
HETATM   22  H   UNK     0      18.273  40.742  24.335  0.00  0.00     0.210 HD
ENDBRANCH   3  21
BRANCH   4  23
HETATM   23  O   UNK     0      19.844  36.301  26.335  0.00  0.00    -0.388 OA
HETATM   24  H   UNK     0      19.644  35.350  26.295  0.00  0.00     0.210 HD
ENDBRANCH   4  23
BRANCH   2  25
HETATM   25  O   UNK     0      19.444  38.316  24.223  0.00  0.00    -0.390 OA
HETATM   26  H   UNK     0      20.383  38.068  24.263  0.00  0.00     0.210 HD
ENDBRANCH   2  25
TORSDOF 10
ENDMDL
MODEL 8
REMARK VINA RESULT:      -7.8      2.098      7.369
REMARK  10 active torsions:
REMARK  status: ('A' for Active; 'I' for Inactive)
REMARK    1  A    between atoms: O_2  and  C_12 
REMARK    2  A    between atoms: O_2  and  C_14 
REMARK    3  A    between atoms: O_3  and  C_8 
REMARK    4  A    between atoms: O_4  and  C_9 
REMARK    5  A    between atoms: O_5  and  C_10 
REMARK    6  A    between atoms: O_6  and  C_13 
REMARK    7  A    between atoms: O_7  and  C_21 
REMARK    8  A    between atoms: C_11  and  C_13 
REMARK    9  A    between atoms: C_14  and  C_15 
REMARK   10  A    between atoms: C_15  and  C_16 
ROOT
HETATM    1  O   UNK     0      19.581  34.519  26.406  0.00  0.00    -0.348 OA
HETATM    2  C   UNK     0      16.855  33.640  26.195  0.00  0.00     0.183 C 
HETATM    3  C   UNK     0      18.030  32.799  25.695  0.00  0.00     0.180 C 
HETATM    4  C   UNK     0      17.231  35.120  26.281  0.00  0.00     0.204 C 
HETATM    5  C   UNK     0      19.302  33.121  26.481  0.00  0.00     0.179 C 
HETATM    6  C   UNK     0      18.561  35.314  27.008  0.00  0.00     0.291 C 
ENDROOT
BRANCH   5   7
HETATM    7  C   UNK     0      20.513  32.381  25.923  0.00  0.00     0.198 C 
BRANCH   7   8
HETATM    8  O   UNK     0      20.377  31.003  26.221  0.00  0.00    -0.398 OA
HETATM    9  H   UNK     0      20.813  30.843  27.075  0.00  0.00     0.209 HD
ENDBRANCH   7   8
ENDBRANCH   5   7
BRANCH   6  10
HETATM   10  O   UNK     0      18.912  36.694  26.922  0.00  0.00    -0.358 OA
BRANCH  10  11
HETATM   11  C   UNK     0      19.766  36.942  25.815  0.00  0.00     0.175 C 
BRANCH  11  12
HETATM   12  C   UNK     0      19.087  37.898  24.843  0.00  0.00     0.065 C 
BRANCH  12  13
HETATM   13  C   UNK     0      18.226  38.918  25.548  0.00  0.00    -0.056 A 
HETATM   14  C   UNK     0      16.849  38.859  25.408  0.00  0.00     0.010 A 
HETATM   15  C   UNK     0      16.054  39.801  26.060  0.00  0.00     0.037 A 
HETATM   16  C   UNK     0      16.647  40.791  26.844  0.00  0.00     0.065 A 
HETATM   17  C   UNK     0      18.034  40.838  26.976  0.00  0.00     0.037 A 
HETATM   18  C   UNK     0      18.829  39.896  26.323  0.00  0.00     0.010 A 
BRANCH  16  19
HETATM   19  O   UNK     0      15.871  41.710  27.480  0.00  0.00    -0.361 OA
HETATM   20  H   UNK     0      14.967  41.360  27.557  0.00  0.00     0.217 HD
ENDBRANCH  16  19
ENDBRANCH  12  13
ENDBRANCH  11  12
ENDBRANCH  10  11
ENDBRANCH   6  10
BRANCH   3  21
HETATM   21  O   UNK     0      17.718  31.417  25.848  0.00  0.00    -0.390 OA
HETATM   22  H   UNK     0      17.586  31.241  26.795  0.00  0.00     0.210 HD
ENDBRANCH   3  21
BRANCH   4  23
HETATM   23  O   UNK     0      16.220  35.825  27.002  0.00  0.00    -0.388 OA
HETATM   24  H   UNK     0      15.470  35.974  26.400  0.00  0.00     0.210 HD
ENDBRANCH   4  23
BRANCH   2  25
HETATM   25  O   UNK     0      15.773  33.477  25.278  0.00  0.00    -0.390 OA
HETATM   26  H   UNK     0      15.743  34.271  24.717  0.00  0.00     0.210 HD
ENDBRANCH   2  25
TORSDOF 10
ENDMDL
MODEL 9
REMARK VINA RESULT:      -7.7      2.150      6.777
REMARK  10 active torsions:
REMARK  status: ('A' for Active; 'I' for Inactive)
REMARK    1  A    between atoms: O_2  and  C_12 
REMARK    2  A    between atoms: O_2  and  C_14 
REMARK    3  A    between atoms: O_3  and  C_8 
REMARK    4  A    between atoms: O_4  and  C_9 
REMARK    5  A    between atoms: O_5  and  C_10 
REMARK    6  A    between atoms: O_6  and  C_13 
REMARK    7  A    between atoms: O_7  and  C_21 
REMARK    8  A    between atoms: C_11  and  C_13 
REMARK    9  A    between atoms: C_14  and  C_15 
REMARK   10  A    between atoms: C_15  and  C_16 
ROOT
HETATM    1  O   UNK     0      18.365  34.190  28.197  0.00  0.00    -0.348 OA
HETATM    2  C   UNK     0      17.846  34.204  25.373  0.00  0.00     0.183 C 
HETATM    3  C   UNK     0      18.209  32.929  26.134  0.00  0.00     0.180 C 
HETATM    4  C   UNK     0      18.322  35.450  26.122  0.00  0.00     0.204 C 
HETATM    5  C   UNK     0      17.782  33.031  27.600  0.00  0.00     0.179 C 
HETATM    6  C   UNK     0      17.916  35.402  27.594  0.00  0.00     0.291 C 
ENDROOT
BRANCH   5   7
HETATM    7  C   UNK     0      18.237  31.820  28.407  0.00  0.00     0.198 C 
BRANCH   7   8
HETATM    8  O   UNK     0      18.988  32.274  29.518  0.00  0.00    -0.398 OA
HETATM    9  H   UNK     0      18.502  33.015  29.918  0.00  0.00     0.209 HD
ENDBRANCH   7   8
ENDBRANCH   5   7
BRANCH   6  10
HETATM   10  O   UNK     0      18.514  36.518  28.251  0.00  0.00    -0.358 OA
BRANCH  10  11
HETATM   11  C   UNK     0      17.841  36.826  29.462  0.00  0.00     0.175 C 
BRANCH  11  12
HETATM   12  C   UNK     0      17.414  38.290  29.457  0.00  0.00     0.065 C 
BRANCH  12  13
HETATM   13  C   UNK     0      16.643  38.658  28.212  0.00  0.00    -0.056 A 
HETATM   14  C   UNK     0      15.419  38.059  27.970  0.00  0.00     0.010 A 
HETATM   15  C   UNK     0      14.706  38.399  26.820  0.00  0.00     0.037 A 
HETATM   16  C   UNK     0      15.230  39.335  25.927  0.00  0.00     0.065 A 
HETATM   17  C   UNK     0      16.464  39.930  26.184  0.00  0.00     0.037 A 
HETATM   18  C   UNK     0      17.176  39.589  27.335  0.00  0.00     0.010 A 
BRANCH  16  19
HETATM   19  O   UNK     0      14.535  39.667  24.804  0.00  0.00    -0.361 OA
HETATM   20  H   UNK     0      14.797  39.070  24.083  0.00  0.00     0.217 HD
ENDBRANCH  16  19
ENDBRANCH  12  13
ENDBRANCH  11  12
ENDBRANCH  10  11
ENDBRANCH   6  10
BRANCH   3  21
HETATM   21  O   UNK     0      17.554  31.817  25.529  0.00  0.00    -0.390 OA
HETATM   22  H   UNK     0      17.011  32.150  24.794  0.00  0.00     0.210 HD
ENDBRANCH   3  21
BRANCH   4  23
HETATM   23  O   UNK     0      17.734  36.610  25.533  0.00  0.00    -0.388 OA
HETATM   24  H   UNK     0      18.325  37.365  25.699  0.00  0.00     0.210 HD
ENDBRANCH   4  23
BRANCH   2  25
HETATM   25  O   UNK     0      18.477  34.149  24.093  0.00  0.00    -0.390 OA
HETATM   26  H   UNK     0      18.226  33.304  23.681  0.00  0.00     0.210 HD
ENDBRANCH   2  25
TORSDOF 10
ENDMDL
