REMARK  16 active torsions:
REMARK  status: ('A' for Active; 'I' for Inactive)
REMARK    1  A    between atoms: O_2  and  C_22 
REMARK    2  A    between atoms: O_2  and  C_26 
REMARK    3  A    between atoms: O_4  and  C_18 
REMARK    4  A    between atoms: O_5  and  C_19 
REMARK    5  A    between atoms: O_6  and  C_25 
REMARK    6  A    between atoms: O_6  and  C_29 
REMARK    7  A    between atoms: O_7  and  C_20 
REMARK    8  A    between atoms: O_8  and  C_21 
REMARK    9  A    between atoms: O_9  and  C_23 
REMARK   10  A    between atoms: O_10  and  C_24 
REMARK   11  A    between atoms: O_13  and  C_35 
REMARK   12  A    between atoms: O_14  and  C_40 
REMARK   13  A    between atoms: O_15  and  C_41 
REMARK   14  A    between atoms: O_16  and  C_43 
REMARK   15  A    between atoms: C_17  and  C_26 
REMARK   16  A    between atoms: C_30  and  C_33 
ROOT
HETATM    1  O   UNK     0       0.915  -0.122   1.754  0.00  0.00    -0.348 OA
HETATM    2  C   UNK     0       1.216   0.903   2.703  0.00  0.00     0.180 C 
HETATM    3  C   UNK     0       2.720   1.187   2.705  0.00  0.00     0.180 C 
HETATM    4  C   UNK     0       3.513  -0.091   2.979  0.00  0.00     0.183 C 
HETATM    5  C   UNK     0       3.051  -1.234   2.075  0.00  0.00     0.205 C 
HETATM    6  C   UNK     0       1.528  -1.367   2.082  0.00  0.00     0.298 C 
ENDROOT
BRANCH   2   7
HETATM    7  C   UNK     0       0.408   2.138   2.316  0.00  0.00     0.205 C 
BRANCH   7   8
HETATM    8  O   UNK     0       0.800   2.559   1.018  0.00  0.00    -0.356 OA
BRANCH   8   9
HETATM    9  C   UNK     0       0.076   3.713   0.604  0.00  0.00     0.291 C 
HETATM   10  O   UNK     0      -1.340   3.510   0.638  0.00  0.00    -0.351 OA
HETATM   11  C   UNK     0      -1.812   2.515  -0.276  0.00  0.00     0.152 C 
HETATM   12  C   UNK     0      -1.453   2.881  -1.723  0.00  0.00     0.178 C 
HETATM   13  C   UNK     0      -3.321   2.402  -0.073  0.00  0.00     0.042 C 
HETATM   14  C   UNK     0       0.051   3.128  -1.845  0.00  0.00     0.183 C 
HETATM   15  C   UNK     0       0.528   4.132  -0.794  0.00  0.00     0.204 C 
BRANCH  12  16
HETATM   16  O   UNK     0      -1.800   1.814  -2.603  0.00  0.00    -0.390 OA
HETATM   17  H   UNK     0      -2.770   1.771  -2.652  0.00  0.00     0.210 HD
ENDBRANCH  12  16
BRANCH  14  18
HETATM   18  O   UNK     0       0.342   3.618  -3.152  0.00  0.00    -0.390 OA
HETATM   19  H   UNK     0      -0.095   4.482  -3.249  0.00  0.00     0.210 HD
ENDBRANCH  14  18
BRANCH  15  20
HETATM   20  O   UNK     0      -0.028   5.420  -1.063  0.00  0.00    -0.388 OA
HETATM   21  H   UNK     0      -0.981   5.389  -0.871  0.00  0.00     0.210 HD
ENDBRANCH  15  20
ENDBRANCH   8   9
ENDBRANCH   7   8
ENDBRANCH   2   7
BRANCH   6  22
HETATM   22  O   UNK     0       1.168  -2.351   1.113  0.00  0.00    -0.311 OA
BRANCH  22  23
HETATM   23  C   UNK     0      -0.070  -2.095   0.566  0.00  0.00     0.157 A 
HETATM   24  C   UNK     0      -0.263  -1.882  -0.748  0.00  0.00     0.124 A 
HETATM   25  O   UNK     0      -1.489  -1.590  -1.326  0.00  0.00    -0.306 OA
HETATM   26  C   UNK     0      -2.595  -1.530  -0.518  0.00  0.00     0.096 A 
HETATM   27  C   UNK     0      -2.537  -1.739   0.858  0.00  0.00     0.084 A 
HETATM   28  C   UNK     0      -3.816  -1.244  -1.130  0.00  0.00     0.075 A 
HETATM   29  C   UNK     0      -1.237  -2.036   1.479  0.00  0.00     0.223 A 
HETATM   30  C   UNK     0      -3.698  -1.664   1.633  0.00  0.00     0.085 A 
HETATM   31  O   UNK     0      -1.124  -2.223   2.683  0.00  0.00    -0.284 OA
HETATM   32  C   UNK     0      -4.918  -1.378   1.018  0.00  0.00     0.074 A 
HETATM   33  C   UNK     0      -4.977  -1.169  -0.360  0.00  0.00     0.071 A 
BRANCH  24  34
HETATM   34  C   UNK     0       0.839  -1.915  -1.726  0.00  0.00     0.004 A 
HETATM   35  C   UNK     0       1.543  -0.748  -2.024  0.00  0.00     0.053 A 
HETATM   36  C   UNK     0       2.587  -0.779  -2.948  0.00  0.00     0.099 A 
HETATM   37  C   UNK     0       2.927  -1.977  -3.576  0.00  0.00     0.098 A 
HETATM   38  C   UNK     0       2.223  -3.144  -3.279  0.00  0.00     0.040 A 
HETATM   39  C   UNK     0       1.180  -3.113  -2.354  0.00  0.00     0.017 A 
BRANCH  36  40
HETATM   40  O   UNK     0       3.266   0.368  -3.232  0.00  0.00    -0.358 OA
HETATM   41  H   UNK     0       4.142   0.149  -3.589  0.00  0.00     0.217 HD
ENDBRANCH  36  40
BRANCH  37  42
HETATM   42  O   UNK     0       3.945  -2.020  -4.480  0.00  0.00    -0.358 OA
HETATM   43  H   UNK     0       4.100  -1.133  -4.841  0.00  0.00     0.217 HD
ENDBRANCH  37  42
ENDBRANCH  24  34
BRANCH  30  44
HETATM   44  O   UNK     0      -3.696  -1.859   2.980  0.00  0.00    -0.360 OA
HETATM   45  H   UNK     0      -4.601  -1.762   3.324  0.00  0.00     0.217 HD
ENDBRANCH  30  44
BRANCH  33  46
HETATM   46  O   UNK     0      -6.169  -0.890  -0.955  0.00  0.00    -0.361 OA
HETATM   47  H   UNK     0      -6.865  -0.875  -0.276  0.00  0.00     0.217 HD
ENDBRANCH  33  46
ENDBRANCH  22  23
ENDBRANCH   6  22
BRANCH   3  48
HETATM   48  O   UNK     0       3.016   2.150   3.713  0.00  0.00    -0.390 OA
HETATM   49  H   UNK     0       2.734   1.786   4.569  0.00  0.00     0.210 HD
ENDBRANCH   3  48
BRANCH   5  50
HETATM   50  O   UNK     0       3.610  -2.462   2.540  0.00  0.00    -0.388 OA
HETATM   51  H   UNK     0       3.297  -2.611   3.448  0.00  0.00     0.210 HD
ENDBRANCH   5  50
BRANCH   4  52
HETATM   52  O   UNK     0       4.893   0.184   2.730  0.00  0.00    -0.390 OA
HETATM   53  H   UNK     0       5.152   0.921   3.309  0.00  0.00     0.210 HD
ENDBRANCH   4  52
TORSDOF 16
