MODEL 1
REMARK VINA RESULT:      -8.4      0.000      0.000
REMARK  Name = 5280343
REMARK                            x       y       z     vdW  Elec       q    Type
REMARK                         _______ _______ _______ _____ _____    ______ ____
ROOT
ATOM      1  O   LIG    1      184.420 177.380 179.371  0.00  0.00    -0.451 OA
ATOM      2  C   LIG    1      185.376 176.778 180.175  0.00  0.00    +0.181 A 
ATOM      3  C   LIG    1      185.214 176.512 181.484  0.00  0.00    +0.208 A 
ATOM      4  C   LIG    1      183.926 176.861 182.131  0.00  0.00    +0.238 A 
ATOM      5  C   LIG    1      182.912 177.487 181.269  0.00  0.00    +0.109 A 
ATOM      6  C   LIG    1      181.664 177.850 181.782  0.00  0.00    +0.135 A 
ATOM      7  C   LIG    1      180.721 178.443 180.943  0.00  0.00    +0.091 A 
ATOM      8  C   LIG    1      181.021 178.672 179.600  0.00  0.00    +0.124 A 
ATOM      9  C   LIG    1      182.268 178.308 179.091  0.00  0.00    +0.092 A 
ATOM     14  O   LIG    1      183.720 176.642 183.318  0.00  0.00    -0.283 OA
ATOM     27  C   LIG    1      183.213 177.714 179.928  0.00  0.00    +0.147 A 
ENDROOT
BRANCH   2  17
ATOM     17  C   LIG    1      186.624 176.471 179.454  0.00  0.00    +0.025 A 
ATOM     18  C   LIG    1      186.789 175.227 178.845  0.00  0.00    +0.015 A 
ATOM     19  C   LIG    1      187.970 174.935 178.163  0.00  0.00    +0.050 A 
ATOM     20  C   LIG    1      188.986 175.888 178.088  0.00  0.00    +0.158 A 
ATOM     21  C   LIG    1      188.821 177.133 178.697  0.00  0.00    +0.159 A 
ATOM     26  C   LIG    1      187.639 177.424 179.379  0.00  0.00    +0.060 A 
BRANCH  21  22
ATOM     22  O   LIG    1      189.806 178.071 178.630  0.00  0.00    -0.503 OA
ATOM     23  H   LIG    1      189.766 178.528 177.774  0.00  0.00    +0.292 HD
ENDBRANCH  21  22
BRANCH  20  24
ATOM     24  O   LIG    1      190.136 175.591 177.421  0.00  0.00    -0.503 OA
ATOM     25  H   LIG    1      190.034 174.749 176.951  0.00  0.00    +0.292 HD
ENDBRANCH  20  24
ENDBRANCH   2  17
BRANCH   8  10
ATOM     10  O   LIG    1      180.098 179.252 178.784  0.00  0.00    -0.507 OA
ATOM     11  H   LIG    1      180.099 178.789 177.928  0.00  0.00    +0.292 HD
ENDBRANCH   8  10
BRANCH   6  12
ATOM     12  O   LIG    1      181.319 177.650 183.085  0.00  0.00    -0.506 OA
ATOM     13  H   LIG    1      181.721 176.836 183.423  0.00  0.00    +0.292 HD
ENDBRANCH   6  12
BRANCH   3  15
ATOM     15  O   LIG    1      186.197 175.943 182.264  0.00  0.00    -0.501 OA
ATOM     16  H   LIG    1      187.072 176.169 181.909  0.00  0.00    +0.292 HD
ENDBRANCH   3  15
TORSDOF 6
ENDMDL
MODEL 2
REMARK VINA RESULT:      -8.4     32.081     33.955
REMARK  Name = 5280343
REMARK                            x       y       z     vdW  Elec       q    Type
REMARK                         _______ _______ _______ _____ _____    ______ ____
ROOT
ATOM      1  O   LIG    1      163.341 152.662 187.301  0.00  0.00    -0.451 OA
ATOM      2  C   LIG    1      163.741 152.285 188.574  0.00  0.00    +0.181 A 
ATOM      3  C   LIG    1      162.907 151.863 189.542  0.00  0.00    +0.208 A 
ATOM      4  C   LIG    1      161.457 151.769 189.246  0.00  0.00    +0.238 A 
ATOM      5  C   LIG    1      161.041 152.158 187.890  0.00  0.00    +0.109 A 
ATOM      6  C   LIG    1      159.697 152.102 187.511  0.00  0.00    +0.135 A 
ATOM      7  C   LIG    1      159.330 152.478 186.219  0.00  0.00    +0.091 A 
ATOM      8  C   LIG    1      160.299 152.907 185.311  0.00  0.00    +0.124 A 
ATOM      9  C   LIG    1      161.639 152.962 185.693  0.00  0.00    +0.092 A 
ATOM     14  O   LIG    1      160.650 151.391 190.086  0.00  0.00    -0.283 OA
ATOM     27  C   LIG    1      162.010 152.586 186.984  0.00  0.00    +0.147 A 
ENDROOT
BRANCH   2  17
ATOM     17  C   LIG    1      165.194 152.414 188.782  0.00  0.00    +0.025 A 
ATOM     18  C   LIG    1      165.759 153.673 188.988  0.00  0.00    +0.015 A 
ATOM     19  C   LIG    1      167.135 153.796 189.185  0.00  0.00    +0.050 A 
ATOM     20  C   LIG    1      167.945 152.661 189.175  0.00  0.00    +0.158 A 
ATOM     21  C   LIG    1      167.380 151.402 188.968  0.00  0.00    +0.159 A 
ATOM     26  C   LIG    1      166.004 151.279 188.772  0.00  0.00    +0.060 A 
BRANCH  21  22
ATOM     22  O   LIG    1      168.161 150.287 188.958  0.00  0.00    -0.503 OA
ATOM     23  H   LIG    1      168.984 150.466 188.474  0.00  0.00    +0.292 HD
ENDBRANCH  21  22
BRANCH  20  24
ATOM     24  O   LIG    1      169.287 152.794 189.366  0.00  0.00    -0.503 OA
ATOM     25  H   LIG    1      169.765 152.399 188.619  0.00  0.00    +0.292 HD
ENDBRANCH  20  24
ENDBRANCH   2  17
BRANCH   8  10
ATOM     10  O   LIG    1      159.936 153.273 184.051  0.00  0.00    -0.507 OA
ATOM     11  H   LIG    1      158.987 153.094 183.931  0.00  0.00    +0.292 HD
ENDBRANCH   8  10
BRANCH   6  12
ATOM     12  O   LIG    1      158.711 151.692 188.358  0.00  0.00    -0.506 OA
ATOM     13  H   LIG    1      158.677 150.724 188.396  0.00  0.00    +0.292 HD
ENDBRANCH   6  12
BRANCH   3  15
ATOM     15  O   LIG    1      163.333 151.527 190.809  0.00  0.00    -0.501 OA
ATOM     16  H   LIG    1      164.159 151.019 190.755  0.00  0.00    +0.292 HD
ENDBRANCH   3  15
TORSDOF 6
ENDMDL
MODEL 3
REMARK VINA RESULT:      -8.4     37.483     39.758
REMARK  Name = 5280343
REMARK                            x       y       z     vdW  Elec       q    Type
REMARK                         _______ _______ _______ _____ _____    ______ ____
ROOT
ATOM      1  O   LIG    1      196.297 164.383 214.930  0.00  0.00    -0.451 OA
ATOM      2  C   LIG    1      195.836 163.124 215.285  0.00  0.00    +0.181 A 
ATOM      3  C   LIG    1      196.583 162.180 215.886  0.00  0.00    +0.208 A 
ATOM      4  C   LIG    1      197.995 162.488 216.218  0.00  0.00    +0.238 A 
ATOM      5  C   LIG    1      198.474 163.829 215.851  0.00  0.00    +0.109 A 
ATOM      6  C   LIG    1      199.787 164.219 216.124  0.00  0.00    +0.135 A 
ATOM      7  C   LIG    1      200.216 165.496 215.764  0.00  0.00    +0.091 A 
ATOM      8  C   LIG    1      199.337 166.380 215.135  0.00  0.00    +0.124 A 
ATOM      9  C   LIG    1      198.026 165.988 214.864  0.00  0.00    +0.092 A 
ATOM     14  O   LIG    1      198.723 161.670 216.766  0.00  0.00    -0.283 OA
ATOM     27  C   LIG    1      197.595 164.711 215.224  0.00  0.00    +0.147 A 
ENDROOT
BRANCH   2  17
ATOM     17  C   LIG    1      194.428 162.902 214.914  0.00  0.00    +0.025 A 
ATOM     18  C   LIG    1      193.410 163.232 215.810  0.00  0.00    +0.015 A 
ATOM     19  C   LIG    1      192.077 163.021 215.459  0.00  0.00    +0.050 A 
ATOM     20  C   LIG    1      191.760 162.481 214.213  0.00  0.00    +0.158 A 
ATOM     21  C   LIG    1      192.778 162.150 213.317  0.00  0.00    +0.159 A 
ATOM     26  C   LIG    1      194.111 162.362 213.667  0.00  0.00    +0.060 A 
BRANCH  21  22
ATOM     22  O   LIG    1      192.480 161.624 212.097  0.00  0.00    -0.503 OA
ATOM     23  H   LIG    1      192.962 162.105 211.405  0.00  0.00    +0.292 HD
ENDBRANCH  21  22
BRANCH  20  24
ATOM     24  O   LIG    1      190.454 162.278 213.882  0.00  0.00    -0.503 OA
ATOM     25  H   LIG    1      190.395 161.626 213.166  0.00  0.00    +0.292 HD
ENDBRANCH  20  24
ENDBRANCH   2  17
BRANCH   8  10
ATOM     10  O   LIG    1      199.760 167.626 214.785  0.00  0.00    -0.507 OA
ATOM     11  H   LIG    1      200.726 167.611 214.671  0.00  0.00    +0.292 HD
ENDBRANCH   8  10
BRANCH   6  12
ATOM     12  O   LIG    1      200.686 163.396 216.735  0.00  0.00    -0.506 OA
ATOM     13  H   LIG    1      200.303 162.516 216.871  0.00  0.00    +0.292 HD
ENDBRANCH   6  12
BRANCH   3  15
ATOM     15  O   LIG    1      196.103 160.926 216.196  0.00  0.00    -0.501 OA
ATOM     16  H   LIG    1      195.679 160.941 217.069  0.00  0.00    +0.292 HD
ENDBRANCH   3  15
TORSDOF 6
ENDMDL
MODEL 4
REMARK VINA RESULT:      -8.2      1.978      2.444
REMARK  Name = 5280343
REMARK                            x       y       z     vdW  Elec       q    Type
REMARK                         _______ _______ _______ _____ _____    ______ ____
ROOT
ATOM      1  O   LIG    1      185.029 177.161 180.796  0.00  0.00    -0.451 OA
ATOM      2  C   LIG    1      186.301 177.668 181.014  0.00  0.00    +0.181 A 
ATOM      3  C   LIG    1      186.619 178.533 181.994  0.00  0.00    +0.208 A 
ATOM      4  C   LIG    1      185.557 178.977 182.929  0.00  0.00    +0.238 A 
ATOM      5  C   LIG    1      184.213 178.424 182.700  0.00  0.00    +0.109 A 
ATOM      6  C   LIG    1      183.145 178.777 183.528  0.00  0.00    +0.135 A 
ATOM      7  C   LIG    1      181.880 178.240 183.288  0.00  0.00    +0.091 A 
ATOM      8  C   LIG    1      181.684 177.355 182.226  0.00  0.00    +0.124 A 
ATOM      9  C   LIG    1      182.753 177.005 181.401  0.00  0.00    +0.092 A 
ATOM     14  O   LIG    1      185.786 179.761 183.841  0.00  0.00    -0.283 OA
ATOM     27  C   LIG    1      184.019 177.540 181.640  0.00  0.00    +0.147 A 
ENDROOT
BRANCH   2  17
ATOM     17  C   LIG    1      187.290 177.180 180.037  0.00  0.00    +0.025 A 
ATOM     18  C   LIG    1      187.009 177.238 178.672  0.00  0.00    +0.015 A 
ATOM     19  C   LIG    1      187.945 176.776 177.747  0.00  0.00    +0.050 A 
ATOM     20  C   LIG    1      189.162 176.256 178.187  0.00  0.00    +0.158 A 
ATOM     21  C   LIG    1      189.443 176.197 179.552  0.00  0.00    +0.159 A 
ATOM     26  C   LIG    1      188.507 176.660 180.477  0.00  0.00    +0.060 A 
BRANCH  21  22
ATOM     22  O   LIG    1      190.629 175.692 179.993  0.00  0.00    -0.503 OA
ATOM     23  H   LIG    1      191.362 176.108 179.511  0.00  0.00    +0.292 HD
ENDBRANCH  21  22
BRANCH  20  24
ATOM     24  O   LIG    1      190.068 175.805 177.274  0.00  0.00    -0.503 OA
ATOM     25  H   LIG    1      190.298 176.521 176.660  0.00  0.00    +0.292 HD
ENDBRANCH  20  24
ENDBRANCH   2  17
BRANCH   8  10
ATOM     10  O   LIG    1      180.448 176.833 181.994  0.00  0.00    -0.507 OA
ATOM     11  H   LIG    1      179.776 177.477 182.277  0.00  0.00    +0.292 HD
ENDBRANCH   8  10
BRANCH   6  12
ATOM     12  O   LIG    1      183.281 179.636 184.577  0.00  0.00    -0.506 OA
ATOM     13  H   LIG    1      183.319 180.552 184.264  0.00  0.00    +0.292 HD
ENDBRANCH   6  12
BRANCH   3  15
ATOM     15  O   LIG    1      187.887 179.045 182.164  0.00  0.00    -0.501 OA
ATOM     16  H   LIG    1      188.216 179.397 181.322  0.00  0.00    +0.292 HD
ENDBRANCH   3  15
TORSDOF 6
ENDMDL
MODEL 5
REMARK VINA RESULT:      -8.0     31.530     33.341
REMARK  Name = 5280343
REMARK                            x       y       z     vdW  Elec       q    Type
REMARK                         _______ _______ _______ _____ _____    ______ ____
ROOT
ATOM      1  O   LIG    1      163.916 153.319 188.133  0.00  0.00    -0.451 OA
ATOM      2  C   LIG    1      164.437 152.185 188.736  0.00  0.00    +0.181 A 
ATOM      3  C   LIG    1      163.698 151.236 189.340  0.00  0.00    +0.208 A 
ATOM      4  C   LIG    1      162.223 151.380 189.359  0.00  0.00    +0.238 A 
ATOM      5  C   LIG    1      161.676 152.579 188.705  0.00  0.00    +0.109 A 
ATOM      6  C   LIG    1      160.299 152.807 188.666  0.00  0.00    +0.135 A 
ATOM      7  C   LIG    1      159.807 153.952 188.041  0.00  0.00    +0.091 A 
ATOM      8  C   LIG    1      160.687 154.866 187.458  0.00  0.00    +0.124 A 
ATOM      9  C   LIG    1      162.062 154.636 187.499  0.00  0.00    +0.092 A 
ATOM     14  O   LIG    1      161.499 150.549 189.891  0.00  0.00    -0.283 OA
ATOM     27  C   LIG    1      162.556 153.490 188.123  0.00  0.00    +0.147 A 
ENDROOT
BRANCH   2  17
ATOM     17  C   LIG    1      165.907 152.125 188.676  0.00  0.00    +0.025 A 
ATOM     18  C   LIG    1      166.537 151.008 188.127  0.00  0.00    +0.015 A 
ATOM     19  C   LIG    1      167.930 150.950 188.070  0.00  0.00    +0.050 A 
ATOM     20  C   LIG    1      168.693 152.009 188.561  0.00  0.00    +0.158 A 
ATOM     21  C   LIG    1      168.063 153.127 189.110  0.00  0.00    +0.159 A 
ATOM     26  C   LIG    1      166.670 153.185 189.167  0.00  0.00    +0.060 A 
BRANCH  21  22
ATOM     22  O   LIG    1      168.798 154.167 189.592  0.00  0.00    -0.503 OA
ATOM     23  H   LIG    1      168.411 154.486 190.424  0.00  0.00    +0.292 HD
ENDBRANCH  21  22
BRANCH  20  24
ATOM     24  O   LIG    1      170.052 151.941 188.502  0.00  0.00    -0.503 OA
ATOM     25  H   LIG    1      170.319 151.130 188.042  0.00  0.00    +0.292 HD
ENDBRANCH  20  24
ENDBRANCH   2  17
BRANCH   8  10
ATOM     10  O   LIG    1      160.203 155.983 186.849  0.00  0.00    -0.507 OA
ATOM     11  H   LIG    1      160.609 156.767 187.259  0.00  0.00    +0.292 HD
ENDBRANCH   8  10
BRANCH   6  12
ATOM     12  O   LIG    1      159.396 151.948 189.219  0.00  0.00    -0.506 OA
ATOM     13  H   LIG    1      158.766 151.639 188.551  0.00  0.00    +0.292 HD
ENDBRANCH   6  12
BRANCH   3  15
ATOM     15  O   LIG    1      164.250 150.135 189.960  0.00  0.00    -0.501 OA
ATOM     16  H   LIG    1      164.734 149.599 189.311  0.00  0.00    +0.292 HD
ENDBRANCH   3  15
TORSDOF 6
ENDMDL
MODEL 6
REMARK VINA RESULT:      -7.9     19.680     22.705
REMARK  Name = 5280343
REMARK                            x       y       z     vdW  Elec       q    Type
REMARK                         _______ _______ _______ _____ _____    ______ ____
ROOT
ATOM      1  O   LIG    1      183.339 171.960 200.743  0.00  0.00    -0.451 OA
ATOM      2  C   LIG    1      182.908 170.838 201.434  0.00  0.00    +0.181 A 
ATOM      3  C   LIG    1      182.917 169.587 200.937  0.00  0.00    +0.208 A 
ATOM      4  C   LIG    1      183.436 169.365 199.566  0.00  0.00    +0.238 A 
ATOM      5  C   LIG    1      183.904 170.558 198.844  0.00  0.00    +0.109 A 
ATOM      6  C   LIG    1      184.414 170.455 197.548  0.00  0.00    +0.135 A 
ATOM      7  C   LIG    1      184.850 171.603 196.886  0.00  0.00    +0.091 A 
ATOM      8  C   LIG    1      184.777 172.847 197.515  0.00  0.00    +0.124 A 
ATOM      9  C   LIG    1      184.267 172.946 198.810  0.00  0.00    +0.092 A 
ATOM     14  O   LIG    1      183.470 168.250 199.061  0.00  0.00    -0.283 OA
ATOM     27  C   LIG    1      183.831 171.799 199.475  0.00  0.00    +0.147 A 
ENDROOT
BRANCH   2  17
ATOM     17  C   LIG    1      182.405 171.150 202.783  0.00  0.00    +0.025 A 
ATOM     18  C   LIG    1      183.188 170.864 203.902  0.00  0.00    +0.015 A 
ATOM     19  C   LIG    1      182.712 171.159 205.180  0.00  0.00    +0.050 A 
ATOM     20  C   LIG    1      181.454 171.740 205.338  0.00  0.00    +0.158 A 
ATOM     21  C   LIG    1      180.670 172.025 204.219  0.00  0.00    +0.159 A 
ATOM     26  C   LIG    1      181.147 171.730 202.942  0.00  0.00    +0.060 A 
BRANCH  21  22
ATOM     22  O   LIG    1      179.441 172.593 204.363  0.00  0.00    -0.503 OA
ATOM     23  H   LIG    1      179.463 173.247 205.079  0.00  0.00    +0.292 HD
ENDBRANCH  21  22
BRANCH  20  24
ATOM     24  O   LIG    1      180.999 172.021 206.591  0.00  0.00    -0.503 OA
ATOM     25  H   LIG    1      180.078 171.730 206.679  0.00  0.00    +0.292 HD
ENDBRANCH  20  24
ENDBRANCH   2  17
BRANCH   8  10
ATOM     10  O   LIG    1      185.203 173.964 196.866  0.00  0.00    -0.507 OA
ATOM     11  H   LIG    1      184.821 173.973 195.971  0.00  0.00    +0.292 HD
ENDBRANCH   8  10
BRANCH   6  12
ATOM     12  O   LIG    1      184.507 169.267 196.887  0.00  0.00    -0.506 OA
ATOM     13  H   LIG    1      184.823 168.570 197.482  0.00  0.00    +0.292 HD
ENDBRANCH   6  12
BRANCH   3  15
ATOM     15  O   LIG    1      182.450 168.496 201.638  0.00  0.00    -0.501 OA
ATOM     16  H   LIG    1      182.630 167.682 201.139  0.00  0.00    +0.292 HD
ENDBRANCH   3  15
TORSDOF 6
ENDMDL
MODEL 7
REMARK VINA RESULT:      -7.9     39.944     42.499
REMARK  Name = 5280343
REMARK                            x       y       z     vdW  Elec       q    Type
REMARK                         _______ _______ _______ _____ _____    ______ ____
ROOT
ATOM      1  O   LIG    1      169.726 178.987 141.980  0.00  0.00    -0.451 OA
ATOM      2  C   LIG    1      169.164 178.547 140.792  0.00  0.00    +0.181 A 
ATOM      3  C   LIG    1      169.842 177.919 139.814  0.00  0.00    +0.208 A 
ATOM      4  C   LIG    1      171.289 177.653 140.003  0.00  0.00    +0.238 A 
ATOM      5  C   LIG    1      171.875 178.111 141.272  0.00  0.00    +0.109 A 
ATOM      6  C   LIG    1      173.229 177.905 141.549  0.00  0.00    +0.135 A 
ATOM      7  C   LIG    1      173.760 178.350 142.759  0.00  0.00    +0.091 A 
ATOM      8  C   LIG    1      172.944 178.998 143.688  0.00  0.00    +0.124 A 
ATOM      9  C   LIG    1      171.593 179.202 143.408  0.00  0.00    +0.092 A 
ATOM     14  O   LIG    1      171.958 177.085 139.150  0.00  0.00    -0.283 OA
ATOM     27  C   LIG    1      171.059 178.756 142.199  0.00  0.00    +0.147 A 
ENDROOT
BRANCH   2  17
ATOM     17  C   LIG    1      167.727 178.857 140.685  0.00  0.00    +0.025 A 
ATOM     18  C   LIG    1      166.788 178.031 141.304  0.00  0.00    +0.015 A 
ATOM     19  C   LIG    1      165.428 178.324 141.203  0.00  0.00    +0.050 A 
ATOM     20  C   LIG    1      165.007 179.442 140.484  0.00  0.00    +0.158 A 
ATOM     21  C   LIG    1      165.946 180.268 139.864  0.00  0.00    +0.159 A 
ATOM     26  C   LIG    1      167.306 179.975 139.966  0.00  0.00    +0.060 A 
BRANCH  21  22
ATOM     22  O   LIG    1      165.546 181.363 139.160  0.00  0.00    -0.503 OA
ATOM     23  H   LIG    1      165.082 181.084 138.354  0.00  0.00    +0.292 HD
ENDBRANCH  21  22
BRANCH  20  24
ATOM     24  O   LIG    1      163.676 179.717 140.390  0.00  0.00    -0.503 OA
ATOM     25  H   LIG    1      163.323 179.351 139.564  0.00  0.00    +0.292 HD
ENDBRANCH  20  24
ENDBRANCH   2  17
BRANCH   8  10
ATOM     10  O   LIG    1      173.467 179.431 144.868  0.00  0.00    -0.507 OA
ATOM     11  H   LIG    1      173.600 180.393 144.818  0.00  0.00    +0.292 HD
ENDBRANCH   8  10
BRANCH   6  12
ATOM     12  O   LIG    1      174.070 177.279 140.677  0.00  0.00    -0.506 OA
ATOM     13  H   LIG    1      174.401 177.905 140.015  0.00  0.00    +0.292 HD
ENDBRANCH   6  12
BRANCH   3  15
ATOM     15  O   LIG    1      169.261 177.523 138.629  0.00  0.00    -0.501 OA
ATOM     16  H   LIG    1      169.849 177.733 137.886  0.00  0.00    +0.292 HD
ENDBRANCH   3  15
TORSDOF 6
ENDMDL
MODEL 8
REMARK VINA RESULT:      -7.8     39.869     43.638
REMARK  Name = 5280343
REMARK                            x       y       z     vdW  Elec       q    Type
REMARK                         _______ _______ _______ _____ _____    ______ ____
ROOT
ATOM      1  O   LIG    1      153.754 177.332 150.733  0.00  0.00    -0.451 OA
ATOM      2  C   LIG    1      153.171 176.094 150.508  0.00  0.00    +0.181 A 
ATOM      3  C   LIG    1      153.853 174.940 150.397  0.00  0.00    +0.208 A 
ATOM      4  C   LIG    1      155.329 174.964 150.540  0.00  0.00    +0.238 A 
ATOM      5  C   LIG    1      155.939 176.278 150.792  0.00  0.00    +0.109 A 
ATOM      6  C   LIG    1      157.322 176.407 150.945  0.00  0.00    +0.135 A 
ATOM      7  C   LIG    1      157.874 177.666 151.182  0.00  0.00    +0.091 A 
ATOM      8  C   LIG    1      157.050 178.790 151.265  0.00  0.00    +0.124 A 
ATOM      9  C   LIG    1      155.670 178.657 151.112  0.00  0.00    +0.092 A 
ATOM     14  O   LIG    1      156.003 173.945 150.451  0.00  0.00    -0.283 OA
ATOM     27  C   LIG    1      155.115 177.399 150.876  0.00  0.00    +0.147 A 
ENDROOT
BRANCH   2  17
ATOM     17  C   LIG    1      151.706 176.164 150.373  0.00  0.00    +0.025 A 
ATOM     18  C   LIG    1      150.904 176.238 151.513  0.00  0.00    +0.015 A 
ATOM     19  C   LIG    1      149.516 176.303 151.386  0.00  0.00    +0.050 A 
ATOM     20  C   LIG    1      148.930 176.295 150.121  0.00  0.00    +0.158 A 
ATOM     21  C   LIG    1      149.732 176.220 148.981  0.00  0.00    +0.159 A 
ATOM     26  C   LIG    1      151.120 176.155 149.108  0.00  0.00    +0.060 A 
BRANCH  21  22
ATOM     22  O   LIG    1      149.170 176.212 147.741  0.00  0.00    -0.503 OA
ATOM     23  H   LIG    1      149.532 176.942 147.212  0.00  0.00    +0.292 HD
ENDBRANCH  21  22
BRANCH  20  24
ATOM     24  O   LIG    1      147.574 176.357 150.010  0.00  0.00    -0.503 OA
ATOM     25  H   LIG    1      147.316 176.260 149.080  0.00  0.00    +0.292 HD
ENDBRANCH  20  24
ENDBRANCH   2  17
BRANCH   8  10
ATOM     10  O   LIG    1      157.593 180.016 151.496  0.00  0.00    -0.507 OA
ATOM     11  H   LIG    1      157.291 180.336 152.364  0.00  0.00    +0.292 HD
ENDBRANCH   8  10
BRANCH   6  12
ATOM     12  O   LIG    1      158.171 175.344 150.872  0.00  0.00    -0.506 OA
ATOM     13  H   LIG    1      158.277 174.932 151.743  0.00  0.00    +0.292 HD
ENDBRANCH   6  12
BRANCH   3  15
ATOM     15  O   LIG    1      153.247 173.729 150.140  0.00  0.00    -0.501 OA
ATOM     16  H   LIG    1      153.514 173.078 150.809  0.00  0.00    +0.292 HD
ENDBRANCH   3  15
TORSDOF 6
ENDMDL
MODEL 9
REMARK VINA RESULT:      -7.6     31.866     34.221
REMARK  Name = 5280343
REMARK                            x       y       z     vdW  Elec       q    Type
REMARK                         _______ _______ _______ _____ _____    ______ ____
ROOT
ATOM      1  O   LIG    1      164.421 152.948 188.318  0.00  0.00    -0.451 OA
ATOM      2  C   LIG    1      163.421 151.999 188.171  0.00  0.00    +0.181 A 
ATOM      3  C   LIG    1      163.608 150.671 188.286  0.00  0.00    +0.208 A 
ATOM      4  C   LIG    1      164.963 150.164 188.610  0.00  0.00    +0.238 A 
ATOM      5  C   LIG    1      166.016 151.177 188.778  0.00  0.00    +0.109 A 
ATOM      6  C   LIG    1      167.326 150.802 189.087  0.00  0.00    +0.135 A 
ATOM      7  C   LIG    1      168.305 151.784 189.239  0.00  0.00    +0.091 A 
ATOM      8  C   LIG    1      167.978 153.132 189.083  0.00  0.00    +0.124 A 
ATOM      9  C   LIG    1      166.670 153.502 188.774  0.00  0.00    +0.092 A 
ATOM     14  O   LIG    1      165.193 148.968 188.729  0.00  0.00    -0.283 OA
ATOM     27  C   LIG    1      165.688 152.523 188.623  0.00  0.00    +0.147 A 
ENDROOT
BRANCH   2  17
ATOM     17  C   LIG    1      162.111 152.589 187.846  0.00  0.00    +0.025 A 
ATOM     18  C   LIG    1      161.205 152.879 188.867  0.00  0.00    +0.015 A 
ATOM     19  C   LIG    1      159.964 153.438 188.559  0.00  0.00    +0.050 A 
ATOM     20  C   LIG    1      159.629 153.706 187.232  0.00  0.00    +0.158 A 
ATOM     21  C   LIG    1      160.535 153.414 186.211  0.00  0.00    +0.159 A 
ATOM     26  C   LIG    1      161.776 152.857 186.519  0.00  0.00    +0.060 A 
BRANCH  21  22
ATOM     22  O   LIG    1      160.219 153.673 184.912  0.00  0.00    -0.503 OA
ATOM     23  H   LIG    1      159.664 154.469 184.861  0.00  0.00    +0.292 HD
ENDBRANCH  21  22
BRANCH  20  24
ATOM     24  O   LIG    1      158.413 154.249 186.944  0.00  0.00    -0.503 OA
ATOM     25  H   LIG    1      158.009 154.596 187.755  0.00  0.00    +0.292 HD
ENDBRANCH  20  24
ENDBRANCH   2  17
BRANCH   8  10
ATOM     10  O   LIG    1      168.937 154.086 189.232  0.00  0.00    -0.507 OA
ATOM     11  H   LIG    1      168.694 154.863 188.700  0.00  0.00    +0.292 HD
ENDBRANCH   8  10
BRANCH   6  12
ATOM     12  O   LIG    1      167.699 149.502 189.249  0.00  0.00    -0.506 OA
ATOM     13  H   LIG    1      167.121 148.916 188.737  0.00  0.00    +0.292 HD
ENDBRANCH   6  12
BRANCH   3  15
ATOM     15  O   LIG    1      162.599 149.751 188.102  0.00  0.00    -0.501 OA
ATOM     16  H   LIG    1      161.736 150.195 188.141  0.00  0.00    +0.292 HD
ENDBRANCH   3  15
TORSDOF 6
ENDMDL
