MODEL 1
REMARK VINA RESULT:      -7.7      0.000      0.000
REMARK  Name = 9823887
REMARK                            x       y       z     vdW  Elec       q    Type
REMARK                         _______ _______ _______ _____ _____    ______ ____
ROOT
ATOM      1  O   LIG    1       17.725  67.550   9.703  0.00  0.00    -0.341 OA
ATOM      2  C   LIG    1       18.417  67.228  10.908  0.00  0.00    +0.282 C 
ATOM      3  C   LIG    1       18.167  68.298  11.971  0.00  0.00    +0.201 C 
ATOM      4  C   LIG    1       16.672  68.528  12.189  0.00  0.00    +0.179 C 
ATOM      5  C   LIG    1       15.940  68.710  10.861  0.00  0.00    +0.177 C 
ATOM     22  C   LIG    1       16.309  67.595   9.879  0.00  0.00    +0.178 C 
ENDROOT
BRANCH   5   6
ATOM      6  O   LIG    1       14.533  68.690  11.090  0.00  0.00    -0.386 OA
ATOM      7  H   LIG    1       14.185  69.579  10.900  0.00  0.00    +0.210 HD
ENDBRANCH   5   6
BRANCH   4   8
ATOM      8  O   LIG    1       16.481  69.712  12.965  0.00  0.00    -0.386 OA
ATOM      9  H   LIG    1       16.613  69.473  13.899  0.00  0.00    +0.210 HD
ENDBRANCH   4   8
BRANCH   3  10
ATOM     10  O   LIG    1       18.764  67.863  13.192  0.00  0.00    -0.384 OA
ATOM     11  H   LIG    1       18.685  66.896  13.238  0.00  0.00    +0.210 HD
ENDBRANCH   3  10
BRANCH   2  12
ATOM     12  O   LIG    1       19.820  67.173  10.658  0.00  0.00    -0.345 OA
BRANCH  12  13
ATOM     13  C   LIG    1       20.316  68.428  10.220  0.00  0.00    +0.190 C 
BRANCH  13  14
ATOM     14  C   LIG    1       21.605  68.709  10.924  0.00  0.00    +0.001 C 
ATOM     15  C   LIG    1       22.543  67.776  11.144  0.00  0.00    +0.006 C 
BRANCH  15  16
ATOM     16  C   LIG    1       23.832  68.010  11.819  0.00  0.00    -0.025 A 
ATOM     17  C   LIG    1       24.358  67.023  12.639  0.00  0.00    +0.008 A 
ATOM     18  C   LIG    1       25.577  67.245  13.277  0.00  0.00    +0.001 A 
ATOM     19  C   LIG    1       26.255  68.450  13.090  0.00  0.00    +0.000 A 
ATOM     20  C   LIG    1       25.713  69.433  12.263  0.00  0.00    +0.001 A 
ATOM     21  C   LIG    1       24.493  69.211  11.623  0.00  0.00    +0.008 A 
ENDBRANCH  15  16
ENDBRANCH  13  14
ENDBRANCH  12  13
ENDBRANCH   2  12
BRANCH  22  23
ATOM     23  C   LIG    1       15.681  67.820   8.507  0.00  0.00    +0.197 C 
BRANCH  23  24
ATOM     24  O   LIG    1       15.176  69.142   8.453  0.00  0.00    -0.346 OA
BRANCH  24  25
ATOM     25  C   LIG    1       14.680  69.465   7.159  0.00  0.00    +0.281 C 
ATOM     26  C   LIG    1       13.364  68.714   6.900  0.00  0.00    +0.201 C 
ATOM     27  C   LIG    1       12.193  69.316   7.684  0.00  0.00    +0.178 C 
ATOM     28  C   LIG    1       12.152  70.832   7.488  0.00  0.00    +0.171 C 
ATOM     29  C   LIG    1       13.508  71.451   7.801  0.00  0.00    +0.197 C 
ATOM     36  O   LIG    1       14.524  70.878   6.981  0.00  0.00    -0.346 OA
BRANCH  28  30
ATOM     30  O   LIG    1       11.145  71.398   8.315  0.00  0.00    -0.387 OA
ATOM     31  H   LIG    1       11.589  71.950   8.982  0.00  0.00    +0.210 HD
ENDBRANCH  28  30
BRANCH  27  32
ATOM     32  O   LIG    1       12.348  69.024   9.072  0.00  0.00    -0.386 OA
ATOM     33  H   LIG    1       12.227  69.856   9.561  0.00  0.00    +0.210 HD
ENDBRANCH  27  32
BRANCH  26  34
ATOM     34  O   LIG    1       13.084  68.785   5.504  0.00  0.00    -0.384 OA
ATOM     35  H   LIG    1       13.829  69.225   5.062  0.00  0.00    +0.210 HD
ENDBRANCH  26  34
ENDBRANCH  24  25
ENDBRANCH  23  24
ENDBRANCH  22  23
TORSDOF 13
ENDMDL
MODEL 2
REMARK VINA RESULT:      -7.6     28.601     31.017
REMARK  Name = 9823887
REMARK                            x       y       z     vdW  Elec       q    Type
REMARK                         _______ _______ _______ _____ _____    ______ ____
ROOT
ATOM      1  O   LIG    1        6.355  43.582  20.866  0.00  0.00    -0.341 OA
ATOM      2  C   LIG    1        5.422  43.682  19.792  0.00  0.00    +0.282 C 
ATOM      3  C   LIG    1        5.799  44.835  18.861  0.00  0.00    +0.201 C 
ATOM      4  C   LIG    1        7.244  44.713  18.381  0.00  0.00    +0.179 C 
ATOM      5  C   LIG    1        8.195  44.448  19.546  0.00  0.00    +0.177 C 
ATOM     22  C   LIG    1        7.681  43.298  20.416  0.00  0.00    +0.178 C 
ENDROOT
BRANCH   5   6
ATOM      6  O   LIG    1        9.484  44.114  19.038  0.00  0.00    -0.386 OA
ATOM      7  H   LIG    1        9.392  43.925  18.088  0.00  0.00    +0.210 HD
ENDBRANCH   5   6
BRANCH   4   8
ATOM      8  O   LIG    1        7.642  45.935  17.756  0.00  0.00    -0.386 OA
ATOM      9  H   LIG    1        6.985  46.611  17.993  0.00  0.00    +0.210 HD
ENDBRANCH   4   8
BRANCH   3  10
ATOM     10  O   LIG    1        4.921  44.807  17.737  0.00  0.00    -0.384 OA
ATOM     11  H   LIG    1        4.245  45.493  17.865  0.00  0.00    +0.210 HD
ENDBRANCH   3  10
BRANCH   2  12
ATOM     12  O   LIG    1        4.118  43.940  20.309  0.00  0.00    -0.345 OA
BRANCH  12  13
ATOM     13  C   LIG    1        3.239  42.856  20.057  0.00  0.00    +0.190 C 
BRANCH  13  14
ATOM     14  C   LIG    1        3.063  42.075  21.319  0.00  0.00    +0.001 C 
ATOM     15  C   LIG    1        3.012  42.640  22.535  0.00  0.00    +0.006 C 
BRANCH  15  16
ATOM     16  C   LIG    1        2.826  41.913  23.803  0.00  0.00    -0.025 A 
ATOM     17  C   LIG    1        2.055  40.762  23.819  0.00  0.00    +0.008 A 
ATOM     18  C   LIG    1        1.880  40.074  25.019  0.00  0.00    +0.001 A 
ATOM     19  C   LIG    1        2.477  40.547  26.188  0.00  0.00    +0.000 A 
ATOM     20  C   LIG    1        3.249  41.707  26.157  0.00  0.00    +0.001 A 
ATOM     21  C   LIG    1        3.425  42.395  24.956  0.00  0.00    +0.008 A 
ENDBRANCH  15  16
ENDBRANCH  13  14
ENDBRANCH  12  13
ENDBRANCH   2  12
BRANCH  22  23
ATOM     23  C   LIG    1        8.552  43.090  21.652  0.00  0.00    +0.197 C 
BRANCH  23  24
ATOM     24  O   LIG    1        9.467  44.166  21.744  0.00  0.00    -0.346 OA
BRANCH  24  25
ATOM     25  C   LIG    1        8.906  45.280  22.431  0.00  0.00    +0.281 C 
ATOM     26  C   LIG    1        8.672  44.920  23.906  0.00  0.00    +0.201 C 
ATOM     27  C   LIG    1        9.980  44.874  24.702  0.00  0.00    +0.178 C 
ATOM     28  C   LIG    1       10.802  46.137  24.440  0.00  0.00    +0.171 C 
ATOM     29  C   LIG    1       10.979  46.361  22.944  0.00  0.00    +0.197 C 
ATOM     36  O   LIG    1        9.712  46.455  22.296  0.00  0.00    -0.346 OA
BRANCH  28  30
ATOM     30  O   LIG    1       12.066  46.031  25.079  0.00  0.00    -0.387 OA
ATOM     31  H   LIG    1       12.661  46.677  24.661  0.00  0.00    +0.210 HD
ENDBRANCH  28  30
BRANCH  27  32
ATOM     32  O   LIG    1       10.737  43.729  24.311  0.00  0.00    -0.386 OA
ATOM     33  H   LIG    1       10.264  42.942  24.631  0.00  0.00    +0.210 HD
ENDBRANCH  27  32
BRANCH  26  34
ATOM     34  O   LIG    1        7.811  45.907  24.469  0.00  0.00    -0.384 OA
ATOM     35  H   LIG    1        7.051  45.458  24.874  0.00  0.00    +0.210 HD
ENDBRANCH  26  34
ENDBRANCH  24  25
ENDBRANCH  23  24
ENDBRANCH  22  23
TORSDOF 13
ENDMDL
MODEL 3
REMARK VINA RESULT:      -7.6     28.384     30.893
REMARK  Name = 9823887
REMARK                            x       y       z     vdW  Elec       q    Type
REMARK                         _______ _______ _______ _____ _____    ______ ____
ROOT
ATOM      1  O   LIG    1        6.966  44.128  21.126  0.00  0.00    -0.341 OA
ATOM      2  C   LIG    1        6.052  44.304  20.046  0.00  0.00    +0.282 C 
ATOM      3  C   LIG    1        6.051  45.759  19.577  0.00  0.00    +0.201 C 
ATOM      4  C   LIG    1        7.463  46.237  19.240  0.00  0.00    +0.179 C 
ATOM      5  C   LIG    1        8.446  45.887  20.356  0.00  0.00    +0.177 C 
ATOM     22  C   LIG    1        8.316  44.415  20.754  0.00  0.00    +0.178 C 
ENDROOT
BRANCH   5   6
ATOM      6  O   LIG    1        9.776  46.138  19.909  0.00  0.00    -0.386 OA
ATOM      7  H   LIG    1        9.999  45.469  19.238  0.00  0.00    +0.210 HD
ENDBRANCH   5   6
BRANCH   4   8
ATOM      8  O   LIG    1        7.460  47.657  19.083  0.00  0.00    -0.386 OA
ATOM      9  H   LIG    1        8.065  47.870  18.352  0.00  0.00    +0.210 HD
ENDBRANCH   4   8
BRANCH   3  10
ATOM     10  O   LIG    1        5.228  45.853  18.414  0.00  0.00    -0.384 OA
ATOM     11  H   LIG    1        4.864  46.753  18.374  0.00  0.00    +0.210 HD
ENDBRANCH   3  10
BRANCH   2  12
ATOM     12  O   LIG    1        4.731  43.978  20.475  0.00  0.00    -0.345 OA
BRANCH  12  13
ATOM     13  C   LIG    1        4.303  44.831  21.524  0.00  0.00    +0.190 C 
BRANCH  13  14
ATOM     14  C   LIG    1        3.794  43.991  22.651  0.00  0.00    +0.001 C 
ATOM     15  C   LIG    1        3.439  42.705  22.509  0.00  0.00    +0.006 C 
BRANCH  15  16
ATOM     16  C   LIG    1        2.946  41.835  23.591  0.00  0.00    -0.025 A 
ATOM     17  C   LIG    1        2.099  40.783  23.284  0.00  0.00    +0.008 A 
ATOM     18  C   LIG    1        1.633  39.960  24.309  0.00  0.00    +0.001 A 
ATOM     19  C   LIG    1        2.019  40.200  25.628  0.00  0.00    +0.000 A 
ATOM     20  C   LIG    1        2.872  41.264  25.922  0.00  0.00    +0.001 A 
ATOM     21  C   LIG    1        3.338  42.087  24.896  0.00  0.00    +0.008 A 
ENDBRANCH  15  16
ENDBRANCH  13  14
ENDBRANCH  12  13
ENDBRANCH   2  12
BRANCH  22  23
ATOM     23  C   LIG    1        9.205  44.070  21.945  0.00  0.00    +0.197 C 
BRANCH  23  24
ATOM     24  O   LIG    1       10.550  44.028  21.505  0.00  0.00    -0.346 OA
BRANCH  24  25
ATOM     25  C   LIG    1       11.255  42.925  22.066  0.00  0.00    +0.281 C 
ATOM     26  C   LIG    1       11.503  41.860  20.987  0.00  0.00    +0.201 C 
ATOM     27  C   LIG    1       12.602  42.280  20.005  0.00  0.00    +0.178 C 
ATOM     28  C   LIG    1       13.835  42.763  20.770  0.00  0.00    +0.171 C 
ATOM     29  C   LIG    1       13.453  43.831  21.786  0.00  0.00    +0.197 C 
ATOM     36  O   LIG    1       12.475  43.332  22.696  0.00  0.00    -0.346 OA
BRANCH  28  30
ATOM     30  O   LIG    1       14.801  43.269  19.859  0.00  0.00    -0.387 OA
ATOM     31  H   LIG    1       15.072  44.148  20.176  0.00  0.00    +0.210 HD
ENDBRANCH  28  30
BRANCH  27  32
ATOM     32  O   LIG    1       12.121  43.334  19.172  0.00  0.00    -0.386 OA
ATOM     33  H   LIG    1       12.156  44.156  19.691  0.00  0.00    +0.210 HD
ENDBRANCH  27  32
BRANCH  26  34
ATOM     34  O   LIG    1       11.889  40.653  21.639  0.00  0.00    -0.384 OA
ATOM     35  H   LIG    1       11.121  40.058  21.666  0.00  0.00    +0.210 HD
ENDBRANCH  26  34
ENDBRANCH  24  25
ENDBRANCH  23  24
ENDBRANCH  22  23
TORSDOF 13
ENDMDL
MODEL 4
REMARK VINA RESULT:      -7.5     28.502     31.058
REMARK  Name = 9823887
REMARK                            x       y       z     vdW  Elec       q    Type
REMARK                         _______ _______ _______ _____ _____    ______ ____
ROOT
ATOM      1  O   LIG    1        6.793  44.182  21.205  0.00  0.00    -0.341 OA
ATOM      2  C   LIG    1        6.445  43.922  19.847  0.00  0.00    +0.282 C 
ATOM      3  C   LIG    1        6.350  45.229  19.059  0.00  0.00    +0.201 C 
ATOM      4  C   LIG    1        7.629  46.055  19.195  0.00  0.00    +0.179 C 
ATOM      5  C   LIG    1        8.057  46.176  20.657  0.00  0.00    +0.177 C 
ATOM     22  C   LIG    1        8.073  44.804  21.334  0.00  0.00    +0.178 C 
ENDROOT
BRANCH   5   6
ATOM      6  O   LIG    1        9.361  46.749  20.721  0.00  0.00    -0.386 OA
ATOM      7  H   LIG    1        9.787  46.621  19.855  0.00  0.00    +0.210 HD
ENDBRANCH   5   6
BRANCH   4   8
ATOM      8  O   LIG    1        7.400  47.372  18.691  0.00  0.00    -0.386 OA
ATOM      9  H   LIG    1        6.989  47.281  17.814  0.00  0.00    +0.210 HD
ENDBRANCH   4   8
BRANCH   3  10
ATOM     10  O   LIG    1        6.137  44.907  17.685  0.00  0.00    -0.384 OA
ATOM     11  H   LIG    1        5.302  45.319  17.405  0.00  0.00    +0.210 HD
ENDBRANCH   3  10
BRANCH   2  12
ATOM     12  O   LIG    1        5.174  43.279  19.790  0.00  0.00    -0.345 OA
BRANCH  12  13
ATOM     13  C   LIG    1        4.262  43.854  20.713  0.00  0.00    +0.190 C 
BRANCH  13  14
ATOM     14  C   LIG    1        3.698  42.768  21.572  0.00  0.00    +0.001 C 
ATOM     15  C   LIG    1        3.481  42.909  22.889  0.00  0.00    +0.006 C 
BRANCH  15  16
ATOM     16  C   LIG    1        2.915  41.874  23.772  0.00  0.00    -0.025 A 
ATOM     17  C   LIG    1        3.200  41.908  25.128  0.00  0.00    +0.008 A 
ATOM     18  C   LIG    1        2.664  40.928  25.962  0.00  0.00    +0.001 A 
ATOM     19  C   LIG    1        1.850  39.927  25.432  0.00  0.00    +0.000 A 
ATOM     20  C   LIG    1        1.572  39.906  24.065  0.00  0.00    +0.001 A 
ATOM     21  C   LIG    1        2.108  40.886  23.230  0.00  0.00    +0.008 A 
ENDBRANCH  15  16
ENDBRANCH  13  14
ENDBRANCH  12  13
ENDBRANCH   2  12
BRANCH  22  23
ATOM     23  C   LIG    1        8.384  44.912  22.824  0.00  0.00    +0.197 C 
BRANCH  23  24
ATOM     24  O   LIG    1        9.738  45.299  22.974  0.00  0.00    -0.346 OA
BRANCH  24  25
ATOM     25  C   LIG    1       10.619  44.185  22.875  0.00  0.00    +0.281 C 
ATOM     26  C   LIG    1       12.076  44.657  22.999  0.00  0.00    +0.201 C 
ATOM     27  C   LIG    1       12.440  45.031  24.439  0.00  0.00    +0.178 C 
ATOM     28  C   LIG    1       12.010  43.919  25.397  0.00  0.00    +0.171 C 
ATOM     29  C   LIG    1       10.543  43.566  25.186  0.00  0.00    +0.197 C 
ATOM     36  O   LIG    1       10.311  43.169  23.836  0.00  0.00    -0.346 OA
BRANCH  28  30
ATOM     30  O   LIG    1       12.233  44.325  26.740  0.00  0.00    -0.387 OA
ATOM     31  H   LIG    1       13.188  44.257  26.913  0.00  0.00    +0.210 HD
ENDBRANCH  28  30
BRANCH  27  32
ATOM     32  O   LIG    1       11.780  46.244  24.799  0.00  0.00    -0.386 OA
ATOM     33  H   LIG    1       10.839  46.144  24.573  0.00  0.00    +0.210 HD
ENDBRANCH  27  32
BRANCH  26  34
ATOM     34  O   LIG    1       12.922  43.598  22.558  0.00  0.00    -0.384 OA
ATOM     35  H   LIG    1       13.099  43.720  21.610  0.00  0.00    +0.210 HD
ENDBRANCH  26  34
ENDBRANCH  24  25
ENDBRANCH  23  24
ENDBRANCH  22  23
TORSDOF 13
ENDMDL
MODEL 5
REMARK VINA RESULT:      -7.5     28.235     29.638
REMARK  Name = 9823887
REMARK                            x       y       z     vdW  Elec       q    Type
REMARK                         _______ _______ _______ _____ _____    ______ ____
ROOT
ATOM      1  O   LIG    1        7.961  43.634  20.012  0.00  0.00    -0.341 OA
ATOM      2  C   LIG    1        8.725  44.596  20.735  0.00  0.00    +0.282 C 
ATOM      3  C   LIG    1        8.782  45.919  19.970  0.00  0.00    +0.201 C 
ATOM      4  C   LIG    1        7.382  46.419  19.617  0.00  0.00    +0.179 C 
ATOM      5  C   LIG    1        6.540  45.310  18.987  0.00  0.00    +0.177 C 
ATOM     22  C   LIG    1        6.602  44.035  19.833  0.00  0.00    +0.178 C 
ENDROOT
BRANCH   5   6
ATOM      6  O   LIG    1        5.187  45.744  18.887  0.00  0.00    -0.386 OA
ATOM      7  H   LIG    1        4.674  45.030  18.469  0.00  0.00    +0.210 HD
ENDBRANCH   5   6
BRANCH   4   8
ATOM      8  O   LIG    1        7.482  47.487  18.673  0.00  0.00    -0.386 OA
ATOM      9  H   LIG    1        8.189  48.080  18.980  0.00  0.00    +0.210 HD
ENDBRANCH   4   8
BRANCH   3  10
ATOM     10  O   LIG    1        9.437  46.883  20.794  0.00  0.00    -0.384 OA
ATOM     11  H   LIG    1        9.974  47.455  20.220  0.00  0.00    +0.210 HD
ENDBRANCH   3  10
BRANCH   2  12
ATOM     12  O   LIG    1       10.061  44.125  20.902  0.00  0.00    -0.345 OA
BRANCH  12  13
ATOM     13  C   LIG    1       10.508  43.421  19.754  0.00  0.00    +0.190 C 
BRANCH  13  14
ATOM     14  C   LIG    1       11.887  42.907  20.011  0.00  0.00    +0.001 C 
ATOM     15  C   LIG    1       12.209  42.161  21.080  0.00  0.00    +0.006 C 
BRANCH  15  16
ATOM     16  C   LIG    1       13.549  41.620  21.366  0.00  0.00    -0.025 A 
ATOM     17  C   LIG    1       14.637  42.085  20.645  0.00  0.00    +0.008 A 
ATOM     18  C   LIG    1       15.905  41.573  20.917  0.00  0.00    +0.001 A 
ATOM     19  C   LIG    1       16.070  40.603  21.905  0.00  0.00    +0.000 A 
ATOM     20  C   LIG    1       14.965  40.145  22.623  0.00  0.00    +0.001 A 
ATOM     21  C   LIG    1       13.696  40.657  22.351  0.00  0.00    +0.008 A 
ENDBRANCH  15  16
ENDBRANCH  13  14
ENDBRANCH  12  13
ENDBRANCH   2  12
BRANCH  22  23
ATOM     23  C   LIG    1        5.864  42.878  19.165  0.00  0.00    +0.197 C 
BRANCH  23  24
ATOM     24  O   LIG    1        4.627  42.691  19.827  0.00  0.00    -0.346 OA
BRANCH  24  25
ATOM     25  C   LIG    1        4.723  42.979  21.218  0.00  0.00    +0.281 C 
ATOM     26  C   LIG    1        3.470  43.737  21.682  0.00  0.00    +0.201 C 
ATOM     27  C   LIG    1        2.246  42.821  21.785  0.00  0.00    +0.178 C 
ATOM     28  C   LIG    1        2.599  41.558  22.572  0.00  0.00    +0.171 C 
ATOM     29  C   LIG    1        3.841  40.893  21.993  0.00  0.00    +0.197 C 
ATOM     36  O   LIG    1        4.943  41.798  21.997  0.00  0.00    -0.346 OA
BRANCH  28  30
ATOM     30  O   LIG    1        1.501  40.656  22.555  0.00  0.00    -0.387 OA
ATOM     31  H   LIG    1        0.715  41.156  22.276  0.00  0.00    +0.210 HD
ENDBRANCH  28  30
BRANCH  27  32
ATOM     32  O   LIG    1        1.813  42.454  20.476  0.00  0.00    -0.386 OA
ATOM     33  H   LIG    1        1.789  41.482  20.437  0.00  0.00    +0.210 HD
ENDBRANCH  27  32
BRANCH  26  34
ATOM     34  O   LIG    1        3.745  44.302  22.962  0.00  0.00    -0.384 OA
ATOM     35  H   LIG    1        4.211  45.145  22.833  0.00  0.00    +0.210 HD
ENDBRANCH  26  34
ENDBRANCH  24  25
ENDBRANCH  23  24
ENDBRANCH  22  23
TORSDOF 13
ENDMDL
MODEL 6
REMARK VINA RESULT:      -7.4     27.772     30.274
REMARK  Name = 9823887
REMARK                            x       y       z     vdW  Elec       q    Type
REMARK                         _______ _______ _______ _____ _____    ______ ____
ROOT
ATOM      1  O   LIG    1        8.043  44.212  21.047  0.00  0.00    -0.341 OA
ATOM      2  C   LIG    1        7.341  44.954  20.052  0.00  0.00    +0.282 C 
ATOM      3  C   LIG    1        8.324  45.698  19.146  0.00  0.00    +0.201 C 
ATOM      4  C   LIG    1        9.364  44.747  18.554  0.00  0.00    +0.179 C 
ATOM      5  C   LIG    1        9.979  43.857  19.633  0.00  0.00    +0.177 C 
ATOM     22  C   LIG    1        8.888  43.206  20.487  0.00  0.00    +0.178 C 
ENDROOT
BRANCH   5   6
ATOM      6  O   LIG    1       10.763  42.839  19.015  0.00  0.00    -0.386 OA
ATOM      7  H   LIG    1       11.116  43.198  18.181  0.00  0.00    +0.210 HD
ENDBRANCH   5   6
BRANCH   4   8
ATOM      8  O   LIG    1       10.416  45.506  17.955  0.00  0.00    -0.386 OA
ATOM      9  H   LIG    1       10.290  46.434  18.216  0.00  0.00    +0.210 HD
ENDBRANCH   4   8
BRANCH   3  10
ATOM     10  O   LIG    1        7.584  46.310  18.091  0.00  0.00    -0.384 OA
ATOM     11  H   LIG    1        7.712  47.271  18.151  0.00  0.00    +0.210 HD
ENDBRANCH   3  10
BRANCH   2  12
ATOM     12  O   LIG    1        6.499  45.921  20.675  0.00  0.00    -0.345 OA
BRANCH  12  13
ATOM     13  C   LIG    1        5.134  45.700  20.355  0.00  0.00    +0.190 C 
BRANCH  13  14
ATOM     14  C   LIG    1        4.661  44.480  21.078  0.00  0.00    +0.001 C 
ATOM     15  C   LIG    1        3.911  44.527  22.190  0.00  0.00    +0.006 C 
BRANCH  15  16
ATOM     16  C   LIG    1        3.410  43.353  22.926  0.00  0.00    -0.025 A 
ATOM     17  C   LIG    1        2.528  42.486  22.303  0.00  0.00    +0.008 A 
ATOM     18  C   LIG    1        2.054  41.375  23.000  0.00  0.00    +0.001 A 
ATOM     19  C   LIG    1        2.468  41.146  24.313  0.00  0.00    +0.000 A 
ATOM     20  C   LIG    1        3.356  42.028  24.928  0.00  0.00    +0.001 A 
ATOM     21  C   LIG    1        3.830  43.139  24.229  0.00  0.00    +0.008 A 
ENDBRANCH  15  16
ENDBRANCH  13  14
ENDBRANCH  12  13
ENDBRANCH   2  12
BRANCH  22  23
ATOM     23  C   LIG    1        9.479  42.405  21.644  0.00  0.00    +0.197 C 
BRANCH  23  24
ATOM     24  O   LIG    1        9.473  43.217  22.804  0.00  0.00    -0.346 OA
BRANCH  24  25
ATOM     25  C   LIG    1       10.743  43.228  23.447  0.00  0.00    +0.281 C 
ATOM     26  C   LIG    1       11.692  44.191  22.717  0.00  0.00    +0.201 C 
ATOM     27  C   LIG    1       11.350  45.658  22.995  0.00  0.00    +0.178 C 
ATOM     28  C   LIG    1       11.188  45.885  24.499  0.00  0.00    +0.171 C 
ATOM     29  C   LIG    1       10.206  44.882  25.091  0.00  0.00    +0.197 C 
ATOM     36  O   LIG    1       10.637  43.547  24.839  0.00  0.00    -0.346 OA
BRANCH  28  30
ATOM     30  O   LIG    1       10.748  47.214  24.743  0.00  0.00    -0.387 OA
ATOM     31  H   LIG    1       11.352  47.609  25.394  0.00  0.00    +0.210 HD
ENDBRANCH  28  30
BRANCH  27  32
ATOM     32  O   LIG    1       10.132  45.999  22.334  0.00  0.00    -0.386 OA
ATOM     33  H   LIG    1       10.187  45.657  21.425  0.00  0.00    +0.210 HD
ENDBRANCH  27  32
BRANCH  26  34
ATOM     34  O   LIG    1       13.020  43.923  23.160  0.00  0.00    -0.384 OA
ATOM     35  H   LIG    1       13.011  43.848  24.129  0.00  0.00    +0.210 HD
ENDBRANCH  26  34
ENDBRANCH  24  25
ENDBRANCH  23  24
ENDBRANCH  22  23
TORSDOF 13
ENDMDL
MODEL 7
REMARK VINA RESULT:      -7.4     29.117     31.467
REMARK  Name = 9823887
REMARK                            x       y       z     vdW  Elec       q    Type
REMARK                         _______ _______ _______ _____ _____    ______ ____
ROOT
ATOM      1  O   LIG    1        7.152  43.978  20.837  0.00  0.00    -0.341 OA
ATOM      2  C   LIG    1        6.043  44.360  20.026  0.00  0.00    +0.282 C 
ATOM      3  C   LIG    1        6.094  45.858  19.721  0.00  0.00    +0.201 C 
ATOM      4  C   LIG    1        7.438  46.256  19.112  0.00  0.00    +0.179 C 
ATOM      5  C   LIG    1        8.603  45.692  19.924  0.00  0.00    +0.177 C 
ATOM     22  C   LIG    1        8.406  44.197  20.190  0.00  0.00    +0.178 C 
ENDROOT
BRANCH   5   6
ATOM      6  O   LIG    1        9.818  45.887  19.206  0.00  0.00    -0.386 OA
ATOM      7  H   LIG    1       10.500  46.169  19.840  0.00  0.00    +0.210 HD
ENDBRANCH   5   6
BRANCH   4   8
ATOM      8  O   LIG    1        7.553  47.680  19.105  0.00  0.00    -0.386 OA
ATOM      9  H   LIG    1        6.758  48.039  19.535  0.00  0.00    +0.210 HD
ENDBRANCH   4   8
BRANCH   3  10
ATOM     10  O   LIG    1        5.047  46.162  18.799  0.00  0.00    -0.384 OA
ATOM     11  H   LIG    1        4.233  46.315  19.308  0.00  0.00    +0.210 HD
ENDBRANCH   3  10
BRANCH   2  12
ATOM     12  O   LIG    1        4.825  44.093  20.717  0.00  0.00    -0.345 OA
BRANCH  12  13
ATOM     13  C   LIG    1        4.206  42.910  20.236  0.00  0.00    +0.190 C 
BRANCH  13  14
ATOM     14  C   LIG    1        3.861  42.039  21.400  0.00  0.00    +0.001 C 
ATOM     15  C   LIG    1        3.091  42.445  22.422  0.00  0.00    +0.006 C 
BRANCH  15  16
ATOM     16  C   LIG    1        2.712  41.618  23.581  0.00  0.00    -0.025 A 
ATOM     17  C   LIG    1        3.171  41.965  24.842  0.00  0.00    +0.008 A 
ATOM     18  C   LIG    1        2.812  41.182  25.938  0.00  0.00    +0.001 A 
ATOM     19  C   LIG    1        2.001  40.062  25.761  0.00  0.00    +0.000 A 
ATOM     20  C   LIG    1        1.548  39.724  24.486  0.00  0.00    +0.001 A 
ATOM     21  C   LIG    1        1.906  40.507  23.389  0.00  0.00    +0.008 A 
ENDBRANCH  15  16
ENDBRANCH  13  14
ENDBRANCH  12  13
ENDBRANCH   2  12
BRANCH  22  23
ATOM     23  C   LIG    1        9.497  43.636  21.098  0.00  0.00    +0.197 C 
BRANCH  23  24
ATOM     24  O   LIG    1        8.890  43.131  22.273  0.00  0.00    -0.346 OA
BRANCH  24  25
ATOM     25  C   LIG    1        9.306  43.845  23.432  0.00  0.00    +0.281 C 
ATOM     26  C   LIG    1        8.209  44.831  23.860  0.00  0.00    +0.201 C 
ATOM     27  C   LIG    1        7.020  44.122  24.518  0.00  0.00    +0.178 C 
ATOM     28  C   LIG    1        7.515  43.155  25.595  0.00  0.00    +0.171 C 
ATOM     29  C   LIG    1        8.578  42.221  25.032  0.00  0.00    +0.197 C 
ATOM     36  O   LIG    1        9.671  42.966  24.502  0.00  0.00    -0.346 OA
BRANCH  28  30
ATOM     30  O   LIG    1        6.422  42.409  26.112  0.00  0.00    -0.387 OA
ATOM     31  H   LIG    1        5.619  42.702  25.647  0.00  0.00    +0.210 HD
ENDBRANCH  28  30
BRANCH  27  32
ATOM     32  O   LIG    1        6.293  43.393  23.530  0.00  0.00    -0.386 OA
ATOM     33  H   LIG    1        5.531  42.981  23.972  0.00  0.00    +0.210 HD
ENDBRANCH  27  32
BRANCH  26  34
ATOM     34  O   LIG    1        8.781  45.751  24.787  0.00  0.00    -0.384 OA
ATOM     35  H   LIG    1        8.593  46.654  24.480  0.00  0.00    +0.210 HD
ENDBRANCH  26  34
ENDBRANCH  24  25
ENDBRANCH  23  24
ENDBRANCH  22  23
TORSDOF 13
ENDMDL
MODEL 8
REMARK VINA RESULT:      -7.2     27.599     30.270
REMARK  Name = 9823887
REMARK                            x       y       z     vdW  Elec       q    Type
REMARK                         _______ _______ _______ _____ _____    ______ ____
ROOT
ATOM      1  O   LIG    1        7.516  45.923  21.426  0.00  0.00    -0.341 OA
ATOM      2  C   LIG    1        6.977  45.728  20.121  0.00  0.00    +0.282 C 
ATOM      3  C   LIG    1        8.051  45.964  19.058  0.00  0.00    +0.201 C 
ATOM      4  C   LIG    1        9.291  45.111  19.320  0.00  0.00    +0.179 C 
ATOM      5  C   LIG    1        9.744  45.224  20.774  0.00  0.00    +0.177 C 
ATOM     22  C   LIG    1        8.568  45.004  21.729  0.00  0.00    +0.178 C 
ENDROOT
BRANCH   5   6
ATOM      6  O   LIG    1       10.750  44.248  21.033  0.00  0.00    -0.386 OA
ATOM      7  H   LIG    1       10.450  43.699  21.779  0.00  0.00    +0.210 HD
ENDBRANCH   5   6
BRANCH   4   8
ATOM      8  O   LIG    1       10.362  45.560  18.487  0.00  0.00    -0.386 OA
ATOM      9  H   LIG    1       11.187  45.446  18.988  0.00  0.00    +0.210 HD
ENDBRANCH   4   8
BRANCH   3  10
ATOM     10  O   LIG    1        7.501  45.624  17.785  0.00  0.00    -0.384 OA
ATOM     11  H   LIG    1        6.532  45.623  17.865  0.00  0.00    +0.210 HD
ENDBRANCH   3  10
BRANCH   2  12
ATOM     12  O   LIG    1        5.919  46.656  19.893  0.00  0.00    -0.345 OA
BRANCH  12  13
ATOM     13  C   LIG    1        5.060  46.748  21.018  0.00  0.00    +0.190 C 
BRANCH  13  14
ATOM     14  C   LIG    1        4.337  45.450  21.180  0.00  0.00    +0.001 C 
ATOM     15  C   LIG    1        4.163  44.847  22.366  0.00  0.00    +0.006 C 
BRANCH  15  16
ATOM     16  C   LIG    1        3.445  43.577  22.576  0.00  0.00    -0.025 A 
ATOM     17  C   LIG    1        2.679  43.052  21.547  0.00  0.00    +0.008 A 
ATOM     18  C   LIG    1        2.001  41.850  21.747  0.00  0.00    +0.001 A 
ATOM     19  C   LIG    1        2.095  41.189  22.971  0.00  0.00    +0.000 A 
ATOM     20  C   LIG    1        2.870  41.730  23.997  0.00  0.00    +0.001 A 
ATOM     21  C   LIG    1        3.549  42.932  23.798  0.00  0.00    +0.008 A 
ENDBRANCH  15  16
ENDBRANCH  13  14
ENDBRANCH  12  13
ENDBRANCH   2  12
BRANCH  22  23
ATOM     23  C   LIG    1        8.970  45.228  23.184  0.00  0.00    +0.197 C 
BRANCH  23  24
ATOM     24  O   LIG    1       10.348  45.554  23.225  0.00  0.00    -0.346 OA
BRANCH  24  25
ATOM     25  C   LIG    1       10.848  45.567  24.557  0.00  0.00    +0.281 C 
ATOM     26  C   LIG    1       10.707  44.171  25.183  0.00  0.00    +0.201 C 
ATOM     27  C   LIG    1       11.738  43.184  24.626  0.00  0.00    +0.178 C 
ATOM     28  C   LIG    1       13.137  43.802  24.670  0.00  0.00    +0.171 C 
ATOM     29  C   LIG    1       13.140  45.169  23.996  0.00  0.00    +0.197 C 
ATOM     36  O   LIG    1       12.198  46.039  24.620  0.00  0.00    -0.346 OA
BRANCH  28  30
ATOM     30  O   LIG    1       14.068  42.935  24.037  0.00  0.00    -0.387 OA
ATOM     31  H   LIG    1       14.567  43.462  23.390  0.00  0.00    +0.210 HD
ENDBRANCH  28  30
BRANCH  27  32
ATOM     32  O   LIG    1       11.409  42.858  23.277  0.00  0.00    -0.386 OA
ATOM     33  H   LIG    1       12.218  42.956  22.746  0.00  0.00    +0.210 HD
ENDBRANCH  27  32
BRANCH  26  34
ATOM     34  O   LIG    1       10.887  44.298  26.591  0.00  0.00    -0.384 OA
ATOM     35  H   LIG    1       11.149  45.213  26.786  0.00  0.00    +0.210 HD
ENDBRANCH  26  34
ENDBRANCH  24  25
ENDBRANCH  23  24
ENDBRANCH  22  23
TORSDOF 13
ENDMDL
MODEL 9
REMARK VINA RESULT:      -7.1     27.963     29.584
REMARK  Name = 9823887
REMARK                            x       y       z     vdW  Elec       q    Type
REMARK                         _______ _______ _______ _____ _____    ______ ____
ROOT
ATOM      1  O   LIG    1        6.562  44.205  19.092  0.00  0.00    -0.341 OA
ATOM      2  C   LIG    1        7.589  45.178  19.274  0.00  0.00    +0.282 C 
ATOM      3  C   LIG    1        6.989  46.583  19.336  0.00  0.00    +0.201 C 
ATOM      4  C   LIG    1        5.893  46.675  20.396  0.00  0.00    +0.179 C 
ATOM      5  C   LIG    1        4.899  45.521  20.266  0.00  0.00    +0.177 C 
ATOM     22  C   LIG    1        5.632  44.180  20.176  0.00  0.00    +0.178 C 
ENDROOT
BRANCH   5   6
ATOM      6  O   LIG    1        4.036  45.511  21.400  0.00  0.00    -0.386 OA
ATOM      7  H   LIG    1        3.246  44.991  21.171  0.00  0.00    +0.210 HD
ENDBRANCH   5   6
BRANCH   4   8
ATOM      8  O   LIG    1        5.173  47.898  20.232  0.00  0.00    -0.386 OA
ATOM      9  H   LIG    1        5.014  48.263  21.119  0.00  0.00    +0.210 HD
ENDBRANCH   4   8
BRANCH   3  10
ATOM     10  O   LIG    1        8.035  47.502  19.654  0.00  0.00    -0.384 OA
ATOM     11  H   LIG    1        7.838  47.893  20.521  0.00  0.00    +0.210 HD
ENDBRANCH   3  10
BRANCH   2  12
ATOM     12  O   LIG    1        8.495  45.134  18.174  0.00  0.00    -0.345 OA
BRANCH  12  13
ATOM     13  C   LIG    1        9.702  44.476  18.525  0.00  0.00    +0.190 C 
BRANCH  13  14
ATOM     14  C   LIG    1       10.187  45.022  19.829  0.00  0.00    +0.001 C 
ATOM     15  C   LIG    1       10.633  44.249  20.832  0.00  0.00    +0.006 C 
BRANCH  15  16
ATOM     16  C   LIG    1       11.132  44.742  22.127  0.00  0.00    -0.025 A 
ATOM     17  C   LIG    1       12.254  44.155  22.690  0.00  0.00    +0.008 A 
ATOM     18  C   LIG    1       12.727  44.622  23.916  0.00  0.00    +0.001 A 
ATOM     19  C   LIG    1       12.072  45.669  24.563  0.00  0.00    +0.000 A 
ATOM     20  C   LIG    1       10.944  46.250  23.985  0.00  0.00    +0.001 A 
ATOM     21  C   LIG    1       10.471  45.783  22.758  0.00  0.00    +0.008 A 
ENDBRANCH  15  16
ENDBRANCH  13  14
ENDBRANCH  12  13
ENDBRANCH   2  12
BRANCH  22  23
ATOM     23  C   LIG    1        4.668  43.024  19.929  0.00  0.00    +0.197 C 
BRANCH  23  24
ATOM     24  O   LIG    1        4.048  42.684  21.156  0.00  0.00    -0.346 OA
BRANCH  24  25
ATOM     25  C   LIG    1        4.670  41.559  21.767  0.00  0.00    +0.281 C 
ATOM     26  C   LIG    1        5.657  42.029  22.847  0.00  0.00    +0.201 C 
ATOM     27  C   LIG    1        4.938  42.528  24.106  0.00  0.00    +0.178 C 
ATOM     28  C   LIG    1        3.888  41.509  24.551  0.00  0.00    +0.171 C 
ATOM     29  C   LIG    1        2.964  41.150  23.395  0.00  0.00    +0.197 C 
ATOM     36  O   LIG    1        3.711  40.636  22.295  0.00  0.00    -0.346 OA
BRANCH  28  30
ATOM     30  O   LIG    1        3.139  42.033  25.640  0.00  0.00    -0.387 OA
ATOM     31  H   LIG    1        3.733  42.081  26.408  0.00  0.00    +0.210 HD
ENDBRANCH  28  30
BRANCH  27  32
ATOM     32  O   LIG    1        4.299  43.773  23.829  0.00  0.00    -0.386 OA
ATOM     33  H   LIG    1        4.109  44.201  24.681  0.00  0.00    +0.210 HD
ENDBRANCH  27  32
BRANCH  26  34
ATOM     34  O   LIG    1        6.495  40.928  23.188  0.00  0.00    -0.384 OA
ATOM     35  H   LIG    1        7.199  40.860  22.522  0.00  0.00    +0.210 HD
ENDBRANCH  26  34
ENDBRANCH  24  25
ENDBRANCH  23  24
ENDBRANCH  22  23
TORSDOF 13
ENDMDL
