MODEL 1
REMARK VINA RESULT:      -6.7      0.000      0.000
REMARK  Name = 4485
REMARK  10 active torsions:
REMARK  status: ('A' for Active; 'I' for Inactive)
REMARK    1  A    between atoms: O_1  and  C_17
REMARK    2  A    between atoms: O_1  and  C_24
REMARK    3  A    between atoms: O_2  and  C_18
REMARK    4  A    between atoms: O_2  and  C_25
REMARK    5  A    between atoms: N_8  and  C_15
REMARK    6  A    between atoms: C_9  and  C_12
REMARK    7  A    between atoms: C_10  and  C_17
REMARK    8  A    between atoms: C_11  and  C_18
REMARK    9  A    between atoms: C_13  and  C_19
REMARK   10  A    between atoms: C_14  and  C_20
REMARK                            x       y       z     vdW  Elec       q    Type
REMARK                         _______ _______ _______ _____ _____    ______ ____
ROOT
ATOM      1  C   UNL     1     148.279 148.809 143.035  0.00  0.00    +0.065 C 
ATOM      2  C   UNL     1     147.604 148.571 141.888  0.00  0.00    +0.016 C 
ATOM      3  C   UNL     1     146.227 149.084 141.561  0.00  0.00    +0.061 C 
ATOM      4  N   UNL     1     148.191 147.799 140.897  0.00  0.00    -0.321 N 
ATOM      5  H   UNL     1     147.660 147.646 140.047  0.00  0.00    +0.152 HD
ATOM      6  C   UNL     1     149.406 147.144 141.018  0.00  0.00    +0.016 C 
ATOM      7  C   UNL     1     149.778 146.274 139.847  0.00  0.00    +0.061 C 
ATOM      8  C   UNL     1     150.148 147.315 142.134  0.00  0.00    +0.065 C 
ATOM      9  C   UNL     1     149.700 148.270 143.245  0.00  0.00    +0.102 C 
ENDROOT
BRANCH   9  10
ATOM     10  C   UNL     1     150.669 149.412 143.362  0.00  0.00    +0.042 A 
ATOM     11  C   UNL     1     150.837 150.252 142.265  0.00  0.00    +0.011 A 
ATOM     12  C   UNL     1     151.729 151.321 142.342  0.00  0.00    +0.001 A 
ATOM     13  C   UNL     1     152.451 151.544 143.515  0.00  0.00    +0.007 A 
ATOM     14  C   UNL     1     152.278 150.698 144.612  0.00  0.00    +0.084 A 
ATOM     15  C   UNL     1     151.385 149.629 144.534  0.00  0.00    +0.277 A 
BRANCH  15  16
ATOM     16  N   UNL     1     151.225 148.781 145.664  0.00  0.00    +0.080 N 
ATOM     17  O   UNL     1     150.306 149.027 146.481  0.00  0.00    +0.041 OA
ATOM     18  O   UNL     1     152.009 147.812 145.811  0.00  0.00    -0.576 OA
ENDBRANCH  15  16
ENDBRANCH   9  10
BRANCH   1  19
ATOM     19  C   UNL     1     147.679 149.539 144.164  0.00  0.00    +0.337 C 
ATOM     20  O   UNL     1     147.037 148.999 145.046  0.00  0.00    -0.245 OA
BRANCH  19  21
ATOM     21  O   UNL     1     147.970 150.855 144.025  0.00  0.00    -0.465 OA
ATOM     22  C   UNL     1     148.256 151.546 145.246  0.00  0.00    +0.280 C 
ENDBRANCH  19  21
ENDBRANCH   1  19
BRANCH   8  23
ATOM     23  C   UNL     1     151.394 146.568 142.371  0.00  0.00    +0.337 C 
ATOM     24  O   UNL     1     151.463 145.596 143.101  0.00  0.00    -0.245 OA
BRANCH  23  25
ATOM     25  O   UNL     1     152.384 147.148 141.651  0.00  0.00    -0.465 OA
ATOM     26  C   UNL     1     153.566 147.469 142.392  0.00  0.00    +0.280 C 
ENDBRANCH  23  25
ENDBRANCH   8  23
TORSDOF 6
ENDMDL
MODEL 2
REMARK VINA RESULT:      -6.6      1.909      3.450
REMARK  Name = 4485
REMARK  10 active torsions:
REMARK  status: ('A' for Active; 'I' for Inactive)
REMARK    1  A    between atoms: O_1  and  C_17
REMARK    2  A    between atoms: O_1  and  C_24
REMARK    3  A    between atoms: O_2  and  C_18
REMARK    4  A    between atoms: O_2  and  C_25
REMARK    5  A    between atoms: N_8  and  C_15
REMARK    6  A    between atoms: C_9  and  C_12
REMARK    7  A    between atoms: C_10  and  C_17
REMARK    8  A    between atoms: C_11  and  C_18
REMARK    9  A    between atoms: C_13  and  C_19
REMARK   10  A    between atoms: C_14  and  C_20
REMARK                            x       y       z     vdW  Elec       q    Type
REMARK                         _______ _______ _______ _____ _____    ______ ____
ROOT
ATOM      1  C   UNL     1     149.643 147.247 142.072  0.00  0.00    +0.065 C 
ATOM      2  C   UNL     1     150.518 146.886 141.106  0.00  0.00    +0.016 C 
ATOM      3  C   UNL     1     150.150 146.403 139.729  0.00  0.00    +0.061 C 
ATOM      4  N   UNL     1     151.880 146.955 141.357  0.00  0.00    -0.321 N 
ATOM      5  H   UNL     1     152.507 146.684 140.608  0.00  0.00    +0.152 HD
ATOM      6  C   UNL     1     152.445 147.277 142.580  0.00  0.00    +0.016 C 
ATOM      7  C   UNL     1     153.946 147.174 142.633  0.00  0.00    +0.061 C 
ATOM      8  C   UNL     1     151.647 147.641 143.608  0.00  0.00    +0.065 C 
ATOM      9  C   UNL     1     150.131 147.767 143.429  0.00  0.00    +0.102 C 
ENDROOT
BRANCH   9  10
ATOM     10  C   UNL     1     149.710 149.198 143.611  0.00  0.00    +0.042 A 
ATOM     11  C   UNL     1     150.249 150.159 142.761  0.00  0.00    +0.011 A 
ATOM     12  C   UNL     1     149.878 151.496 142.904  0.00  0.00    +0.001 A 
ATOM     13  C   UNL     1     148.971 151.866 143.898  0.00  0.00    +0.007 A 
ATOM     14  C   UNL     1     148.434 150.897 144.747  0.00  0.00    +0.084 A 
ATOM     15  C   UNL     1     148.806 149.560 144.603  0.00  0.00    +0.277 A 
BRANCH  15  16
ATOM     16  N   UNL     1     148.245 148.591 145.480  0.00  0.00    +0.080 N 
ATOM     17  O   UNL     1     148.934 148.173 146.441  0.00  0.00    +0.041 OA
ATOM     18  O   UNL     1     147.079 148.182 145.266  0.00  0.00    -0.576 OA
ENDBRANCH  15  16
ENDBRANCH   9  10
BRANCH   1  19
ATOM     19  C   UNL     1     148.187 147.108 141.905  0.00  0.00    +0.337 C 
ATOM     20  O   UNL     1     147.545 146.183 142.368  0.00  0.00    -0.245 OA
BRANCH  19  21
ATOM     21  O   UNL     1     147.738 148.157 141.176  0.00  0.00    -0.465 OA
ATOM     22  C   UNL     1     146.552 148.783 141.678  0.00  0.00    +0.280 C 
ENDBRANCH  19  21
ENDBRANCH   1  19
BRANCH   8  23
ATOM     23  C   UNL     1     152.174 147.892 144.960  0.00  0.00    +0.337 C 
ATOM     24  O   UNL     1     152.147 147.065 145.852  0.00  0.00    -0.245 OA
BRANCH  23  25
ATOM     25  O   UNL     1     152.667 149.154 145.000  0.00  0.00    -0.465 OA
ATOM     26  C   UNL     1     152.257 149.929 146.131  0.00  0.00    +0.280 C 
ENDBRANCH  23  25
ENDBRANCH   8  23
TORSDOF 6
ENDMDL
MODEL 3
REMARK VINA RESULT:      -6.6      2.277      3.682
REMARK  Name = 4485
REMARK  10 active torsions:
REMARK  status: ('A' for Active; 'I' for Inactive)
REMARK    1  A    between atoms: O_1  and  C_17
REMARK    2  A    between atoms: O_1  and  C_24
REMARK    3  A    between atoms: O_2  and  C_18
REMARK    4  A    between atoms: O_2  and  C_25
REMARK    5  A    between atoms: N_8  and  C_15
REMARK    6  A    between atoms: C_9  and  C_12
REMARK    7  A    between atoms: C_10  and  C_17
REMARK    8  A    between atoms: C_11  and  C_18
REMARK    9  A    between atoms: C_13  and  C_19
REMARK   10  A    between atoms: C_14  and  C_20
REMARK                            x       y       z     vdW  Elec       q    Type
REMARK                         _______ _______ _______ _____ _____    ______ ____
ROOT
ATOM      1  C   UNL     1     149.717 151.330 146.070  0.00  0.00    +0.065 C 
ATOM      2  C   UNL     1     148.443 151.687 145.791  0.00  0.00    +0.016 C 
ATOM      3  C   UNL     1     147.777 152.965 146.224  0.00  0.00    +0.061 C 
ATOM      4  N   UNL     1     147.644 150.837 145.041  0.00  0.00    -0.321 N 
ATOM      5  H   UNL     1     146.696 151.139 144.845  0.00  0.00    +0.152 HD
ATOM      6  C   UNL     1     148.012 149.569 144.621  0.00  0.00    +0.016 C 
ATOM      7  C   UNL     1     146.929 148.795 143.917  0.00  0.00    +0.061 C 
ATOM      8  C   UNL     1     149.264 149.123 144.862  0.00  0.00    +0.065 C 
ATOM      9  C   UNL     1     150.307 150.018 145.539  0.00  0.00    +0.102 C 
ENDROOT
BRANCH   9  10
ATOM     10  C   UNL     1     151.429 150.310 144.584  0.00  0.00    +0.042 A 
ATOM     11  C   UNL     1     151.130 150.962 143.391  0.00  0.00    +0.011 A 
ATOM     12  C   UNL     1     152.150 151.248 142.484  0.00  0.00    +0.001 A 
ATOM     13  C   UNL     1     153.464 150.879 142.772  0.00  0.00    +0.007 A 
ATOM     14  C   UNL     1     153.758 150.225 143.970  0.00  0.00    +0.084 A 
ATOM     15  C   UNL     1     152.737 149.940 144.877  0.00  0.00    +0.277 A 
BRANCH  15  16
ATOM     16  N   UNL     1     153.060 149.273 146.091  0.00  0.00    +0.080 N 
ATOM     17  O   UNL     1     153.313 149.960 147.110  0.00  0.00    +0.041 OA
ATOM     18  O   UNL     1     153.084 148.019 146.107  0.00  0.00    -0.576 OA
ENDBRANCH  15  16
ENDBRANCH   9  10
BRANCH   1  19
ATOM     19  C   UNL     1     150.587 152.139 146.938  0.00  0.00    +0.337 C 
ATOM     20  O   UNL     1     150.782 151.888 148.113  0.00  0.00    -0.245 OA
BRANCH  19  21
ATOM     21  O   UNL     1     151.095 153.159 146.204  0.00  0.00    -0.465 OA
ATOM     22  C   UNL     1     152.503 153.373 146.355  0.00  0.00    +0.280 C 
ENDBRANCH  19  21
ENDBRANCH   1  19
BRANCH   8  23
ATOM     23  C   UNL     1     149.685 147.751 144.537  0.00  0.00    +0.337 C 
ATOM     24  O   UNL     1     149.799 146.871 145.370  0.00  0.00    -0.245 OA
BRANCH  23  25
ATOM     25  O   UNL     1     149.902 147.675 143.201  0.00  0.00    -0.465 OA
ATOM     26  C   UNL     1     151.177 147.145 142.823  0.00  0.00    +0.280 C 
ENDBRANCH  23  25
ENDBRANCH   8  23
TORSDOF 6
ENDMDL
MODEL 4
REMARK VINA RESULT:      -6.5      2.325      4.755
REMARK  Name = 4485
REMARK  10 active torsions:
REMARK  status: ('A' for Active; 'I' for Inactive)
REMARK    1  A    between atoms: O_1  and  C_17
REMARK    2  A    between atoms: O_1  and  C_24
REMARK    3  A    between atoms: O_2  and  C_18
REMARK    4  A    between atoms: O_2  and  C_25
REMARK    5  A    between atoms: N_8  and  C_15
REMARK    6  A    between atoms: C_9  and  C_12
REMARK    7  A    between atoms: C_10  and  C_17
REMARK    8  A    between atoms: C_11  and  C_18
REMARK    9  A    between atoms: C_13  and  C_19
REMARK   10  A    between atoms: C_14  and  C_20
REMARK                            x       y       z     vdW  Elec       q    Type
REMARK                         _______ _______ _______ _____ _____    ______ ____
ROOT
ATOM      1  C   UNL     1     150.044 148.817 142.370  0.00  0.00    +0.065 C 
ATOM      2  C   UNL     1     148.790 149.304 142.507  0.00  0.00    +0.016 C 
ATOM      3  C   UNL     1     147.576 148.818 141.762  0.00  0.00    +0.061 C 
ATOM      4  N   UNL     1     148.551 150.336 143.402  0.00  0.00    -0.321 N 
ATOM      5  H   UNL     1     147.599 150.672 143.485  0.00  0.00    +0.152 HD
ATOM      6  C   UNL     1     149.530 151.003 144.121  0.00  0.00    +0.016 C 
ATOM      7  C   UNL     1     149.035 152.164 144.942  0.00  0.00    +0.061 C 
ATOM      8  C   UNL     1     150.815 150.592 144.040  0.00  0.00    +0.065 C 
ATOM      9  C   UNL     1     151.202 149.361 143.215  0.00  0.00    +0.102 C 
ENDROOT
BRANCH   9  10
ATOM     10  C   UNL     1     151.728 148.283 144.119  0.00  0.00    +0.042 A 
ATOM     11  C   UNL     1     150.865 147.732 145.063  0.00  0.00    +0.011 A 
ATOM     12  C   UNL     1     151.323 146.729 145.917  0.00  0.00    +0.001 A 
ATOM     13  C   UNL     1     152.641 146.282 145.825  0.00  0.00    +0.007 A 
ATOM     14  C   UNL     1     153.501 146.838 144.877  0.00  0.00    +0.084 A 
ATOM     15  C   UNL     1     153.043 147.841 144.022  0.00  0.00    +0.277 A 
BRANCH  15  16
ATOM     16  N   UNL     1     153.937 148.391 143.064  0.00  0.00    +0.080 N 
ATOM     17  O   UNL     1     154.557 149.444 143.348  0.00  0.00    +0.041 OA
ATOM     18  O   UNL     1     154.079 147.809 141.962  0.00  0.00    -0.576 OA
ENDBRANCH  15  16
ENDBRANCH   9  10
BRANCH   1  19
ATOM     19  C   UNL     1     150.383 147.790 141.372  0.00  0.00    +0.337 C 
ATOM     20  O   UNL     1     150.907 148.042 140.302  0.00  0.00    -0.245 OA
BRANCH  19  21
ATOM     21  O   UNL     1     150.015 146.581 141.861  0.00  0.00    -0.465 OA
ATOM     22  C   UNL     1     151.055 145.597 141.894  0.00  0.00    +0.280 C 
ENDBRANCH  19  21
ENDBRANCH   1  19
BRANCH   8  23
ATOM     23  C   UNL     1     151.915 151.321 144.692  0.00  0.00    +0.337 C 
ATOM     24  O   UNL     1     152.687 152.045 144.091  0.00  0.00    -0.245 OA
BRANCH  23  25
ATOM     25  O   UNL     1     151.888 151.039 146.017  0.00  0.00    -0.465 OA
ATOM     26  C   UNL     1     153.131 150.588 146.567  0.00  0.00    +0.280 C 
ENDBRANCH  23  25
ENDBRANCH   8  23
TORSDOF 6
ENDMDL
MODEL 5
REMARK VINA RESULT:      -6.4     14.513     16.900
REMARK  Name = 4485
REMARK  10 active torsions:
REMARK  status: ('A' for Active; 'I' for Inactive)
REMARK    1  A    between atoms: O_1  and  C_17
REMARK    2  A    between atoms: O_1  and  C_24
REMARK    3  A    between atoms: O_2  and  C_18
REMARK    4  A    between atoms: O_2  and  C_25
REMARK    5  A    between atoms: N_8  and  C_15
REMARK    6  A    between atoms: C_9  and  C_12
REMARK    7  A    between atoms: C_10  and  C_17
REMARK    8  A    between atoms: C_11  and  C_18
REMARK    9  A    between atoms: C_13  and  C_19
REMARK   10  A    between atoms: C_14  and  C_20
REMARK                            x       y       z     vdW  Elec       q    Type
REMARK                         _______ _______ _______ _____ _____    ______ ____
ROOT
ATOM      1  C   UNL     1     161.607 159.021 138.655  0.00  0.00    +0.065 C 
ATOM      2  C   UNL     1     160.329 159.224 139.051  0.00  0.00    +0.016 C 
ATOM      3  C   UNL     1     159.895 160.118 140.182  0.00  0.00    +0.061 C 
ATOM      4  N   UNL     1     159.297 158.581 138.386  0.00  0.00    -0.321 N 
ATOM      5  H   UNL     1     158.351 158.761 138.704  0.00  0.00    +0.152 HD
ATOM      6  C   UNL     1     159.466 157.640 137.382  0.00  0.00    +0.016 C 
ATOM      7  C   UNL     1     158.195 156.998 136.894  0.00  0.00    +0.061 C 
ATOM      8  C   UNL     1     160.708 157.365 136.928  0.00  0.00    +0.065 C 
ATOM      9  C   UNL     1     161.931 158.119 137.458  0.00  0.00    +0.102 C 
ENDROOT
BRANCH   9  10
ATOM     10  C   UNL     1     162.549 158.933 136.357  0.00  0.00    +0.042 A 
ATOM     11  C   UNL     1     161.795 159.954 135.785  0.00  0.00    +0.011 A 
ATOM     12  C   UNL     1     162.341 160.727 134.761  0.00  0.00    +0.001 A 
ATOM     13  C   UNL     1     163.637 160.475 134.311  0.00  0.00    +0.007 A 
ATOM     14  C   UNL     1     164.388 159.450 134.888  0.00  0.00    +0.084 A 
ATOM     15  C   UNL     1     163.842 158.677 135.913  0.00  0.00    +0.277 A 
BRANCH  15  16
ATOM     16  N   UNL     1     164.626 157.638 136.486  0.00  0.00    +0.080 N 
ATOM     17  O   UNL     1     164.599 156.499 135.962  0.00  0.00    +0.041 OA
ATOM     18  O   UNL     1     165.321 157.891 137.499  0.00  0.00    -0.576 OA
ENDBRANCH  15  16
ENDBRANCH   9  10
BRANCH   1  19
ATOM     19  C   UNL     1     162.753 159.597 139.376  0.00  0.00    +0.337 C 
ATOM     20  O   UNL     1     163.220 160.693 139.126  0.00  0.00    -0.245 OA
BRANCH  19  21
ATOM     21  O   UNL     1     163.156 158.709 140.316  0.00  0.00    -0.465 OA
ATOM     22  C   UNL     1     163.292 159.243 141.638  0.00  0.00    +0.280 C 
ENDBRANCH  19  21
ENDBRANCH   1  19
BRANCH   8  23
ATOM     23  C   UNL     1     160.966 156.303 135.941  0.00  0.00    +0.337 C 
ATOM     24  O   UNL     1     161.378 155.198 136.240  0.00  0.00    -0.245 OA
BRANCH  23  25
ATOM     25  O   UNL     1     160.664 156.781 134.710  0.00  0.00    -0.465 OA
ATOM     26  C   UNL     1     161.597 156.436 133.680  0.00  0.00    +0.280 C 
ENDBRANCH  23  25
ENDBRANCH   8  23
TORSDOF 6
ENDMDL
MODEL 6
REMARK VINA RESULT:      -6.4     15.635     18.376
REMARK  Name = 4485
REMARK  10 active torsions:
REMARK  status: ('A' for Active; 'I' for Inactive)
REMARK    1  A    between atoms: O_1  and  C_17
REMARK    2  A    between atoms: O_1  and  C_24
REMARK    3  A    between atoms: O_2  and  C_18
REMARK    4  A    between atoms: O_2  and  C_25
REMARK    5  A    between atoms: N_8  and  C_15
REMARK    6  A    between atoms: C_9  and  C_12
REMARK    7  A    between atoms: C_10  and  C_17
REMARK    8  A    between atoms: C_11  and  C_18
REMARK    9  A    between atoms: C_13  and  C_19
REMARK   10  A    between atoms: C_14  and  C_20
REMARK                            x       y       z     vdW  Elec       q    Type
REMARK                         _______ _______ _______ _____ _____    ______ ____
ROOT
ATOM      1  C   UNL     1     163.688 160.259 141.673  0.00  0.00    +0.065 C 
ATOM      2  C   UNL     1     162.711 160.652 142.522  0.00  0.00    +0.016 C 
ATOM      3  C   UNL     1     162.923 161.174 143.917  0.00  0.00    +0.061 C 
ATOM      4  N   UNL     1     161.387 160.591 142.115  0.00  0.00    -0.321 N 
ATOM      5  H   UNL     1     160.681 160.900 142.774  0.00  0.00    +0.152 HD
ATOM      6  C   UNL     1     160.950 160.055 140.915  0.00  0.00    +0.016 C 
ATOM      7  C   UNL     1     159.455 159.999 140.751  0.00  0.00    +0.061 C 
ATOM      8  C   UNL     1     161.855 159.628 140.006  0.00  0.00    +0.065 C 
ATOM      9  C   UNL     1     163.359 159.782 140.252  0.00  0.00    +0.102 C 
ENDROOT
BRANCH   9  10
ATOM     10  C   UNL     1     163.949 160.728 139.245  0.00  0.00    +0.042 A 
ATOM     11  C   UNL     1     163.474 162.036 139.208  0.00  0.00    +0.011 A 
ATOM     12  C   UNL     1     164.002 162.938 138.284  0.00  0.00    +0.001 A 
ATOM     13  C   UNL     1     165.000 162.527 137.401  0.00  0.00    +0.007 A 
ATOM     14  C   UNL     1     165.472 161.215 137.443  0.00  0.00    +0.084 A 
ATOM     15  C   UNL     1     164.944 160.313 138.367  0.00  0.00    +0.277 A 
BRANCH  15  16
ATOM     16  N   UNL     1     165.441 158.981 138.392  0.00  0.00    +0.080 N 
ATOM     17  O   UNL     1     164.774 158.075 137.839  0.00  0.00    +0.041 OA
ATOM     18  O   UNL     1     166.532 158.751 138.968  0.00  0.00    -0.576 OA
ENDBRANCH  15  16
ENDBRANCH   9  10
BRANCH   1  19
ATOM     19  C   UNL     1     165.103 160.208 142.073  0.00  0.00    +0.337 C 
ATOM     20  O   UNL     1     165.732 159.171 142.179  0.00  0.00    -0.245 OA
BRANCH  19  21
ATOM     21  O   UNL     1     165.533 161.474 142.286  0.00  0.00    -0.465 OA
ATOM     22  C   UNL     1     166.869 161.586 142.790  0.00  0.00    +0.280 C 
ENDBRANCH  19  21
ENDBRANCH   1  19
BRANCH   8  23
ATOM     23  C   UNL     1     161.457 158.952 138.760  0.00  0.00    +0.337 C 
ATOM     24  O   UNL     1     161.274 159.539 137.710  0.00  0.00    -0.245 OA
BRANCH  23  25
ATOM     25  O   UNL     1     161.347 157.624 139.010  0.00  0.00    -0.465 OA
ATOM     26  C   UNL     1     160.577 156.889 138.053  0.00  0.00    +0.280 C 
ENDBRANCH  23  25
ENDBRANCH   8  23
TORSDOF 6
ENDMDL
MODEL 7
REMARK VINA RESULT:      -6.4      8.043     10.916
REMARK  Name = 4485
REMARK  10 active torsions:
REMARK  status: ('A' for Active; 'I' for Inactive)
REMARK    1  A    between atoms: O_1  and  C_17
REMARK    2  A    between atoms: O_1  and  C_24
REMARK    3  A    between atoms: O_2  and  C_18
REMARK    4  A    between atoms: O_2  and  C_25
REMARK    5  A    between atoms: N_8  and  C_15
REMARK    6  A    between atoms: C_9  and  C_12
REMARK    7  A    between atoms: C_10  and  C_17
REMARK    8  A    between atoms: C_11  and  C_18
REMARK    9  A    between atoms: C_13  and  C_19
REMARK   10  A    between atoms: C_14  and  C_20
REMARK                            x       y       z     vdW  Elec       q    Type
REMARK                         _______ _______ _______ _____ _____    ______ ____
ROOT
ATOM      1  C   UNL     1     152.104 156.380 151.527  0.00  0.00    +0.065 C 
ATOM      2  C   UNL     1     151.700 157.668 151.445  0.00  0.00    +0.016 C 
ATOM      3  C   UNL     1     152.476 158.861 151.933  0.00  0.00    +0.061 C 
ATOM      4  N   UNL     1     150.475 157.964 150.866  0.00  0.00    -0.321 N 
ATOM      5  H   UNL     1     150.207 158.940 150.815  0.00  0.00    +0.152 HD
ATOM      6  C   UNL     1     149.552 157.023 150.439  0.00  0.00    +0.016 C 
ATOM      7  C   UNL     1     148.247 157.591 149.949  0.00  0.00    +0.061 C 
ATOM      8  C   UNL     1     149.865 155.710 150.491  0.00  0.00    +0.065 C 
ATOM      9  C   UNL     1     151.248 155.243 150.957  0.00  0.00    +0.102 C 
ENDROOT
BRANCH   9  10
ATOM     10  C   UNL     1     151.972 154.575 149.823  0.00  0.00    +0.042 A 
ATOM     11  C   UNL     1     152.276 155.332 148.694  0.00  0.00    +0.011 A 
ATOM     12  C   UNL     1     152.948 154.741 147.625  0.00  0.00    +0.001 A 
ATOM     13  C   UNL     1     153.312 153.396 147.688  0.00  0.00    +0.007 A 
ATOM     14  C   UNL     1     153.005 152.642 148.821  0.00  0.00    +0.084 A 
ATOM     15  C   UNL     1     152.333 153.234 149.891  0.00  0.00    +0.277 A 
BRANCH  15  16
ATOM     16  N   UNL     1     152.032 152.446 151.036  0.00  0.00    +0.080 N 
ATOM     17  O   UNL     1     150.870 151.993 151.171  0.00  0.00    +0.041 OA
ATOM     18  O   UNL     1     152.936 152.229 151.878  0.00  0.00    -0.576 OA
ENDBRANCH  15  16
ENDBRANCH   9  10
BRANCH   1  19
ATOM     19  C   UNL     1     153.346 155.988 152.213  0.00  0.00    +0.337 C 
ATOM     20  O   UNL     1     154.392 155.768 151.631  0.00  0.00    -0.245 OA
BRANCH  19  21
ATOM     21  O   UNL     1     153.099 155.929 153.544  0.00  0.00    -0.465 OA
ATOM     22  C   UNL     1     153.468 154.698 154.176  0.00  0.00    +0.280 C 
ENDBRANCH  19  21
ENDBRANCH   1  19
BRANCH   8  23
ATOM     23  C   UNL     1     148.894 154.657 150.153  0.00  0.00    +0.337 C 
ATOM     24  O   UNL     1     148.553 154.402 149.013  0.00  0.00    -0.245 OA
BRANCH  23  25
ATOM     25  O   UNL     1     148.485 154.067 151.303  0.00  0.00    -0.465 OA
ATOM     26  C   UNL     1     147.144 154.373 151.699  0.00  0.00    +0.280 C 
ENDBRANCH  23  25
ENDBRANCH   8  23
TORSDOF 6
ENDMDL
MODEL 8
REMARK VINA RESULT:      -6.2     11.777     14.608
REMARK  Name = 4485
REMARK  10 active torsions:
REMARK  status: ('A' for Active; 'I' for Inactive)
REMARK    1  A    between atoms: O_1  and  C_17
REMARK    2  A    between atoms: O_1  and  C_24
REMARK    3  A    between atoms: O_2  and  C_18
REMARK    4  A    between atoms: O_2  and  C_25
REMARK    5  A    between atoms: N_8  and  C_15
REMARK    6  A    between atoms: C_9  and  C_12
REMARK    7  A    between atoms: C_10  and  C_17
REMARK    8  A    between atoms: C_11  and  C_18
REMARK    9  A    between atoms: C_13  and  C_19
REMARK   10  A    between atoms: C_14  and  C_20
REMARK                            x       y       z     vdW  Elec       q    Type
REMARK                         _______ _______ _______ _____ _____    ______ ____
ROOT
ATOM      1  C   UNL     1     152.118 160.882 146.061  0.00  0.00    +0.065 C 
ATOM      2  C   UNL     1     153.355 160.620 145.580  0.00  0.00    +0.016 C 
ATOM      3  C   UNL     1     153.662 160.030 144.230  0.00  0.00    +0.061 C 
ATOM      4  N   UNL     1     154.466 160.908 146.358  0.00  0.00    -0.321 N 
ATOM      5  H   UNL     1     155.377 160.706 145.965  0.00  0.00    +0.152 HD
ATOM      6  C   UNL     1     154.420 161.362 147.667  0.00  0.00    +0.016 C 
ATOM      7  C   UNL     1     155.760 161.493 148.340  0.00  0.00    +0.061 C 
ATOM      8  C   UNL     1     153.227 161.642 148.235  0.00  0.00    +0.065 C 
ATOM      9  C   UNL     1     151.923 161.526 147.439  0.00  0.00    +0.102 C 
ENDROOT
BRANCH   9  10
ATOM     10  C   UNL     1     151.293 162.881 147.287  0.00  0.00    +0.042 A 
ATOM     11  C   UNL     1     151.995 163.863 146.592  0.00  0.00    +0.011 A 
ATOM     12  C   UNL     1     151.436 165.131 146.433  0.00  0.00    +0.001 A 
ATOM     13  C   UNL     1     150.180 165.412 146.971  0.00  0.00    +0.007 A 
ATOM     14  C   UNL     1     149.482 164.424 147.666  0.00  0.00    +0.084 A 
ATOM     15  C   UNL     1     150.040 163.155 147.824  0.00  0.00    +0.277 A 
BRANCH  15  16
ATOM     16  N   UNL     1     149.310 162.164 148.535  0.00  0.00    +0.080 N 
ATOM     17  O   UNL     1     148.473 161.467 147.914  0.00  0.00    +0.041 OA
ATOM     18  O   UNL     1     149.523 162.017 149.763  0.00  0.00    -0.576 OA
ENDBRANCH  15  16
ENDBRANCH   9  10
BRANCH   1  19
ATOM     19  C   UNL     1     150.896 160.514 145.328  0.00  0.00    +0.337 C 
ATOM     20  O   UNL     1     150.377 161.227 144.489  0.00  0.00    -0.245 OA
BRANCH  19  21
ATOM     21  O   UNL     1     150.494 159.292 145.753  0.00  0.00    -0.465 OA
ATOM     22  C   UNL     1     150.118 158.380 144.714  0.00  0.00    +0.280 C 
ENDBRANCH  19  21
ENDBRANCH   1  19
BRANCH   8  23
ATOM     23  C   UNL     1     153.102 162.025 149.651  0.00  0.00    +0.337 C 
ATOM     24  O   UNL     1     152.847 161.232 150.538  0.00  0.00    -0.245 OA
BRANCH  23  25
ATOM     25  O   UNL     1     153.320 163.359 149.754  0.00  0.00    -0.465 OA
ATOM     26  C   UNL     1     152.351 164.073 150.529  0.00  0.00    +0.280 C 
ENDBRANCH  23  25
ENDBRANCH   8  23
TORSDOF 6
ENDMDL
MODEL 9
REMARK VINA RESULT:      -6.1     23.885     26.143
REMARK  Name = 4485
REMARK  10 active torsions:
REMARK  status: ('A' for Active; 'I' for Inactive)
REMARK    1  A    between atoms: O_1  and  C_17
REMARK    2  A    between atoms: O_1  and  C_24
REMARK    3  A    between atoms: O_2  and  C_18
REMARK    4  A    between atoms: O_2  and  C_25
REMARK    5  A    between atoms: N_8  and  C_15
REMARK    6  A    between atoms: C_9  and  C_12
REMARK    7  A    between atoms: C_10  and  C_17
REMARK    8  A    between atoms: C_11  and  C_18
REMARK    9  A    between atoms: C_13  and  C_19
REMARK   10  A    between atoms: C_14  and  C_20
REMARK                            x       y       z     vdW  Elec       q    Type
REMARK                         _______ _______ _______ _____ _____    ______ ____
ROOT
ATOM      1  C   UNL     1     152.322 172.575 130.688  0.00  0.00    +0.065 C 
ATOM      2  C   UNL     1     151.527 173.169 131.607  0.00  0.00    +0.016 C 
ATOM      3  C   UNL     1     150.380 174.096 131.304  0.00  0.00    +0.061 C 
ATOM      4  N   UNL     1     151.743 172.930 132.956  0.00  0.00    -0.321 N 
ATOM      5  H   UNL     1     151.125 173.386 133.617  0.00  0.00    +0.152 HD
ATOM      6  C   UNL     1     152.797 172.192 133.470  0.00  0.00    +0.016 C 
ATOM      7  C   UNL     1     152.883 172.170 134.973  0.00  0.00    +0.061 C 
ATOM      8  C   UNL     1     153.650 171.569 132.627  0.00  0.00    +0.065 C 
ATOM      9  C   UNL     1     153.437 171.612 131.111  0.00  0.00    +0.102 C 
ENDROOT
BRANCH   9  10
ATOM     10  C   UNL     1     153.144 170.231 130.595  0.00  0.00    +0.042 A 
ATOM     11  C   UNL     1     152.033 169.560 131.097  0.00  0.00    +0.011 A 
ATOM     12  C   UNL     1     151.734 168.277 130.638  0.00  0.00    +0.001 A 
ATOM     13  C   UNL     1     152.548 167.671 129.681  0.00  0.00    +0.007 A 
ATOM     14  C   UNL     1     153.661 168.349 129.181  0.00  0.00    +0.084 A 
ATOM     15  C   UNL     1     153.959 169.633 129.640  0.00  0.00    +0.277 A 
BRANCH  15  16
ATOM     16  N   UNL     1     155.098 170.305 129.117  0.00  0.00    +0.080 N 
ATOM     17  O   UNL     1     155.039 170.783 127.959  0.00  0.00    +0.041 OA
ATOM     18  O   UNL     1     156.127 170.399 129.828  0.00  0.00    -0.576 OA
ENDBRANCH  15  16
ENDBRANCH   9  10
BRANCH   1  19
ATOM     19  C   UNL     1     152.207 172.860 129.249  0.00  0.00    +0.337 C 
ATOM     20  O   UNL     1     152.911 173.665 128.667  0.00  0.00    -0.245 OA
BRANCH  19  21
ATOM     21  O   UNL     1     151.218 172.088 128.738  0.00  0.00    -0.465 OA
ATOM     22  C   UNL     1     151.534 171.433 127.504  0.00  0.00    +0.280 C 
ENDBRANCH  19  21
ENDBRANCH   1  19
BRANCH   8  23
ATOM     23  C   UNL     1     154.848 170.859 133.105  0.00  0.00    +0.337 C 
ATOM     24  O   UNL     1     154.846 169.686 133.428  0.00  0.00    -0.245 OA
BRANCH  23  25
ATOM     25  O   UNL     1     155.888 171.728 133.106  0.00  0.00    -0.465 OA
ATOM     26  C   UNL     1     156.627 171.788 134.330  0.00  0.00    +0.280 C 
ENDBRANCH  23  25
ENDBRANCH   8  23
TORSDOF 6
ENDMDL
MODEL 10
REMARK VINA RESULT:      -6.0      9.249     11.876
REMARK  Name = 4485
REMARK  10 active torsions:
REMARK  status: ('A' for Active; 'I' for Inactive)
REMARK    1  A    between atoms: O_1  and  C_17
REMARK    2  A    between atoms: O_1  and  C_24
REMARK    3  A    between atoms: O_2  and  C_18
REMARK    4  A    between atoms: O_2  and  C_25
REMARK    5  A    between atoms: N_8  and  C_15
REMARK    6  A    between atoms: C_9  and  C_12
REMARK    7  A    between atoms: C_10  and  C_17
REMARK    8  A    between atoms: C_11  and  C_18
REMARK    9  A    between atoms: C_13  and  C_19
REMARK   10  A    between atoms: C_14  and  C_20
REMARK                            x       y       z     vdW  Elec       q    Type
REMARK                         _______ _______ _______ _____ _____    ______ ____
ROOT
ATOM      1  C   UNL     1     153.884 155.009 151.182  0.00  0.00    +0.065 C 
ATOM      2  C   UNL     1     153.412 153.871 150.623  0.00  0.00    +0.016 C 
ATOM      3  C   UNL     1     153.180 152.572 151.347  0.00  0.00    +0.061 C 
ATOM      4  N   UNL     1     153.097 153.851 149.273  0.00  0.00    -0.321 N 
ATOM      5  H   UNL     1     152.740 152.984 148.889  0.00  0.00    +0.152 HD
ATOM      6  C   UNL     1     153.322 154.897 148.392  0.00  0.00    +0.016 C 
ATOM      7  C   UNL     1     153.000 154.594 146.953  0.00  0.00    +0.061 C 
ATOM      8  C   UNL     1     153.800 156.071 148.858  0.00  0.00    +0.065 C 
ATOM      9  C   UNL     1     154.041 156.291 150.355  0.00  0.00    +0.102 C 
ENDROOT
BRANCH   9  10
ATOM     10  C   UNL     1     153.114 157.352 150.873  0.00  0.00    +0.042 A 
ATOM     11  C   UNL     1     151.743 157.168 150.715  0.00  0.00    +0.011 A 
ATOM     12  C   UNL     1     150.855 158.135 151.187  0.00  0.00    +0.001 A 
ATOM     13  C   UNL     1     151.343 159.283 151.812  0.00  0.00    +0.007 A 
ATOM     14  C   UNL     1     152.718 159.463 151.968  0.00  0.00    +0.084 A 
ATOM     15  C   UNL     1     153.605 158.494 151.496  0.00  0.00    +0.277 A 
BRANCH  15  16
ATOM     16  N   UNL     1     155.002 158.698 151.667  0.00  0.00    +0.080 N 
ATOM     17  O   UNL     1     155.650 159.252 150.747  0.00  0.00    +0.041 OA
ATOM     18  O   UNL     1     155.545 158.318 152.732  0.00  0.00    -0.576 OA
ENDBRANCH  15  16
ENDBRANCH   9  10
BRANCH   1  19
ATOM     19  C   UNL     1     154.326 155.071 152.584  0.00  0.00    +0.337 C 
ATOM     20  O   UNL     1     155.495 155.030 152.920  0.00  0.00    -0.245 OA
BRANCH  19  21
ATOM     21  O   UNL     1     153.230 155.177 153.373  0.00  0.00    -0.465 OA
ATOM     22  C   UNL     1     153.353 154.576 154.667  0.00  0.00    +0.280 C 
ENDBRANCH  19  21
ENDBRANCH   1  19
BRANCH   8  23
ATOM     23  C   UNL     1     154.160 157.183 147.963  0.00  0.00    +0.337 C 
ATOM     24  O   UNL     1     153.340 157.847 147.357  0.00  0.00    -0.245 OA
BRANCH  23  25
ATOM     25  O   UNL     1     155.510 157.308 147.957  0.00  0.00    -0.465 OA
ATOM     26  C   UNL     1     156.007 158.489 147.319  0.00  0.00    +0.280 C 
ENDBRANCH  23  25
ENDBRANCH   8  23
TORSDOF 6
ENDMDL
