MODEL 1
REMARK VINA RESULT:      -9.0      0.000      0.000
REMARK  Name = 5320623
REMARK  11 active torsions:
REMARK  status: ('A' for Active; 'I' for Inactive)
REMARK    1  A    between atoms: O_2  and  C_16
REMARK    2  A    between atoms: O_2  and  C_18
REMARK    3  A    between atoms: O_3  and  C_12
REMARK    4  A    between atoms: O_4  and  C_13
REMARK    5  A    between atoms: O_5  and  C_14
REMARK    6  A    between atoms: O_6  and  C_17
REMARK    7  A    between atoms: O_8  and  C_20
REMARK    8  A    between atoms: O_9  and  C_23
REMARK    9  A    between atoms: O_11  and  C_32
REMARK   10  A    between atoms: C_15  and  C_17
REMARK   11  A    between atoms: C_25  and  C_27
REMARK                            x       y       z     vdW  Elec       q    Type
REMARK                         _______ _______ _______ _____ _____    ______ ____
ROOT
ATOM      7  O   UNL     1     152.611 151.743 147.464  0.00  0.00    +0.000 OA
ATOM     10  O   UNL     1     149.618 154.322 146.469  0.00  0.00    +0.000 OA
ATOM     18  C   UNL     1     151.876 153.061 150.782  0.00  0.00    +0.000 A 
ATOM     19  C   UNL     1     152.456 152.326 149.748  0.00  0.00    +0.000 A 
ATOM     20  C   UNL     1     150.845 153.961 150.508  0.00  0.00    +0.000 A 
ATOM     21  C   UNL     1     152.003 152.493 148.439  0.00  0.00    +0.000 A 
ATOM     22  C   UNL     1     150.973 153.393 148.168  0.00  0.00    +0.000 A 
ATOM     23  C   UNL     1     150.390 154.130 149.200  0.00  0.00    +0.000 A 
ATOM     24  C   UNL     1     150.515 153.549 146.779  0.00  0.00    +0.000 A 
ATOM     25  C   UNL     1     152.176 151.882 146.156  0.00  0.00    +0.000 A 
ATOM     26  C   UNL     1     151.200 152.719 145.769  0.00  0.00    +0.000 A 
ENDROOT
BRANCH  25  27
ATOM     27  C   UNL     1     152.902 151.035 145.188  0.00  0.00    +0.000 A 
ATOM     28  C   UNL     1     153.240 151.537 143.930  0.00  0.00    +0.000 A 
ATOM     29  C   UNL     1     153.252 149.725 145.528  0.00  0.00    +0.000 A 
ATOM     30  C   UNL     1     153.926 150.736 143.017  0.00  0.00    +0.000 A 
ATOM     31  C   UNL     1     153.938 148.924 144.615  0.00  0.00    +0.000 A 
ATOM     32  C   UNL     1     154.273 149.429 143.359  0.00  0.00    +0.000 A 
BRANCH  32  11
ATOM     11  O   UNL     1     154.943 148.647 142.467  0.00  0.00    +0.000 OA
ATOM     39  H   UNL     1     154.775 148.979 141.569  0.00  0.00    +0.000 HD
ENDBRANCH  32  11
ENDBRANCH  25  27
BRANCH  20   8
ATOM      8  O   UNL     1     150.284 154.676 151.526  0.00  0.00    +0.000 OA
ATOM     37  H   UNL     1     149.398 154.966 151.245  0.00  0.00    +0.000 HD
ENDBRANCH  20   8
BRANCH  23   9
ATOM      9  O   UNL     1     149.381 155.018 148.974  0.00  0.00    +0.000 OA
ATOM     38  H   UNL     1     149.729 155.854 148.627  0.00  0.00    +0.000 HD
ENDBRANCH  23   9
BRANCH  18   2
ATOM      2  O   UNL     1     152.327 152.889 152.059  0.00  0.00    +0.000 OA
BRANCH   2  16
ATOM      1  O   UNL     1     152.801 155.156 152.349  0.00  0.00    +0.000 OA
ATOM     12  C   UNL     1     155.621 154.689 152.054  0.00  0.00    +0.000 C 
ATOM     13  C   UNL     1     155.012 156.091 152.008  0.00  0.00    +0.000 C 
ATOM     14  C   UNL     1     154.577 153.622 151.721  0.00  0.00    +0.000 C 
ATOM     15  C   UNL     1     153.715 156.147 152.820  0.00  0.00    +0.000 C 
ATOM     16  C   UNL     1     153.294 153.830 152.526  0.00  0.00    +0.000 C 
BRANCH  12   3
ATOM      3  O   UNL     1     156.679 154.636 151.095  0.00  0.00    +0.000 OA
ATOM     33  H   UNL     1     157.449 155.082 151.487  0.00  0.00    +0.000 HD
ENDBRANCH  12   3
BRANCH  13   4
ATOM      4  O   UNL     1     155.944 157.027 152.543  0.00  0.00    +0.000 OA
ATOM     34  H   UNL     1     155.968 157.798 151.951  0.00  0.00    +0.000 HD
ENDBRANCH  13   4
BRANCH  14   5
ATOM      5  O   UNL     1     155.101 152.333 152.040  0.00  0.00    +0.000 OA
ATOM     35  H   UNL     1     155.855 152.453 152.642  0.00  0.00    +0.000 HD
ENDBRANCH  14   5
BRANCH  15  17
ATOM     17  C   UNL     1     153.028 157.503 152.694  0.00  0.00    +0.000 C 
BRANCH  17   6
ATOM      6  O   UNL     1     151.884 157.355 151.873  0.00  0.00    +0.000 OA
ATOM     36  H   UNL     1     151.364 156.613 152.225  0.00  0.00    +0.000 HD
ENDBRANCH  17   6
ENDBRANCH  15  17
ENDBRANCH   2  16
ENDBRANCH  18   2
TORSDOF 11
ENDMDL
MODEL 2
REMARK VINA RESULT:      -9.0      2.852      6.005
REMARK  Name = 5320623
REMARK  11 active torsions:
REMARK  status: ('A' for Active; 'I' for Inactive)
REMARK    1  A    between atoms: O_2  and  C_16
REMARK    2  A    between atoms: O_2  and  C_18
REMARK    3  A    between atoms: O_3  and  C_12
REMARK    4  A    between atoms: O_4  and  C_13
REMARK    5  A    between atoms: O_5  and  C_14
REMARK    6  A    between atoms: O_6  and  C_17
REMARK    7  A    between atoms: O_8  and  C_20
REMARK    8  A    between atoms: O_9  and  C_23
REMARK    9  A    between atoms: O_11  and  C_32
REMARK   10  A    between atoms: C_15  and  C_17
REMARK   11  A    between atoms: C_25  and  C_27
REMARK                            x       y       z     vdW  Elec       q    Type
REMARK                         _______ _______ _______ _____ _____    ______ ____
ROOT
ATOM      7  O   UNL     1     149.529 154.598 148.460  0.00  0.00    +0.000 OA
ATOM     10  O   UNL     1     149.352 151.561 145.748  0.00  0.00    +0.000 OA
ATOM     18  C   UNL     1     153.004 153.509 148.604  0.00  0.00    +0.000 A 
ATOM     19  C   UNL     1     151.826 154.215 148.851  0.00  0.00    +0.000 A 
ATOM     20  C   UNL     1     153.011 152.458 147.686  0.00  0.00    +0.000 A 
ATOM     21  C   UNL     1     150.655 153.868 148.176  0.00  0.00    +0.000 A 
ATOM     22  C   UNL     1     150.665 152.818 147.259  0.00  0.00    +0.000 A 
ATOM     23  C   UNL     1     151.842 152.108 147.010  0.00  0.00    +0.000 A 
ATOM     24  C   UNL     1     149.417 152.472 146.563  0.00  0.00    +0.000 A 
ATOM     25  C   UNL     1     148.353 154.280 147.798  0.00  0.00    +0.000 A 
ATOM     26  C   UNL     1     148.234 153.289 146.901  0.00  0.00    +0.000 A 
ENDROOT
BRANCH  25  27
ATOM     27  C   UNL     1     147.202 155.123 148.183  0.00  0.00    +0.000 A 
ATOM     28  C   UNL     1     147.347 156.101 149.169  0.00  0.00    +0.000 A 
ATOM     29  C   UNL     1     145.963 154.944 147.563  0.00  0.00    +0.000 A 
ATOM     30  C   UNL     1     146.260 156.897 149.532  0.00  0.00    +0.000 A 
ATOM     31  C   UNL     1     144.876 155.739 147.926  0.00  0.00    +0.000 A 
ATOM     32  C   UNL     1     145.025 156.715 148.911  0.00  0.00    +0.000 A 
BRANCH  32  11
ATOM     11  O   UNL     1     143.964 157.491 149.265  0.00  0.00    +0.000 OA
ATOM     39  H   UNL     1     144.203 158.426 149.144  0.00  0.00    +0.000 HD
ENDBRANCH  32  11
ENDBRANCH  25  27
BRANCH  20   8
ATOM      8  O   UNL     1     154.168 151.772 147.452  0.00  0.00    +0.000 OA
ATOM     37  H   UNL     1     154.015 150.834 147.659  0.00  0.00    +0.000 HD
ENDBRANCH  20   8
BRANCH  23   9
ATOM      9  O   UNL     1     151.890 151.077 146.120  0.00  0.00    +0.000 OA
ATOM     38  H   UNL     1     151.724 151.393 145.218  0.00  0.00    +0.000 HD
ENDBRANCH  23   9
BRANCH  18   2
ATOM      2  O   UNL     1     154.144 153.857 149.270  0.00  0.00    +0.000 OA
BRANCH   2  16
ATOM      1  O   UNL     1     154.129 156.061 150.038  0.00  0.00    +0.000 OA
ATOM     12  C   UNL     1     155.052 155.249 152.635  0.00  0.00    +0.000 C 
ATOM     13  C   UNL     1     155.047 156.711 152.186  0.00  0.00    +0.000 C 
ATOM     14  C   UNL     1     155.054 154.302 151.435  0.00  0.00    +0.000 C 
ATOM     15  C   UNL     1     153.957 156.954 151.139  0.00  0.00    +0.000 C 
ATOM     16  C   UNL     1     153.984 154.693 150.415  0.00  0.00    +0.000 C 
BRANCH  12   3
ATOM      3  O   UNL     1     156.227 155.032 153.416  0.00  0.00    +0.000 OA
ATOM     33  H   UNL     1     156.226 155.689 154.132  0.00  0.00    +0.000 HD
ENDBRANCH  12   3
BRANCH  13   4
ATOM      4  O   UNL     1     154.812 157.550 153.313  0.00  0.00    +0.000 OA
ATOM     34  H   UNL     1     154.793 156.988 154.107  0.00  0.00    +0.000 HD
ENDBRANCH  13   4
BRANCH  14   5
ATOM      5  O   UNL     1     154.782 152.974 151.881  0.00  0.00    +0.000 OA
ATOM     35  H   UNL     1     154.039 153.010 152.506  0.00  0.00    +0.000 HD
ENDBRANCH  14   5
BRANCH  15  17
ATOM     17  C   UNL     1     154.008 158.376 150.589  0.00  0.00    +0.000 C 
BRANCH  17   6
ATOM      6  O   UNL     1     155.201 158.991 151.037  0.00  0.00    +0.000 OA
ATOM     36  H   UNL     1     155.770 159.131 150.261  0.00  0.00    +0.000 HD
ENDBRANCH  17   6
ENDBRANCH  15  17
ENDBRANCH   2  16
ENDBRANCH  18   2
TORSDOF 11
ENDMDL
MODEL 3
REMARK VINA RESULT:      -8.9      3.814      7.325
REMARK  Name = 5320623
REMARK  11 active torsions:
REMARK  status: ('A' for Active; 'I' for Inactive)
REMARK    1  A    between atoms: O_2  and  C_16
REMARK    2  A    between atoms: O_2  and  C_18
REMARK    3  A    between atoms: O_3  and  C_12
REMARK    4  A    between atoms: O_4  and  C_13
REMARK    5  A    between atoms: O_5  and  C_14
REMARK    6  A    between atoms: O_6  and  C_17
REMARK    7  A    between atoms: O_8  and  C_20
REMARK    8  A    between atoms: O_9  and  C_23
REMARK    9  A    between atoms: O_11  and  C_32
REMARK   10  A    between atoms: C_15  and  C_17
REMARK   11  A    between atoms: C_25  and  C_27
REMARK                            x       y       z     vdW  Elec       q    Type
REMARK                         _______ _______ _______ _____ _____    ______ ____
ROOT
ATOM      7  O   UNL     1     149.990 157.518 149.604  0.00  0.00    +0.000 OA
ATOM     10  O   UNL     1     149.866 160.694 152.153  0.00  0.00    +0.000 OA
ATOM     18  C   UNL     1     153.536 157.726 150.421  0.00  0.00    +0.000 A 
ATOM     19  C   UNL     1     152.329 157.308 149.861  0.00  0.00    +0.000 A 
ATOM     20  C   UNL     1     153.562 158.807 151.304  0.00  0.00    +0.000 A 
ATOM     21  C   UNL     1     151.147 157.974 150.186  0.00  0.00    +0.000 A 
ATOM     22  C   UNL     1     151.174 159.054 151.067  0.00  0.00    +0.000 A 
ATOM     23  C   UNL     1     152.382 159.476 151.629  0.00  0.00    +0.000 A 
ATOM     24  C   UNL     1     149.914 159.739 151.391  0.00  0.00    +0.000 A 
ATOM     25  C   UNL     1     148.799 158.156 149.914  0.00  0.00    +0.000 A 
ATOM     26  C   UNL     1     148.698 159.209 150.742  0.00  0.00    +0.000 A 
ENDROOT
BRANCH  25  27
ATOM     27  C   UNL     1     147.620 157.589 149.230  0.00  0.00    +0.000 A 
ATOM     28  C   UNL     1     146.667 156.869 149.953  0.00  0.00    +0.000 A 
ATOM     29  C   UNL     1     147.453 157.770 147.854  0.00  0.00    +0.000 A 
ATOM     30  C   UNL     1     145.553 156.333 149.306  0.00  0.00    +0.000 A 
ATOM     31  C   UNL     1     146.340 157.235 147.207  0.00  0.00    +0.000 A 
ATOM     32  C   UNL     1     145.390 156.516 147.933  0.00  0.00    +0.000 A 
BRANCH  32  11
ATOM     11  O   UNL     1     144.303 155.993 147.301  0.00  0.00    +0.000 OA
ATOM     39  H   UNL     1     144.052 155.164 147.741  0.00  0.00    +0.000 HD
ENDBRANCH  32  11
ENDBRANCH  25  27
BRANCH  20   8
ATOM      8  O   UNL     1     154.748 159.209 151.846  0.00  0.00    +0.000 OA
ATOM     37  H   UNL     1     155.265 159.658 151.154  0.00  0.00    +0.000 HD
ENDBRANCH  20   8
BRANCH  23   9
ATOM      9  O   UNL     1     152.448 160.526 152.495  0.00  0.00    +0.000 OA
ATOM     38  H   UNL     1     153.155 160.391 153.146  0.00  0.00    +0.000 HD
ENDBRANCH  23   9
BRANCH  18   2
ATOM      2  O   UNL     1     154.687 157.067 150.098  0.00  0.00    +0.000 OA
BRANCH   2  16
ATOM      1  O   UNL     1     153.784 154.915 150.149  0.00  0.00    +0.000 OA
ATOM     12  C   UNL     1     154.801 154.462 152.798  0.00  0.00    +0.000 C 
ATOM     13  C   UNL     1     153.763 153.545 152.150  0.00  0.00    +0.000 C 
ATOM     14  C   UNL     1     154.796 155.848 152.151  0.00  0.00    +0.000 C 
ATOM     15  C   UNL     1     153.891 153.572 150.625  0.00  0.00    +0.000 C 
ATOM     16  C   UNL     1     154.838 155.750 150.626  0.00  0.00    +0.000 C 
BRANCH  12   3
ATOM      3  O   UNL     1     154.479 154.583 154.184  0.00  0.00    +0.000 OA
ATOM     33  H   UNL     1     154.679 153.729 154.605  0.00  0.00    +0.000 HD
ENDBRANCH  12   3
BRANCH  13   4
ATOM      4  O   UNL     1     153.955 152.213 152.615  0.00  0.00    +0.000 OA
ATOM     34  H   UNL     1     154.674 151.813 152.095  0.00  0.00    +0.000 HD
ENDBRANCH  13   4
BRANCH  14   5
ATOM      5  O   UNL     1     155.945 156.576 152.584  0.00  0.00    +0.000 OA
ATOM     35  H   UNL     1     155.646 157.430 152.937  0.00  0.00    +0.000 HD
ENDBRANCH  14   5
BRANCH  15  17
ATOM     17  C   UNL     1     152.793 152.758 149.950  0.00  0.00    +0.000 C 
BRANCH  17   6
ATOM      6  O   UNL     1     153.307 151.477 149.636  0.00  0.00    +0.000 OA
ATOM     36  H   UNL     1     152.662 150.817 149.942  0.00  0.00    +0.000 HD
ENDBRANCH  17   6
ENDBRANCH  15  17
ENDBRANCH   2  16
ENDBRANCH  18   2
TORSDOF 11
ENDMDL
MODEL 4
REMARK VINA RESULT:      -8.8      5.208      7.894
REMARK  Name = 5320623
REMARK  11 active torsions:
REMARK  status: ('A' for Active; 'I' for Inactive)
REMARK    1  A    between atoms: O_2  and  C_16
REMARK    2  A    between atoms: O_2  and  C_18
REMARK    3  A    between atoms: O_3  and  C_12
REMARK    4  A    between atoms: O_4  and  C_13
REMARK    5  A    between atoms: O_5  and  C_14
REMARK    6  A    between atoms: O_6  and  C_17
REMARK    7  A    between atoms: O_8  and  C_20
REMARK    8  A    between atoms: O_9  and  C_23
REMARK    9  A    between atoms: O_11  and  C_32
REMARK   10  A    between atoms: C_15  and  C_17
REMARK   11  A    between atoms: C_25  and  C_27
REMARK                            x       y       z     vdW  Elec       q    Type
REMARK                         _______ _______ _______ _____ _____    ______ ____
ROOT
ATOM      7  O   UNL     1     151.827 159.798 147.236  0.00  0.00    +0.000 OA
ATOM     10  O   UNL     1     154.985 162.065 146.012  0.00  0.00    +0.000 OA
ATOM     18  C   UNL     1     154.128 159.086 149.972  0.00  0.00    +0.000 A 
ATOM     19  C   UNL     1     152.991 159.084 149.163  0.00  0.00    +0.000 A 
ATOM     20  C   UNL     1     155.243 159.843 149.610  0.00  0.00    +0.000 A 
ATOM     21  C   UNL     1     152.973 159.840 147.991  0.00  0.00    +0.000 A 
ATOM     22  C   UNL     1     154.088 160.595 147.631  0.00  0.00    +0.000 A 
ATOM     23  C   UNL     1     155.228 160.600 148.438  0.00  0.00    +0.000 A 
ATOM     24  C   UNL     1     154.042 161.382 146.390  0.00  0.00    +0.000 A 
ATOM     25  C   UNL     1     151.777 160.547 146.070  0.00  0.00    +0.000 A 
ATOM     26  C   UNL     1     152.787 161.306 145.615  0.00  0.00    +0.000 A 
ENDROOT
BRANCH  25  27
ATOM     27  C   UNL     1     150.503 160.424 145.333  0.00  0.00    +0.000 A 
ATOM     28  C   UNL     1     149.293 160.367 146.028  0.00  0.00    +0.000 A 
ATOM     29  C   UNL     1     150.504 160.363 143.937  0.00  0.00    +0.000 A 
ATOM     30  C   UNL     1     148.090 160.251 145.331  0.00  0.00    +0.000 A 
ATOM     31  C   UNL     1     149.301 160.247 143.241  0.00  0.00    +0.000 A 
ATOM     32  C   UNL     1     148.094 160.190 143.938  0.00  0.00    +0.000 A 
BRANCH  32  11
ATOM     11  O   UNL     1     146.920 160.077 143.258  0.00  0.00    +0.000 OA
ATOM     39  H   UNL     1     147.009 160.523 142.399  0.00  0.00    +0.000 HD
ENDBRANCH  32  11
ENDBRANCH  25  27
BRANCH  20   8
ATOM      8  O   UNL     1     156.351 159.838 150.407  0.00  0.00    +0.000 OA
ATOM     37  H   UNL     1     156.527 160.751 150.693  0.00  0.00    +0.000 HD
ENDBRANCH  20   8
BRANCH  23   9
ATOM      9  O   UNL     1     156.336 161.326 148.120  0.00  0.00    +0.000 OA
ATOM     38  H   UNL     1     156.365 161.510 147.168  0.00  0.00    +0.000 HD
ENDBRANCH  23   9
BRANCH  18   2
ATOM      2  O   UNL     1     154.135 158.343 151.117  0.00  0.00    +0.000 OA
BRANCH   2  16
ATOM      1  O   UNL     1     153.907 156.095 150.532  0.00  0.00    +0.000 OA
ATOM     12  C   UNL     1     155.823 155.298 152.519  0.00  0.00    +0.000 C 
ATOM     13  C   UNL     1     154.913 154.295 151.808  0.00  0.00    +0.000 C 
ATOM     14  C   UNL     1     155.236 156.709 152.470  0.00  0.00    +0.000 C 
ATOM     15  C   UNL     1     154.518 154.809 150.421  0.00  0.00    +0.000 C 
ATOM     16  C   UNL     1     154.796 157.080 151.053  0.00  0.00    +0.000 C 
BRANCH  12   3
ATOM      3  O   UNL     1     155.957 154.884 153.879  0.00  0.00    +0.000 OA
ATOM     33  H   UNL     1     155.697 153.949 153.926  0.00  0.00    +0.000 HD
ENDBRANCH  12   3
BRANCH  13   4
ATOM      4  O   UNL     1     155.595 153.052 151.673  0.00  0.00    +0.000 OA
ATOM     34  H   UNL     1     156.469 153.142 152.090  0.00  0.00    +0.000 HD
ENDBRANCH  13   4
BRANCH  14   5
ATOM      5  O   UNL     1     156.226 157.647 152.891  0.00  0.00    +0.000 OA
ATOM     35  H   UNL     1     155.778 158.371 153.358  0.00  0.00    +0.000 HD
ENDBRANCH  14   5
BRANCH  15  17
ATOM     17  C   UNL     1     153.517 153.882 149.739  0.00  0.00    +0.000 C 
BRANCH  17   6
ATOM      6  O   UNL     1     154.230 152.858 149.072  0.00  0.00    +0.000 OA
ATOM     36  H   UNL     1     154.631 152.288 149.751  0.00  0.00    +0.000 HD
ENDBRANCH  17   6
ENDBRANCH  15  17
ENDBRANCH   2  16
ENDBRANCH  18   2
TORSDOF 11
ENDMDL
MODEL 5
REMARK VINA RESULT:      -8.7      8.777     13.294
REMARK  Name = 5320623
REMARK  11 active torsions:
REMARK  status: ('A' for Active; 'I' for Inactive)
REMARK    1  A    between atoms: O_2  and  C_16
REMARK    2  A    between atoms: O_2  and  C_18
REMARK    3  A    between atoms: O_3  and  C_12
REMARK    4  A    between atoms: O_4  and  C_13
REMARK    5  A    between atoms: O_5  and  C_14
REMARK    6  A    between atoms: O_6  and  C_17
REMARK    7  A    between atoms: O_8  and  C_20
REMARK    8  A    between atoms: O_9  and  C_23
REMARK    9  A    between atoms: O_11  and  C_32
REMARK   10  A    between atoms: C_15  and  C_17
REMARK   11  A    between atoms: C_25  and  C_27
REMARK                            x       y       z     vdW  Elec       q    Type
REMARK                         _______ _______ _______ _____ _____    ______ ____
ROOT
ATOM      7  O   UNL     1     152.185 166.363 149.604  0.00  0.00    +0.000 OA
ATOM     10  O   UNL     1     151.360 166.571 153.588  0.00  0.00    +0.000 OA
ATOM     18  C   UNL     1     152.217 162.801 150.373  0.00  0.00    +0.000 A 
ATOM     19  C   UNL     1     152.296 164.005 149.673  0.00  0.00    +0.000 A 
ATOM     20  C   UNL     1     151.935 162.802 151.740  0.00  0.00    +0.000 A 
ATOM     21  C   UNL     1     152.094 165.211 150.344  0.00  0.00    +0.000 A 
ATOM     22  C   UNL     1     151.814 165.211 151.710  0.00  0.00    +0.000 A 
ATOM     23  C   UNL     1     151.734 164.007 152.414  0.00  0.00    +0.000 A 
ATOM     24  C   UNL     1     151.607 166.497 152.392  0.00  0.00    +0.000 A 
ATOM     25  C   UNL     1     151.981 167.576 150.242  0.00  0.00    +0.000 A 
ATOM     26  C   UNL     1     151.712 167.706 151.551  0.00  0.00    +0.000 A 
ENDROOT
BRANCH  25  27
ATOM     27  C   UNL     1     152.108 168.750 149.355  0.00  0.00    +0.000 A 
ATOM     28  C   UNL     1     152.111 168.584 147.968  0.00  0.00    +0.000 A 
ATOM     29  C   UNL     1     152.229 170.031 149.899  0.00  0.00    +0.000 A 
ATOM     30  C   UNL     1     152.232 169.693 147.130  0.00  0.00    +0.000 A 
ATOM     31  C   UNL     1     152.350 171.140 149.062  0.00  0.00    +0.000 A 
ATOM     32  C   UNL     1     152.352 170.971 147.677  0.00  0.00    +0.000 A 
BRANCH  32  11
ATOM     11  O   UNL     1     152.469 172.053 146.859  0.00  0.00    +0.000 OA
ATOM     39  H   UNL     1     152.540 172.854 147.406  0.00  0.00    +0.000 HD
ENDBRANCH  32  11
ENDBRANCH  25  27
BRANCH  20   8
ATOM      8  O   UNL     1     151.860 161.619 152.417  0.00  0.00    +0.000 OA
ATOM     37  H   UNL     1     152.712 161.466 152.861  0.00  0.00    +0.000 HD
ENDBRANCH  20   8
BRANCH  23   9
ATOM      9  O   UNL     1     151.460 163.967 153.748  0.00  0.00    +0.000 OA
ATOM     38  H   UNL     1     151.900 164.697 154.212  0.00  0.00    +0.000 HD
ENDBRANCH  23   9
BRANCH  18   2
ATOM      2  O   UNL     1     152.415 161.626 149.707  0.00  0.00    +0.000 OA
BRANCH   2  16
ATOM      1  O   UNL     1     154.072 161.458 148.072  0.00  0.00    +0.000 OA
ATOM     12  C   UNL     1     155.324 159.268 149.446  0.00  0.00    +0.000 C 
ATOM     13  C   UNL     1     155.676 159.641 148.006  0.00  0.00    +0.000 C 
ATOM     14  C   UNL     1     153.937 159.787 149.829  0.00  0.00    +0.000 C 
ATOM     15  C   UNL     1     155.426 161.130 147.754  0.00  0.00    +0.000 C 
ATOM     16  C   UNL     1     153.770 161.259 149.451  0.00  0.00    +0.000 C 
BRANCH  12   3
ATOM      3  O   UNL     1     155.345 157.844 149.551  0.00  0.00    +0.000 OA
ATOM     33  H   UNL     1     155.667 157.495 148.702  0.00  0.00    +0.000 HD
ENDBRANCH  12   3
BRANCH  13   4
ATOM      4  O   UNL     1     157.049 159.347 147.765  0.00  0.00    +0.000 OA
ATOM     34  H   UNL     1     157.097 158.488 147.311  0.00  0.00    +0.000 HD
ENDBRANCH  13   4
BRANCH  14   5
ATOM      5  O   UNL     1     153.760 159.665 151.240  0.00  0.00    +0.000 OA
ATOM     35  H   UNL     1     153.578 158.732 151.443  0.00  0.00    +0.000 HD
ENDBRANCH  14   5
BRANCH  15  17
ATOM     17  C   UNL     1     155.658 161.503 146.294  0.00  0.00    +0.000 C 
BRANCH  17   6
ATOM      6  O   UNL     1     155.532 160.336 145.503  0.00  0.00    +0.000 OA
ATOM     36  H   UNL     1     155.387 160.618 144.583  0.00  0.00    +0.000 HD
ENDBRANCH  17   6
ENDBRANCH  15  17
ENDBRANCH   2  16
ENDBRANCH  18   2
TORSDOF 11
ENDMDL
MODEL 6
REMARK VINA RESULT:      -8.6      4.424      6.127
REMARK  Name = 5320623
REMARK  11 active torsions:
REMARK  status: ('A' for Active; 'I' for Inactive)
REMARK    1  A    between atoms: O_2  and  C_16
REMARK    2  A    between atoms: O_2  and  C_18
REMARK    3  A    between atoms: O_3  and  C_12
REMARK    4  A    between atoms: O_4  and  C_13
REMARK    5  A    between atoms: O_5  and  C_14
REMARK    6  A    between atoms: O_6  and  C_17
REMARK    7  A    between atoms: O_8  and  C_20
REMARK    8  A    between atoms: O_9  and  C_23
REMARK    9  A    between atoms: O_11  and  C_32
REMARK   10  A    between atoms: C_15  and  C_17
REMARK   11  A    between atoms: C_25  and  C_27
REMARK                            x       y       z     vdW  Elec       q    Type
REMARK                         _______ _______ _______ _____ _____    ______ ____
ROOT
ATOM      7  O   UNL     1     149.943 157.821 147.155  0.00  0.00    +0.000 OA
ATOM     10  O   UNL     1     146.373 155.876 147.421  0.00  0.00    +0.000 OA
ATOM     18  C   UNL     1     150.348 156.350 150.464  0.00  0.00    +0.000 A 
ATOM     19  C   UNL     1     150.598 157.069 149.295  0.00  0.00    +0.000 A 
ATOM     20  C   UNL     1     149.144 155.660 150.618  0.00  0.00    +0.000 A 
ATOM     21  C   UNL     1     149.641 157.097 148.280  0.00  0.00    +0.000 A 
ATOM     22  C   UNL     1     148.440 156.407 148.436  0.00  0.00    +0.000 A 
ATOM     23  C   UNL     1     148.185 155.687 149.605  0.00  0.00    +0.000 A 
ATOM     24  C   UNL     1     147.449 156.455 147.351  0.00  0.00    +0.000 A 
ATOM     25  C   UNL     1     149.015 157.860 146.126  0.00  0.00    +0.000 A 
ATOM     26  C   UNL     1     147.822 157.245 146.160  0.00  0.00    +0.000 A 
ENDROOT
BRANCH  25  27
ATOM     27  C   UNL     1     149.438 158.671 144.966  0.00  0.00    +0.000 A 
ATOM     28  C   UNL     1     149.612 160.050 145.100  0.00  0.00    +0.000 A 
ATOM     29  C   UNL     1     149.664 158.062 143.729  0.00  0.00    +0.000 A 
ATOM     30  C   UNL     1     150.012 160.815 144.005  0.00  0.00    +0.000 A 
ATOM     31  C   UNL     1     150.063 158.827 142.634  0.00  0.00    +0.000 A 
ATOM     32  C   UNL     1     150.236 160.204 142.771  0.00  0.00    +0.000 A 
BRANCH  32  11
ATOM     11  O   UNL     1     150.626 160.951 141.702  0.00  0.00    +0.000 OA
ATOM     39  H   UNL     1     151.039 160.367 141.044  0.00  0.00    +0.000 HD
ENDBRANCH  32  11
ENDBRANCH  25  27
BRANCH  20   8
ATOM      8  O   UNL     1     148.908 154.960 151.766  0.00  0.00    +0.000 OA
ATOM     37  H   UNL     1     149.565 154.245 151.830  0.00  0.00    +0.000 HD
ENDBRANCH  20   8
BRANCH  23   9
ATOM      9  O   UNL     1     147.024 155.000 149.792  0.00  0.00    +0.000 OA
ATOM     38  H   UNL     1     147.201 154.111 150.138  0.00  0.00    +0.000 HD
ENDBRANCH  23   9
BRANCH  18   2
ATOM      2  O   UNL     1     151.291 156.328 151.451  0.00  0.00    +0.000 OA
BRANCH   2  16
ATOM      1  O   UNL     1     152.388 154.269 151.489  0.00  0.00    +0.000 OA
ATOM     12  C   UNL     1     154.941 155.542 151.829  0.00  0.00    +0.000 C 
ATOM     13  C   UNL     1     154.739 154.041 152.039  0.00  0.00    +0.000 C 
ATOM     14  C   UNL     1     153.623 156.304 151.972  0.00  0.00    +0.000 C 
ATOM     15  C   UNL     1     153.572 153.526 151.192  0.00  0.00    +0.000 C 
ATOM     16  C   UNL     1     152.510 155.650 151.154  0.00  0.00    +0.000 C 
BRANCH  12   3
ATOM      3  O   UNL     1     155.869 156.004 152.812  0.00  0.00    +0.000 OA
ATOM     33  H   UNL     1     155.975 156.962 152.683  0.00  0.00    +0.000 HD
ENDBRANCH  12   3
BRANCH  13   4
ATOM      4  O   UNL     1     155.928 153.348 151.672  0.00  0.00    +0.000 OA
ATOM     34  H   UNL     1     155.750 152.860 150.850  0.00  0.00    +0.000 HD
ENDBRANCH  13   4
BRANCH  14   5
ATOM      5  O   UNL     1     153.797 157.641 151.504  0.00  0.00    +0.000 OA
ATOM     35  H   UNL     1     154.581 157.661 150.930  0.00  0.00    +0.000 HD
ENDBRANCH  14   5
BRANCH  15  17
ATOM     17  C   UNL     1     153.274 152.057 151.472  0.00  0.00    +0.000 C 
BRANCH  17   6
ATOM      6  O   UNL     1     154.045 151.644 152.585  0.00  0.00    +0.000 OA
ATOM     36  H   UNL     1     154.477 150.805 152.349  0.00  0.00    +0.000 HD
ENDBRANCH  17   6
ENDBRANCH  15  17
ENDBRANCH   2  16
ENDBRANCH  18   2
TORSDOF 11
ENDMDL
MODEL 7
REMARK VINA RESULT:      -8.6      4.944      9.976
REMARK  Name = 5320623
REMARK  11 active torsions:
REMARK  status: ('A' for Active; 'I' for Inactive)
REMARK    1  A    between atoms: O_2  and  C_16
REMARK    2  A    between atoms: O_2  and  C_18
REMARK    3  A    between atoms: O_3  and  C_12
REMARK    4  A    between atoms: O_4  and  C_13
REMARK    5  A    between atoms: O_5  and  C_14
REMARK    6  A    between atoms: O_6  and  C_17
REMARK    7  A    between atoms: O_8  and  C_20
REMARK    8  A    between atoms: O_9  and  C_23
REMARK    9  A    between atoms: O_11  and  C_32
REMARK   10  A    between atoms: C_15  and  C_17
REMARK   11  A    between atoms: C_25  and  C_27
REMARK                            x       y       z     vdW  Elec       q    Type
REMARK                         _______ _______ _______ _____ _____    ______ ____
ROOT
ATOM      7  O   UNL     1     151.801 161.874 151.686  0.00  0.00    +0.000 OA
ATOM     10  O   UNL     1     149.208 161.002 148.666  0.00  0.00    +0.000 OA
ATOM     18  C   UNL     1     151.787 158.242 151.985  0.00  0.00    +0.000 A 
ATOM     19  C   UNL     1     152.074 159.588 152.212  0.00  0.00    +0.000 A 
ATOM     20  C   UNL     1     150.907 157.876 150.965  0.00  0.00    +0.000 A 
ATOM     21  C   UNL     1     151.480 160.568 151.416  0.00  0.00    +0.000 A 
ATOM     22  C   UNL     1     150.602 160.200 150.397  0.00  0.00    +0.000 A 
ATOM     23  C   UNL     1     150.311 158.853 150.168  0.00  0.00    +0.000 A 
ATOM     24  C   UNL     1     149.989 161.253 149.574  0.00  0.00    +0.000 A 
ATOM     25  C   UNL     1     151.232 162.869 150.906  0.00  0.00    +0.000 A 
ATOM     26  C   UNL     1     150.368 162.642 149.903  0.00  0.00    +0.000 A 
ENDROOT
BRANCH  25  27
ATOM     27  C   UNL     1     151.640 164.236 151.286  0.00  0.00    +0.000 A 
ATOM     28  C   UNL     1     151.513 164.665 152.609  0.00  0.00    +0.000 A 
ATOM     29  C   UNL     1     152.153 165.108 150.322  0.00  0.00    +0.000 A 
ATOM     30  C   UNL     1     151.898 165.956 152.967  0.00  0.00    +0.000 A 
ATOM     31  C   UNL     1     152.538 166.400 150.680  0.00  0.00    +0.000 A 
ATOM     32  C   UNL     1     152.409 166.825 152.002  0.00  0.00    +0.000 A 
BRANCH  32  11
ATOM     11  O   UNL     1     152.785 168.086 152.352  0.00  0.00    +0.000 OA
ATOM     39  H   UNL     1     153.115 168.074 153.267  0.00  0.00    +0.000 HD
ENDBRANCH  32  11
ENDBRANCH  25  27
BRANCH  20   8
ATOM      8  O   UNL     1     150.631 156.556 150.751  0.00  0.00    +0.000 OA
ATOM     37  H   UNL     1     151.024 156.039 151.476  0.00  0.00    +0.000 HD
ENDBRANCH  20   8
BRANCH  23   9
ATOM      9  O   UNL     1     149.459 158.456 149.181  0.00  0.00    +0.000 OA
ATOM     38  H   UNL     1     148.572 158.292 149.538  0.00  0.00    +0.000 HD
ENDBRANCH  23   9
BRANCH  18   2
ATOM      2  O   UNL     1     152.374 157.291 152.769  0.00  0.00    +0.000 OA
BRANCH   2  16
ATOM      1  O   UNL     1     152.725 155.110 152.017  0.00  0.00    +0.000 OA
ATOM     12  C   UNL     1     155.559 155.336 152.429  0.00  0.00    +0.000 C 
ATOM     13  C   UNL     1     154.871 153.994 152.175  0.00  0.00    +0.000 C 
ATOM     14  C   UNL     1     154.571 156.372 152.967  0.00  0.00    +0.000 C 
ATOM     15  C   UNL     1     153.591 154.185 151.358  0.00  0.00    +0.000 C 
ATOM     16  C   UNL     1     153.295 156.413 152.125  0.00  0.00    +0.000 C 
BRANCH  12   3
ATOM      3  O   UNL     1     156.598 155.126 153.386  0.00  0.00    +0.000 OA
ATOM     33  H   UNL     1     157.345 154.715 152.919  0.00  0.00    +0.000 HD
ENDBRANCH  12   3
BRANCH  13   4
ATOM      4  O   UNL     1     155.759 153.136 151.465  0.00  0.00    +0.000 OA
ATOM     34  H   UNL     1     155.325 152.271 151.365  0.00  0.00    +0.000 HD
ENDBRANCH  13   4
BRANCH  14   5
ATOM      5  O   UNL     1     155.174 157.665 152.929  0.00  0.00    +0.000 OA
ATOM     35  H   UNL     1     155.063 158.076 153.802  0.00  0.00    +0.000 HD
ENDBRANCH  14   5
BRANCH  15  17
ATOM     17  C   UNL     1     152.825 152.877 151.192  0.00  0.00    +0.000 C 
BRANCH  17   6
ATOM      6  O   UNL     1     153.360 151.923 152.091  0.00  0.00    +0.000 OA
ATOM     36  H   UNL     1     153.097 151.042 151.775  0.00  0.00    +0.000 HD
ENDBRANCH  17   6
ENDBRANCH  15  17
ENDBRANCH   2  16
ENDBRANCH  18   2
TORSDOF 11
ENDMDL
MODEL 8
REMARK VINA RESULT:      -8.6      4.748      8.207
REMARK  Name = 5320623
REMARK  11 active torsions:
REMARK  status: ('A' for Active; 'I' for Inactive)
REMARK    1  A    between atoms: O_2  and  C_16
REMARK    2  A    between atoms: O_2  and  C_18
REMARK    3  A    between atoms: O_3  and  C_12
REMARK    4  A    between atoms: O_4  and  C_13
REMARK    5  A    between atoms: O_5  and  C_14
REMARK    6  A    between atoms: O_6  and  C_17
REMARK    7  A    between atoms: O_8  and  C_20
REMARK    8  A    between atoms: O_9  and  C_23
REMARK    9  A    between atoms: O_11  and  C_32
REMARK   10  A    between atoms: C_15  and  C_17
REMARK   11  A    between atoms: C_25  and  C_27
REMARK                            x       y       z     vdW  Elec       q    Type
REMARK                         _______ _______ _______ _____ _____    ______ ____
ROOT
ATOM      7  O   UNL     1     150.007 159.683 149.252  0.00  0.00    +0.000 OA
ATOM     10  O   UNL     1     146.037 158.810 149.529  0.00  0.00    +0.000 OA
ATOM     18  C   UNL     1     150.259 156.102 149.876  0.00  0.00    +0.000 A 
ATOM     19  C   UNL     1     150.605 157.430 149.631  0.00  0.00    +0.000 A 
ATOM     20  C   UNL     1     148.916 155.736 149.981  0.00  0.00    +0.000 A 
ATOM     21  C   UNL     1     149.605 158.393 149.491  0.00  0.00    +0.000 A 
ATOM     22  C   UNL     1     148.264 158.026 149.596  0.00  0.00    +0.000 A 
ATOM     23  C   UNL     1     147.914 156.696 149.842  0.00  0.00    +0.000 A 
ATOM     24  C   UNL     1     147.231 159.061 149.446  0.00  0.00    +0.000 A 
ATOM     25  C   UNL     1     149.034 160.660 149.100  0.00  0.00    +0.000 A 
ATOM     26  C   UNL     1     147.714 160.432 149.187  0.00  0.00    +0.000 A 
ENDROOT
BRANCH  25  27
ATOM     27  C   UNL     1     149.576 162.012 148.853  0.00  0.00    +0.000 A 
ATOM     28  C   UNL     1     149.187 162.726 147.718  0.00  0.00    +0.000 A 
ATOM     29  C   UNL     1     150.481 162.580 149.753  0.00  0.00    +0.000 A 
ATOM     30  C   UNL     1     149.699 164.003 147.484  0.00  0.00    +0.000 A 
ATOM     31  C   UNL     1     150.993 163.857 149.519  0.00  0.00    +0.000 A 
ATOM     32  C   UNL     1     150.603 164.567 148.384  0.00  0.00    +0.000 A 
BRANCH  32  11
ATOM     11  O   UNL     1     151.102 165.813 148.156  0.00  0.00    +0.000 OA
ATOM     39  H   UNL     1     150.372 166.405 147.908  0.00  0.00    +0.000 HD
ENDBRANCH  32  11
ENDBRANCH  25  27
BRANCH  20   8
ATOM      8  O   UNL     1     148.587 154.433 150.221  0.00  0.00    +0.000 OA
ATOM     37  H   UNL     1     148.206 154.058 149.408  0.00  0.00    +0.000 HD
ENDBRANCH  20   8
BRANCH  23   9
ATOM      9  O   UNL     1     146.615 156.300 149.950  0.00  0.00    +0.000 OA
ATOM     38  H   UNL     1     146.543 155.335 149.878  0.00  0.00    +0.000 HD
ENDBRANCH  23   9
BRANCH  18   2
ATOM      2  O   UNL     1     151.245 155.168 150.010  0.00  0.00    +0.000 OA
BRANCH   2  16
ATOM      1  O   UNL     1     152.935 156.051 151.356  0.00  0.00    +0.000 OA
ATOM     12  C   UNL     1     153.266 153.548 152.727  0.00  0.00    +0.000 C 
ATOM     13  C   UNL     1     154.278 154.688 152.845  0.00  0.00    +0.000 C 
ATOM     14  C   UNL     1     152.435 153.676 151.450  0.00  0.00    +0.000 C 
ATOM     15  C   UNL     1     153.601 156.042 152.620  0.00  0.00    +0.000 C 
ATOM     16  C   UNL     1     151.882 155.092 151.285  0.00  0.00    +0.000 C 
BRANCH  12   3
ATOM      3  O   UNL     1     153.988 152.316 152.704  0.00  0.00    +0.000 OA
ATOM     33  H   UNL     1     153.463 151.662 153.196  0.00  0.00    +0.000 HD
ENDBRANCH  12   3
BRANCH  13   4
ATOM      4  O   UNL     1     154.865 154.665 154.143  0.00  0.00    +0.000 OA
ATOM     34  H   UNL     1     154.213 154.293 154.761  0.00  0.00    +0.000 HD
ENDBRANCH  13   4
BRANCH  14   5
ATOM      5  O   UNL     1     151.333 152.770 151.511  0.00  0.00    +0.000 OA
ATOM     35  H   UNL     1     151.671 151.900 151.780  0.00  0.00    +0.000 HD
ENDBRANCH  14   5
BRANCH  15  17
ATOM     17  C   UNL     1     154.610 157.185 152.615  0.00  0.00    +0.000 C 
BRANCH  17   6
ATOM      6  O   UNL     1     155.915 156.637 152.616  0.00  0.00    +0.000 OA
ATOM     36  H   UNL     1     156.516 157.309 152.252  0.00  0.00    +0.000 HD
ENDBRANCH  17   6
ENDBRANCH  15  17
ENDBRANCH   2  16
ENDBRANCH  18   2
TORSDOF 11
ENDMDL
MODEL 9
REMARK VINA RESULT:      -8.5      1.443      2.795
REMARK  Name = 5320623
REMARK  11 active torsions:
REMARK  status: ('A' for Active; 'I' for Inactive)
REMARK    1  A    between atoms: O_2  and  C_16
REMARK    2  A    between atoms: O_2  and  C_18
REMARK    3  A    between atoms: O_3  and  C_12
REMARK    4  A    between atoms: O_4  and  C_13
REMARK    5  A    between atoms: O_5  and  C_14
REMARK    6  A    between atoms: O_6  and  C_17
REMARK    7  A    between atoms: O_8  and  C_20
REMARK    8  A    between atoms: O_9  and  C_23
REMARK    9  A    between atoms: O_11  and  C_32
REMARK   10  A    between atoms: C_15  and  C_17
REMARK   11  A    between atoms: C_25  and  C_27
REMARK                            x       y       z     vdW  Elec       q    Type
REMARK                         _______ _______ _______ _____ _____    ______ ____
ROOT
ATOM      7  O   UNL     1     151.788 152.833 147.452  0.00  0.00    +0.000 OA
ATOM     10  O   UNL     1     147.977 153.519 146.186  0.00  0.00    +0.000 OA
ATOM     18  C   UNL     1     150.640 154.909 150.218  0.00  0.00    +0.000 A 
ATOM     19  C   UNL     1     151.451 154.119 149.403  0.00  0.00    +0.000 A 
ATOM     20  C   UNL     1     149.323 155.181 149.843  0.00  0.00    +0.000 A 
ATOM     21  C   UNL     1     150.943 153.602 148.211  0.00  0.00    +0.000 A 
ATOM     22  C   UNL     1     149.628 153.875 147.838  0.00  0.00    +0.000 A 
ATOM     23  C   UNL     1     148.813 154.665 148.651  0.00  0.00    +0.000 A 
ATOM     24  C   UNL     1     149.119 153.318 146.576  0.00  0.00    +0.000 A 
ATOM     25  C   UNL     1     151.308 152.299 146.266  0.00  0.00    +0.000 A 
ATOM     26  C   UNL     1     150.066 152.495 145.797  0.00  0.00    +0.000 A 
ENDROOT
BRANCH  25  27
ATOM     27  C   UNL     1     152.301 151.494 145.525  0.00  0.00    +0.000 A 
ATOM     28  C   UNL     1     152.710 150.254 146.022  0.00  0.00    +0.000 A 
ATOM     29  C   UNL     1     152.836 151.971 144.326  0.00  0.00    +0.000 A 
ATOM     30  C   UNL     1     153.648 149.495 145.322  0.00  0.00    +0.000 A 
ATOM     31  C   UNL     1     153.774 151.211 143.627  0.00  0.00    +0.000 A 
ATOM     32  C   UNL     1     154.181 149.974 144.125  0.00  0.00    +0.000 A 
BRANCH  32  11
ATOM     11  O   UNL     1     155.096 149.232 143.442  0.00  0.00    +0.000 OA
ATOM     39  H   UNL     1     155.191 148.369 143.880  0.00  0.00    +0.000 HD
ENDBRANCH  32  11
ENDBRANCH  25  27
BRANCH  20   8
ATOM      8  O   UNL     1     148.537 155.955 150.646  0.00  0.00    +0.000 OA
ATOM     37  H   UNL     1     148.655 156.885 150.385  0.00  0.00    +0.000 HD
ENDBRANCH  20   8
BRANCH  23   9
ATOM      9  O   UNL     1     147.523 154.952 148.320  0.00  0.00    +0.000 OA
ATOM     38  H   UNL     1     146.996 155.137 149.113  0.00  0.00    +0.000 HD
ENDBRANCH  23   9
BRANCH  18   2
ATOM      2  O   UNL     1     151.147 155.410 151.382  0.00  0.00    +0.000 OA
BRANCH   2  16
ATOM      1  O   UNL     1     153.347 155.258 152.146  0.00  0.00    +0.000 OA
ATOM     12  C   UNL     1     153.720 158.095 151.888  0.00  0.00    +0.000 C 
ATOM     13  C   UNL     1     154.700 157.205 152.651  0.00  0.00    +0.000 C 
ATOM     14  C   UNL     1     152.342 157.440 151.786  0.00  0.00    +0.000 C 
ATOM     15  C   UNL     1     154.678 155.776 152.104  0.00  0.00    +0.000 C 
ATOM     16  C   UNL     1     152.449 155.990 151.314  0.00  0.00    +0.000 C 
BRANCH  12   3
ATOM      3  O   UNL     1     153.608 159.333 152.591  0.00  0.00    +0.000 OA
ATOM     33  H   UNL     1     153.123 159.951 152.016  0.00  0.00    +0.000 HD
ENDBRANCH  12   3
BRANCH  13   4
ATOM      4  O   UNL     1     156.016 157.737 152.525  0.00  0.00    +0.000 OA
ATOM     34  H   UNL     1     156.648 157.034 152.756  0.00  0.00    +0.000 HD
ENDBRANCH  13   4
BRANCH  14   5
ATOM      5  O   UNL     1     151.545 158.159 150.845  0.00  0.00    +0.000 OA
ATOM     35  H   UNL     1     151.091 157.514 150.278  0.00  0.00    +0.000 HD
ENDBRANCH  14   5
BRANCH  15  17
ATOM     17  C   UNL     1     155.560 154.841 152.924  0.00  0.00    +0.000 C 
BRANCH  17   6
ATOM      6  O   UNL     1     156.904 155.010 152.512  0.00  0.00    +0.000 OA
ATOM     36  H   UNL     1     157.165 155.922 152.729  0.00  0.00    +0.000 HD
ENDBRANCH  17   6
ENDBRANCH  15  17
ENDBRANCH   2  16
ENDBRANCH  18   2
TORSDOF 11
ENDMDL
MODEL 10
REMARK VINA RESULT:      -8.5      3.466      5.178
REMARK  Name = 5320623
REMARK  11 active torsions:
REMARK  status: ('A' for Active; 'I' for Inactive)
REMARK    1  A    between atoms: O_2  and  C_16
REMARK    2  A    between atoms: O_2  and  C_18
REMARK    3  A    between atoms: O_3  and  C_12
REMARK    4  A    between atoms: O_4  and  C_13
REMARK    5  A    between atoms: O_5  and  C_14
REMARK    6  A    between atoms: O_6  and  C_17
REMARK    7  A    between atoms: O_8  and  C_20
REMARK    8  A    between atoms: O_9  and  C_23
REMARK    9  A    between atoms: O_11  and  C_32
REMARK   10  A    between atoms: C_15  and  C_17
REMARK   11  A    between atoms: C_25  and  C_27
REMARK                            x       y       z     vdW  Elec       q    Type
REMARK                         _______ _______ _______ _____ _____    ______ ____
ROOT
ATOM      7  O   UNL     1     150.233 150.322 144.815  0.00  0.00    +0.000 OA
ATOM     10  O   UNL     1     153.590 151.300 142.722  0.00  0.00    +0.000 OA
ATOM     18  C   UNL     1     152.278 151.551 147.570  0.00  0.00    +0.000 A 
ATOM     19  C   UNL     1     151.208 151.020 146.850  0.00  0.00    +0.000 A 
ATOM     20  C   UNL     1     153.457 151.908 146.913  0.00  0.00    +0.000 A 
ATOM     21  C   UNL     1     151.318 150.848 145.470  0.00  0.00    +0.000 A 
ATOM     22  C   UNL     1     152.496 151.205 144.815  0.00  0.00    +0.000 A 
ATOM     23  C   UNL     1     153.570 151.736 145.533  0.00  0.00    +0.000 A 
ATOM     24  C   UNL     1     152.586 151.011 143.360  0.00  0.00    +0.000 A 
ATOM     25  C   UNL     1     150.312 150.146 143.442  0.00  0.00    +0.000 A 
ATOM     26  C   UNL     1     151.391 150.445 142.703  0.00  0.00    +0.000 A 
ENDROOT
BRANCH  25  27
ATOM     27  C   UNL     1     149.092 149.569 142.841  0.00  0.00    +0.000 A 
ATOM     28  C   UNL     1     149.187 148.479 141.973  0.00  0.00    +0.000 A 
ATOM     29  C   UNL     1     147.840 150.113 143.136  0.00  0.00    +0.000 A 
ATOM     30  C   UNL     1     148.035 147.934 141.405  0.00  0.00    +0.000 A 
ATOM     31  C   UNL     1     146.688 149.568 142.568  0.00  0.00    +0.000 A 
ATOM     32  C   UNL     1     146.786 148.480 141.702  0.00  0.00    +0.000 A 
BRANCH  32  11
ATOM     11  O   UNL     1     145.662 147.948 141.147  0.00  0.00    +0.000 OA
ATOM     39  H   UNL     1     145.791 146.992 141.028  0.00  0.00    +0.000 HD
ENDBRANCH  32  11
ENDBRANCH  25  27
BRANCH  20   8
ATOM      8  O   UNL     1     154.499 152.425 147.626  0.00  0.00    +0.000 OA
ATOM     37  H   UNL     1     154.240 152.464 148.563  0.00  0.00    +0.000 HD
ENDBRANCH  20   8
BRANCH  23   9
ATOM      9  O   UNL     1     154.736 152.097 144.928  0.00  0.00    +0.000 OA
ATOM     38  H   UNL     1     154.942 153.029 145.105  0.00  0.00    +0.000 HD
ENDBRANCH  23   9
BRANCH  18   2
ATOM      2  O   UNL     1     152.159 151.716 148.920  0.00  0.00    +0.000 OA
BRANCH   2  16
ATOM      1  O   UNL     1     153.504 153.053 150.280  0.00  0.00    +0.000 OA
ATOM     12  C   UNL     1     151.301 154.793 150.890  0.00  0.00    +0.000 C 
ATOM     13  C   UNL     1     152.615 154.828 151.672  0.00  0.00    +0.000 C 
ATOM     14  C   UNL     1     151.109 153.448 150.190  0.00  0.00    +0.000 C 
ATOM     15  C   UNL     1     153.780 154.355 150.798  0.00  0.00    +0.000 C 
ATOM     16  C   UNL     1     152.365 153.036 149.422  0.00  0.00    +0.000 C 
BRANCH  12   3
ATOM      3  O   UNL     1     150.232 155.007 151.813  0.00  0.00    +0.000 OA
ATOM     33  H   UNL     1     150.084 155.966 151.869  0.00  0.00    +0.000 HD
ENDBRANCH  12   3
BRANCH  13   4
ATOM      4  O   UNL     1     152.866 156.159 152.113  0.00  0.00    +0.000 OA
ATOM     34  H   UNL     1     152.705 156.759 151.365  0.00  0.00    +0.000 HD
ENDBRANCH  13   4
BRANCH  14   5
ATOM      5  O   UNL     1     150.030 153.548 149.261  0.00  0.00    +0.000 OA
ATOM     35  H   UNL     1     150.009 154.456 148.918  0.00  0.00    +0.000 HD
ENDBRANCH  14   5
BRANCH  15  17
ATOM     17  C   UNL     1     155.081 154.269 151.589  0.00  0.00    +0.000 C 
BRANCH  17   6
ATOM      6  O   UNL     1     155.427 152.905 151.743  0.00  0.00    +0.000 OA
ATOM     36  H   UNL     1     156.172 152.722 151.144  0.00  0.00    +0.000 HD
ENDBRANCH  17   6
ENDBRANCH  15  17
ENDBRANCH   2  16
ENDBRANCH  18   2
TORSDOF 11
ENDMDL
