MODEL 1
REMARK VINA RESULT:      -6.3      0.000      0.000
REMARK  Name = 3PE
REMARK  37 active torsions:
REMARK  status: ('A' for Active; 'I' for Inactive)
REMARK    1  A    between atoms: P_1  and  O_3
REMARK    2  A    between atoms: P_1  and  O_5
REMARK    3  A    between atoms: O_3  and  C_9
REMARK    4  A    between atoms: O_5  and  C_7
REMARK    5  A    between atoms: C_7  and  C_8
REMARK    6  A    between atoms: C_9  and  C_10
REMARK    7  A    between atoms: C_10  and  C_11
REMARK    8  A    between atoms: C_10  and  O_31
REMARK    9  A    between atoms: C_11  and  O_12
REMARK   10  A    between atoms: O_12  and  C_14
REMARK   11  A    between atoms: C_14  and  C_15
REMARK   12  A    between atoms: C_15  and  C_16
REMARK   13  A    between atoms: C_16  and  C_17
REMARK   14  A    between atoms: C_17  and  C_18
REMARK   15  A    between atoms: C_18  and  C_19
REMARK   16  A    between atoms: C_19  and  C_20
REMARK   17  A    between atoms: C_20  and  C_21
REMARK   18  A    between atoms: C_21  and  C_22
REMARK   19  A    between atoms: C_22  and  C_23
REMARK   20  A    between atoms: C_23  and  C_24
REMARK   21  A    between atoms: C_24  and  C_25
REMARK   22  A    between atoms: C_25  and  C_26
REMARK   23  A    between atoms: C_26  and  C_27
REMARK   24  A    between atoms: C_27  and  C_28
REMARK   25  A    between atoms: C_28  and  C_29
REMARK   26  A    between atoms: O_31  and  C_33
REMARK   27  A    between atoms: C_33  and  C_34
REMARK   28  A    between atoms: C_34  and  C_35
REMARK   29  A    between atoms: C_35  and  C_36
REMARK   30  A    between atoms: C_36  and  C_37
REMARK   31  A    between atoms: C_37  and  C_38
REMARK   32  A    between atoms: C_38  and  C_39
REMARK   33  A    between atoms: C_39  and  C_40
REMARK   34  A    between atoms: C_40  and  C_41
REMARK   35  A    between atoms: C_41  and  C_42
REMARK   36  A    between atoms: C_42  and  C_43
REMARK   37  A    between atoms: C_43  and  C_44
REMARK                            x       y       z     vdW  Elec       q    Type
REMARK                         _______ _______ _______ _____ _____    ______ ____
ROOT
ATOM      1  C   UNL     1     152.163 152.170 147.515  0.00  0.00    +0.242 C 
ENDROOT
BRANCH   1   2
ATOM      2  C   UNL     1     152.160 153.178 148.659  0.00  0.00    +0.196 C 
BRANCH   2   3
ATOM      3  O   UNL     1     152.985 152.690 149.691  0.00  0.00    -0.310 OA
BRANCH   3   4
ATOM      4  P   UNL     1     152.347 152.402 151.177  0.00  0.00    +0.214 P 
ATOM      5  O   UNL     1     150.874 152.192 151.071  0.00  0.00    -0.517 OA
ATOM      6  O   UNL     1     153.280 151.435 151.821  0.00  0.00    -0.437 OA
BRANCH   4   7
ATOM      7  O   UNL     1     152.498 153.882 151.896  0.00  0.00    -0.312 OA
BRANCH   7   8
ATOM      8  C   UNL     1     153.716 154.228 152.509  0.00  0.00    +0.170 C 
BRANCH   8   9
ATOM      9  C   UNL     1     154.142 155.585 151.994  0.00  0.00    +0.142 C 
ATOM     10  N   UNL     1     154.758 155.493 150.647  0.00  0.00    -0.129 NA
ENDBRANCH   8   9
ENDBRANCH   7   8
ENDBRANCH   4   7
ENDBRANCH   3   4
ENDBRANCH   2   3
ENDBRANCH   1   2
BRANCH   1  11
ATOM     11  C   UNL     1     153.483 151.434 147.429  0.00  0.00    +0.254 C 
BRANCH  11  12
ATOM     12  O   UNL     1     154.231 152.055 146.388  0.00  0.00    -0.444 OA
BRANCH  12  13
ATOM     13  C   UNL     1     154.002 151.680 145.133  0.00  0.00    +0.317 C 
ATOM     14  O   UNL     1     153.943 152.457 144.217  0.00  0.00    -0.250 OA
BRANCH  13  15
ATOM     15  C   UNL     1     153.841 150.190 145.033  0.00  0.00    +0.110 C 
BRANCH  15  16
ATOM     16  C   UNL     1     154.455 149.580 143.785  0.00  0.00    +0.012 C 
BRANCH  16  17
ATOM     17  C   UNL     1     154.176 148.086 143.712  0.00  0.00    +0.001 C 
BRANCH  17  18
ATOM     18  C   UNL     1     153.802 147.475 145.055  0.00  0.00    +0.000 C 
BRANCH  18  19
ATOM     19  C   UNL     1     152.940 146.228 144.928  0.00  0.00    +0.000 C 
BRANCH  19  20
ATOM     20  C   UNL     1     152.777 145.758 143.489  0.00  0.00    +0.000 C 
BRANCH  20  21
ATOM     21  C   UNL     1     152.222 144.346 143.382  0.00  0.00    +0.000 C 
BRANCH  21  22
ATOM     22  C   UNL     1     150.846 144.277 142.732  0.00  0.00    +0.000 C 
BRANCH  22  23
ATOM     23  C   UNL     1     150.871 144.628 141.250  0.00  0.00    +0.000 C 
BRANCH  23  24
ATOM     24  C   UNL     1     150.373 146.036 140.955  0.00  0.00    +0.000 C 
BRANCH  24  25
ATOM     25  C   UNL     1     149.555 146.122 139.675  0.00  0.00    +0.000 C 
BRANCH  25  26
ATOM     26  C   UNL     1     148.479 147.197 139.699  0.00  0.00    +0.000 C 
BRANCH  26  27
ATOM     27  C   UNL     1     147.089 146.647 139.416  0.00  0.00    +0.000 C 
BRANCH  27  28
ATOM     28  C   UNL     1     146.711 145.480 140.317  0.00  0.00    +0.000 C 
BRANCH  28  29
ATOM     29  C   UNL     1     145.360 145.659 140.996  0.00  0.00    +0.000 C 
ATOM     30  C   UNL     1     144.192 145.694 140.017  0.00  0.00    +0.000 C 
ENDBRANCH  28  29
ENDBRANCH  27  28
ENDBRANCH  26  27
ENDBRANCH  25  26
ENDBRANCH  24  25
ENDBRANCH  23  24
ENDBRANCH  22  23
ENDBRANCH  21  22
ENDBRANCH  20  21
ENDBRANCH  19  20
ENDBRANCH  18  19
ENDBRANCH  17  18
ENDBRANCH  16  17
ENDBRANCH  15  16
ENDBRANCH  13  15
ENDBRANCH  12  13
ENDBRANCH  11  12
ENDBRANCH   1  11
BRANCH   1  31
ATOM     31  O   UNL     1     151.187 151.124 147.647  0.00  0.00    -0.446 OA
BRANCH  31  32
ATOM     32  C   UNL     1     150.259 150.882 146.745  0.00  0.00    +0.317 C 
ATOM     33  O   UNL     1     149.409 151.689 146.435  0.00  0.00    -0.250 OA
BRANCH  32  34
ATOM     34  C   UNL     1     150.400 149.507 146.152  0.00  0.00    +0.110 C 
BRANCH  34  35
ATOM     35  C   UNL     1     149.233 148.575 146.425  0.00  0.00    +0.012 C 
BRANCH  35  36
ATOM     36  C   UNL     1     149.467 147.201 145.813  0.00  0.00    +0.001 C 
BRANCH  36  37
ATOM     37  C   UNL     1     149.427 147.211 144.291  0.00  0.00    +0.000 C 
BRANCH  37  38
ATOM     38  C   UNL     1     148.088 146.742 143.739  0.00  0.00    +0.000 C 
BRANCH  38  39
ATOM     39  C   UNL     1     147.001 147.807 143.783  0.00  0.00    +0.000 C 
BRANCH  39  40
ATOM     40  C   UNL     1     146.901 148.626 142.503  0.00  0.00    +0.000 C 
BRANCH  40  41
ATOM     41  C   UNL     1     147.163 150.112 142.715  0.00  0.00    +0.000 C 
BRANCH  41  42
ATOM     42  C   UNL     1     148.450 150.392 143.481  0.00  0.00    +0.000 C 
BRANCH  42  43
ATOM     43  C   UNL     1     149.323 151.462 142.840  0.00  0.00    +0.000 C 
BRANCH  43  44
ATOM     44  C   UNL     1     150.788 151.053 142.738  0.00  0.00    +0.000 C 
ATOM     45  C   UNL     1     150.992 149.635 142.218  0.00  0.00    +0.000 C 
ENDBRANCH  43  44
ENDBRANCH  42  43
ENDBRANCH  41  42
ENDBRANCH  40  41
ENDBRANCH  39  40
ENDBRANCH  38  39
ENDBRANCH  37  38
ENDBRANCH  36  37
ENDBRANCH  35  36
ENDBRANCH  34  35
ENDBRANCH  32  34
ENDBRANCH  31  32
ENDBRANCH   1  31
TORSDOF 37
ENDMDL
MODEL 2
REMARK VINA RESULT:      -6.1      1.416      4.543
REMARK  Name = 3PE
REMARK  37 active torsions:
REMARK  status: ('A' for Active; 'I' for Inactive)
REMARK    1  A    between atoms: P_1  and  O_3
REMARK    2  A    between atoms: P_1  and  O_5
REMARK    3  A    between atoms: O_3  and  C_9
REMARK    4  A    between atoms: O_5  and  C_7
REMARK    5  A    between atoms: C_7  and  C_8
REMARK    6  A    between atoms: C_9  and  C_10
REMARK    7  A    between atoms: C_10  and  C_11
REMARK    8  A    between atoms: C_10  and  O_31
REMARK    9  A    between atoms: C_11  and  O_12
REMARK   10  A    between atoms: O_12  and  C_14
REMARK   11  A    between atoms: C_14  and  C_15
REMARK   12  A    between atoms: C_15  and  C_16
REMARK   13  A    between atoms: C_16  and  C_17
REMARK   14  A    between atoms: C_17  and  C_18
REMARK   15  A    between atoms: C_18  and  C_19
REMARK   16  A    between atoms: C_19  and  C_20
REMARK   17  A    between atoms: C_20  and  C_21
REMARK   18  A    between atoms: C_21  and  C_22
REMARK   19  A    between atoms: C_22  and  C_23
REMARK   20  A    between atoms: C_23  and  C_24
REMARK   21  A    between atoms: C_24  and  C_25
REMARK   22  A    between atoms: C_25  and  C_26
REMARK   23  A    between atoms: C_26  and  C_27
REMARK   24  A    between atoms: C_27  and  C_28
REMARK   25  A    between atoms: C_28  and  C_29
REMARK   26  A    between atoms: O_31  and  C_33
REMARK   27  A    between atoms: C_33  and  C_34
REMARK   28  A    between atoms: C_34  and  C_35
REMARK   29  A    between atoms: C_35  and  C_36
REMARK   30  A    between atoms: C_36  and  C_37
REMARK   31  A    between atoms: C_37  and  C_38
REMARK   32  A    between atoms: C_38  and  C_39
REMARK   33  A    between atoms: C_39  and  C_40
REMARK   34  A    between atoms: C_40  and  C_41
REMARK   35  A    between atoms: C_41  and  C_42
REMARK   36  A    between atoms: C_42  and  C_43
REMARK   37  A    between atoms: C_43  and  C_44
REMARK                            x       y       z     vdW  Elec       q    Type
REMARK                         _______ _______ _______ _____ _____    ______ ____
ROOT
ATOM      1  C   UNL     1     152.550 152.062 147.699  0.00  0.00    +0.242 C 
ENDROOT
BRANCH   1   2
ATOM      2  C   UNL     1     152.620 152.003 149.222  0.00  0.00    +0.196 C 
BRANCH   2   3
ATOM      3  O   UNL     1     153.182 153.206 149.692  0.00  0.00    -0.310 OA
BRANCH   3   4
ATOM      4  P   UNL     1     153.221 153.509 151.307  0.00  0.00    +0.214 P 
ATOM      5  O   UNL     1     152.133 154.459 151.677  0.00  0.00    -0.517 OA
ATOM      6  O   UNL     1     153.417 152.179 151.949  0.00  0.00    -0.437 OA
BRANCH   4   7
ATOM      7  O   UNL     1     154.606 154.401 151.444  0.00  0.00    -0.312 OA
BRANCH   7   8
ATOM      8  C   UNL     1     154.809 155.183 152.596  0.00  0.00    +0.170 C 
BRANCH   8   9
ATOM      9  C   UNL     1     155.052 156.613 152.167  0.00  0.00    +0.142 C 
ATOM     10  N   UNL     1     153.891 157.484 152.474  0.00  0.00    -0.129 NA
ENDBRANCH   8   9
ENDBRANCH   7   8
ENDBRANCH   4   7
ENDBRANCH   3   4
ENDBRANCH   2   3
ENDBRANCH   1   2
BRANCH   1  11
ATOM     11  C   UNL     1     153.907 151.821 147.073  0.00  0.00    +0.254 C 
BRANCH  11  12
ATOM     12  O   UNL     1     153.669 151.318 145.761  0.00  0.00    -0.444 OA
BRANCH  12  13
ATOM     13  C   UNL     1     153.853 152.134 144.728  0.00  0.00    +0.317 C 
ATOM     14  O   UNL     1     154.363 153.219 144.831  0.00  0.00    -0.250 OA
BRANCH  13  15
ATOM     15  C   UNL     1     153.354 151.516 143.453  0.00  0.00    +0.110 C 
BRANCH  15  16
ATOM     16  C   UNL     1     151.867 151.207 143.452  0.00  0.00    +0.012 C 
BRANCH  16  17
ATOM     17  C   UNL     1     151.455 150.506 142.166  0.00  0.00    +0.001 C 
BRANCH  17  18
ATOM     18  C   UNL     1     151.108 149.038 142.362  0.00  0.00    +0.000 C 
BRANCH  18  19
ATOM     19  C   UNL     1     149.999 148.554 141.440  0.00  0.00    +0.000 C 
BRANCH  19  20
ATOM     20  C   UNL     1     150.444 147.440 140.503  0.00  0.00    +0.000 C 
BRANCH  20  21
ATOM     21  C   UNL     1     151.032 146.243 141.235  0.00  0.00    +0.000 C 
BRANCH  21  22
ATOM     22  C   UNL     1     149.988 145.362 141.905  0.00  0.00    +0.000 C 
BRANCH  22  23
ATOM     23  C   UNL     1     150.594 144.346 142.864  0.00  0.00    +0.000 C 
BRANCH  23  24
ATOM     24  C   UNL     1     151.668 144.936 143.768  0.00  0.00    +0.000 C 
BRANCH  24  25
ATOM     25  C   UNL     1     151.129 146.000 144.714  0.00  0.00    +0.000 C 
BRANCH  25  26
ATOM     26  C   UNL     1     152.146 146.494 145.732  0.00  0.00    +0.000 C 
BRANCH  26  27
ATOM     27  C   UNL     1     152.567 147.936 145.493  0.00  0.00    +0.000 C 
BRANCH  27  28
ATOM     28  C   UNL     1     154.002 148.069 145.001  0.00  0.00    +0.000 C 
BRANCH  28  29
ATOM     29  C   UNL     1     154.317 147.162 143.819  0.00  0.00    +0.000 C 
ATOM     30  C   UNL     1     154.371 147.902 142.488  0.00  0.00    +0.000 C 
ENDBRANCH  28  29
ENDBRANCH  27  28
ENDBRANCH  26  27
ENDBRANCH  25  26
ENDBRANCH  24  25
ENDBRANCH  23  24
ENDBRANCH  22  23
ENDBRANCH  21  22
ENDBRANCH  20  21
ENDBRANCH  19  20
ENDBRANCH  18  19
ENDBRANCH  17  18
ENDBRANCH  16  17
ENDBRANCH  15  16
ENDBRANCH  13  15
ENDBRANCH  12  13
ENDBRANCH  11  12
ENDBRANCH   1  11
BRANCH   1  31
ATOM     31  O   UNL     1     151.707 151.060 147.108  0.00  0.00    -0.446 OA
BRANCH  31  32
ATOM     32  C   UNL     1     150.406 151.203 146.966  0.00  0.00    +0.317 C 
ATOM     33  O   UNL     1     149.800 152.181 147.348  0.00  0.00    -0.250 OA
BRANCH  32  34
ATOM     34  C   UNL     1     149.787 150.022 146.270  0.00  0.00    +0.110 C 
BRANCH  34  35
ATOM     35  C   UNL     1     148.756 150.375 145.213  0.00  0.00    +0.012 C 
BRANCH  35  36
ATOM     36  C   UNL     1     148.171 149.126 144.570  0.00  0.00    +0.001 C 
BRANCH  36  37
ATOM     37  C   UNL     1     146.994 149.422 143.650  0.00  0.00    +0.000 C 
BRANCH  37  38
ATOM     38  C   UNL     1     146.567 148.205 142.840  0.00  0.00    +0.000 C 
BRANCH  38  39
ATOM     39  C   UNL     1     146.397 148.489 141.354  0.00  0.00    +0.000 C 
BRANCH  39  40
ATOM     40  C   UNL     1     145.813 147.318 140.575  0.00  0.00    +0.000 C 
BRANCH  40  41
ATOM     41  C   UNL     1     146.872 146.373 140.022  0.00  0.00    +0.000 C 
BRANCH  41  42
ATOM     42  C   UNL     1     146.687 144.930 140.474  0.00  0.00    +0.000 C 
BRANCH  42  43
ATOM     43  C   UNL     1     145.736 144.775 141.653  0.00  0.00    +0.000 C 
BRANCH  43  44
ATOM     44  C   UNL     1     144.562 143.850 141.354  0.00  0.00    +0.000 C 
ATOM     45  C   UNL     1     143.214 144.413 141.791  0.00  0.00    +0.000 C 
ENDBRANCH  43  44
ENDBRANCH  42  43
ENDBRANCH  41  42
ENDBRANCH  40  41
ENDBRANCH  39  40
ENDBRANCH  38  39
ENDBRANCH  37  38
ENDBRANCH  36  37
ENDBRANCH  35  36
ENDBRANCH  34  35
ENDBRANCH  32  34
ENDBRANCH  31  32
ENDBRANCH   1  31
TORSDOF 37
ENDMDL
MODEL 3
REMARK VINA RESULT:      -6.0      1.938      4.994
REMARK  Name = 3PE
REMARK  37 active torsions:
REMARK  status: ('A' for Active; 'I' for Inactive)
REMARK    1  A    between atoms: P_1  and  O_3
REMARK    2  A    between atoms: P_1  and  O_5
REMARK    3  A    between atoms: O_3  and  C_9
REMARK    4  A    between atoms: O_5  and  C_7
REMARK    5  A    between atoms: C_7  and  C_8
REMARK    6  A    between atoms: C_9  and  C_10
REMARK    7  A    between atoms: C_10  and  C_11
REMARK    8  A    between atoms: C_10  and  O_31
REMARK    9  A    between atoms: C_11  and  O_12
REMARK   10  A    between atoms: O_12  and  C_14
REMARK   11  A    between atoms: C_14  and  C_15
REMARK   12  A    between atoms: C_15  and  C_16
REMARK   13  A    between atoms: C_16  and  C_17
REMARK   14  A    between atoms: C_17  and  C_18
REMARK   15  A    between atoms: C_18  and  C_19
REMARK   16  A    between atoms: C_19  and  C_20
REMARK   17  A    between atoms: C_20  and  C_21
REMARK   18  A    between atoms: C_21  and  C_22
REMARK   19  A    between atoms: C_22  and  C_23
REMARK   20  A    between atoms: C_23  and  C_24
REMARK   21  A    between atoms: C_24  and  C_25
REMARK   22  A    between atoms: C_25  and  C_26
REMARK   23  A    between atoms: C_26  and  C_27
REMARK   24  A    between atoms: C_27  and  C_28
REMARK   25  A    between atoms: C_28  and  C_29
REMARK   26  A    between atoms: O_31  and  C_33
REMARK   27  A    between atoms: C_33  and  C_34
REMARK   28  A    between atoms: C_34  and  C_35
REMARK   29  A    between atoms: C_35  and  C_36
REMARK   30  A    between atoms: C_36  and  C_37
REMARK   31  A    between atoms: C_37  and  C_38
REMARK   32  A    between atoms: C_38  and  C_39
REMARK   33  A    between atoms: C_39  and  C_40
REMARK   34  A    between atoms: C_40  and  C_41
REMARK   35  A    between atoms: C_41  and  C_42
REMARK   36  A    between atoms: C_42  and  C_43
REMARK   37  A    between atoms: C_43  and  C_44
REMARK                            x       y       z     vdW  Elec       q    Type
REMARK                         _______ _______ _______ _____ _____    ______ ____
ROOT
ATOM      1  C   UNL     1     150.972 154.228 149.366  0.00  0.00    +0.242 C 
ENDROOT
BRANCH   1   2
ATOM      2  C   UNL     1     151.265 154.616 150.813  0.00  0.00    +0.196 C 
BRANCH   2   3
ATOM      3  O   UNL     1     152.478 155.329 150.850  0.00  0.00    -0.310 OA
BRANCH   3   4
ATOM      4  P   UNL     1     153.680 154.841 151.859  0.00  0.00    +0.214 P 
ATOM      5  O   UNL     1     153.201 153.725 152.724  0.00  0.00    -0.517 OA
ATOM      6  O   UNL     1     154.899 154.768 151.005  0.00  0.00    -0.437 OA
BRANCH   4   7
ATOM      7  O   UNL     1     153.796 156.131 152.885  0.00  0.00    -0.312 OA
BRANCH   7   8
ATOM      8  C   UNL     1     153.787 157.435 152.355  0.00  0.00    +0.170 C 
BRANCH   8   9
ATOM      9  C   UNL     1     155.191 157.991 152.428  0.00  0.00    +0.142 C 
ATOM     10  N   UNL     1     155.464 158.944 151.323  0.00  0.00    -0.129 NA
ENDBRANCH   8   9
ENDBRANCH   7   8
ENDBRANCH   4   7
ENDBRANCH   3   4
ENDBRANCH   2   3
ENDBRANCH   1   2
BRANCH   1  11
ATOM     11  C   UNL     1     149.839 155.051 148.791  0.00  0.00    +0.254 C 
BRANCH  11  12
ATOM     12  O   UNL     1     149.410 154.385 147.607  0.00  0.00    -0.444 OA
BRANCH  12  13
ATOM     13  C   UNL     1     148.226 153.780 147.615  0.00  0.00    +0.317 C 
ATOM     14  O   UNL     1     147.425 153.918 148.501  0.00  0.00    -0.250 OA
BRANCH  13  15
ATOM     15  C   UNL     1     148.041 152.935 146.387  0.00  0.00    +0.110 C 
BRANCH  15  16
ATOM     16  C   UNL     1     149.186 153.021 145.393  0.00  0.00    +0.012 C 
BRANCH  16  17
ATOM     17  C   UNL     1     149.857 151.667 145.212  0.00  0.00    +0.001 C 
BRANCH  17  18
ATOM     18  C   UNL     1     150.396 151.081 146.508  0.00  0.00    +0.000 C 
BRANCH  18  19
ATOM     19  C   UNL     1     150.032 149.617 146.704  0.00  0.00    +0.000 C 
BRANCH  19  20
ATOM     20  C   UNL     1     150.128 148.801 145.422  0.00  0.00    +0.000 C 
BRANCH  20  21
ATOM     21  C   UNL     1     149.252 147.558 145.438  0.00  0.00    +0.000 C 
BRANCH  21  22
ATOM     22  C   UNL     1     148.026 147.662 144.542  0.00  0.00    +0.000 C 
BRANCH  22  23
ATOM     23  C   UNL     1     147.408 149.054 144.539  0.00  0.00    +0.000 C 
BRANCH  23  24
ATOM     24  C   UNL     1     147.418 149.715 143.167  0.00  0.00    +0.000 C 
BRANCH  24  25
ATOM     25  C   UNL     1     146.043 149.748 142.514  0.00  0.00    +0.000 C 
BRANCH  25  26
ATOM     26  C   UNL     1     145.985 149.052 141.162  0.00  0.00    +0.000 C 
BRANCH  26  27
ATOM     27  C   UNL     1     147.212 148.197 140.885  0.00  0.00    +0.000 C 
BRANCH  27  28
ATOM     28  C   UNL     1     146.955 146.706 141.060  0.00  0.00    +0.000 C 
BRANCH  28  29
ATOM     29  C   UNL     1     147.903 145.835 140.246  0.00  0.00    +0.000 C 
ATOM     30  C   UNL     1     148.518 146.560 139.056  0.00  0.00    +0.000 C 
ENDBRANCH  28  29
ENDBRANCH  27  28
ENDBRANCH  26  27
ENDBRANCH  25  26
ENDBRANCH  24  25
ENDBRANCH  23  24
ENDBRANCH  22  23
ENDBRANCH  21  22
ENDBRANCH  20  21
ENDBRANCH  19  20
ENDBRANCH  18  19
ENDBRANCH  17  18
ENDBRANCH  16  17
ENDBRANCH  15  16
ENDBRANCH  13  15
ENDBRANCH  12  13
ENDBRANCH  11  12
ENDBRANCH   1  11
BRANCH   1  31
ATOM     31  O   UNL     1     152.066 154.455 148.462  0.00  0.00    -0.446 OA
BRANCH  31  32
ATOM     32  C   UNL     1     152.866 153.498 148.041  0.00  0.00    +0.317 C 
ATOM     33  O   UNL     1     153.414 152.716 148.787  0.00  0.00    -0.250 OA
BRANCH  32  34
ATOM     34  C   UNL     1     152.996 153.497 146.543  0.00  0.00    +0.110 C 
BRANCH  34  35
ATOM     35  C   UNL     1     153.744 152.306 145.970  0.00  0.00    +0.012 C 
BRANCH  35  36
ATOM     36  C   UNL     1     153.975 152.464 144.474  0.00  0.00    +0.001 C 
BRANCH  36  37
ATOM     37  C   UNL     1     153.635 151.209 143.681  0.00  0.00    +0.000 C 
BRANCH  37  38
ATOM     38  C   UNL     1     153.548 149.970 144.561  0.00  0.00    +0.000 C 
BRANCH  38  39
ATOM     39  C   UNL     1     154.034 148.699 143.877  0.00  0.00    +0.000 C 
BRANCH  39  40
ATOM     40  C   UNL     1     153.621 147.424 144.599  0.00  0.00    +0.000 C 
BRANCH  40  41
ATOM     41  C   UNL     1     153.379 146.250 143.659  0.00  0.00    +0.000 C 
BRANCH  41  42
ATOM     42  C   UNL     1     151.937 145.756 143.671  0.00  0.00    +0.000 C 
BRANCH  42  43
ATOM     43  C   UNL     1     151.249 145.843 142.316  0.00  0.00    +0.000 C 
BRANCH  43  44
ATOM     44  C   UNL     1     151.575 147.127 141.563  0.00  0.00    +0.000 C 
ATOM     45  C   UNL     1     150.698 148.309 141.961  0.00  0.00    +0.000 C 
ENDBRANCH  43  44
ENDBRANCH  42  43
ENDBRANCH  41  42
ENDBRANCH  40  41
ENDBRANCH  39  40
ENDBRANCH  38  39
ENDBRANCH  37  38
ENDBRANCH  36  37
ENDBRANCH  35  36
ENDBRANCH  34  35
ENDBRANCH  32  34
ENDBRANCH  31  32
ENDBRANCH   1  31
TORSDOF 37
ENDMDL
MODEL 4
REMARK VINA RESULT:      -6.0      2.991      5.559
REMARK  Name = 3PE
REMARK  37 active torsions:
REMARK  status: ('A' for Active; 'I' for Inactive)
REMARK    1  A    between atoms: P_1  and  O_3
REMARK    2  A    between atoms: P_1  and  O_5
REMARK    3  A    between atoms: O_3  and  C_9
REMARK    4  A    between atoms: O_5  and  C_7
REMARK    5  A    between atoms: C_7  and  C_8
REMARK    6  A    between atoms: C_9  and  C_10
REMARK    7  A    between atoms: C_10  and  C_11
REMARK    8  A    between atoms: C_10  and  O_31
REMARK    9  A    between atoms: C_11  and  O_12
REMARK   10  A    between atoms: O_12  and  C_14
REMARK   11  A    between atoms: C_14  and  C_15
REMARK   12  A    between atoms: C_15  and  C_16
REMARK   13  A    between atoms: C_16  and  C_17
REMARK   14  A    between atoms: C_17  and  C_18
REMARK   15  A    between atoms: C_18  and  C_19
REMARK   16  A    between atoms: C_19  and  C_20
REMARK   17  A    between atoms: C_20  and  C_21
REMARK   18  A    between atoms: C_21  and  C_22
REMARK   19  A    between atoms: C_22  and  C_23
REMARK   20  A    between atoms: C_23  and  C_24
REMARK   21  A    between atoms: C_24  and  C_25
REMARK   22  A    between atoms: C_25  and  C_26
REMARK   23  A    between atoms: C_26  and  C_27
REMARK   24  A    between atoms: C_27  and  C_28
REMARK   25  A    between atoms: C_28  and  C_29
REMARK   26  A    between atoms: O_31  and  C_33
REMARK   27  A    between atoms: C_33  and  C_34
REMARK   28  A    between atoms: C_34  and  C_35
REMARK   29  A    between atoms: C_35  and  C_36
REMARK   30  A    between atoms: C_36  and  C_37
REMARK   31  A    between atoms: C_37  and  C_38
REMARK   32  A    between atoms: C_38  and  C_39
REMARK   33  A    between atoms: C_39  and  C_40
REMARK   34  A    between atoms: C_40  and  C_41
REMARK   35  A    between atoms: C_41  and  C_42
REMARK   36  A    between atoms: C_42  and  C_43
REMARK   37  A    between atoms: C_43  and  C_44
REMARK                            x       y       z     vdW  Elec       q    Type
REMARK                         _______ _______ _______ _____ _____    ______ ____
ROOT
ATOM      1  C   UNL     1     149.355 152.431 146.822  0.00  0.00    +0.242 C 
ENDROOT
BRANCH   1   2
ATOM      2  C   UNL     1     149.210 153.864 147.327  0.00  0.00    +0.196 C 
BRANCH   2   3
ATOM      3  O   UNL     1     148.173 153.902 148.279  0.00  0.00    -0.310 OA
BRANCH   3   4
ATOM      4  P   UNL     1     148.264 154.952 149.540  0.00  0.00    +0.214 P 
ATOM      5  O   UNL     1     147.920 154.257 150.812  0.00  0.00    -0.517 OA
ATOM      6  O   UNL     1     149.526 155.714 149.322  0.00  0.00    -0.437 OA
BRANCH   4   7
ATOM      7  O   UNL     1     146.966 155.934 149.247  0.00  0.00    -0.312 OA
BRANCH   7   8
ATOM      8  C   UNL     1     145.686 155.363 149.125  0.00  0.00    +0.170 C 
BRANCH   8   9
ATOM      9  C   UNL     1     144.667 156.479 149.070  0.00  0.00    +0.142 C 
ATOM     10  N   UNL     1     145.314 157.814 149.062  0.00  0.00    -0.129 NA
ENDBRANCH   8   9
ENDBRANCH   7   8
ENDBRANCH   4   7
ENDBRANCH   3   4
ENDBRANCH   2   3
ENDBRANCH   1   2
BRANCH   1  11
ATOM     11  C   UNL     1     148.557 152.207 145.556  0.00  0.00    +0.254 C 
BRANCH  11  12
ATOM     12  O   UNL     1     149.490 152.198 144.480  0.00  0.00    -0.444 OA
BRANCH  12  13
ATOM     13  C   UNL     1     149.266 151.383 143.454  0.00  0.00    +0.317 C 
ATOM     14  O   UNL     1     149.916 151.408 142.442  0.00  0.00    -0.250 OA
BRANCH  13  15
ATOM     15  C   UNL     1     148.123 150.452 143.741  0.00  0.00    +0.110 C 
BRANCH  15  16
ATOM     16  C   UNL     1     148.136 149.177 142.915  0.00  0.00    +0.012 C 
BRANCH  16  17
ATOM     17  C   UNL     1     147.315 148.084 143.583  0.00  0.00    +0.001 C 
BRANCH  17  18
ATOM     18  C   UNL     1     146.385 147.356 142.624  0.00  0.00    +0.000 C 
BRANCH  18  19
ATOM     19  C   UNL     1     146.377 147.952 141.224  0.00  0.00    +0.000 C 
BRANCH  19  20
ATOM     20  C   UNL     1     146.179 146.911 140.132  0.00  0.00    +0.000 C 
BRANCH  20  21
ATOM     21  C   UNL     1     144.931 146.064 140.334  0.00  0.00    +0.000 C 
BRANCH  21  22
ATOM     22  C   UNL     1     145.211 144.569 140.401  0.00  0.00    +0.000 C 
BRANCH  22  23
ATOM     23  C   UNL     1     146.693 144.236 140.299  0.00  0.00    +0.000 C 
BRANCH  23  24
ATOM     24  C   UNL     1     147.287 143.720 141.603  0.00  0.00    +0.000 C 
BRANCH  24  25
ATOM     25  C   UNL     1     148.505 144.511 142.056  0.00  0.00    +0.000 C 
BRANCH  25  26
ATOM     26  C   UNL     1     149.823 143.984 141.508  0.00  0.00    +0.000 C 
BRANCH  26  27
ATOM     27  C   UNL     1     150.703 145.082 140.930  0.00  0.00    +0.000 C 
BRANCH  27  28
ATOM     28  C   UNL     1     149.980 145.960 139.918  0.00  0.00    +0.000 C 
BRANCH  28  29
ATOM     29  C   UNL     1     150.033 147.442 140.263  0.00  0.00    +0.000 C 
ATOM     30  C   UNL     1     151.039 147.771 141.360  0.00  0.00    +0.000 C 
ENDBRANCH  28  29
ENDBRANCH  27  28
ENDBRANCH  26  27
ENDBRANCH  25  26
ENDBRANCH  24  25
ENDBRANCH  23  24
ENDBRANCH  22  23
ENDBRANCH  21  22
ENDBRANCH  20  21
ENDBRANCH  19  20
ENDBRANCH  18  19
ENDBRANCH  17  18
ENDBRANCH  16  17
ENDBRANCH  15  16
ENDBRANCH  13  15
ENDBRANCH  12  13
ENDBRANCH  11  12
ENDBRANCH   1  11
BRANCH   1  31
ATOM     31  O   UNL     1     150.697 152.066 146.462  0.00  0.00    -0.446 OA
BRANCH  31  32
ATOM     32  C   UNL     1     151.527 151.460 147.284  0.00  0.00    +0.317 C 
ATOM     33  O   UNL     1     151.808 151.893 148.381  0.00  0.00    -0.250 OA
BRANCH  32  34
ATOM     34  C   UNL     1     152.059 150.180 146.700  0.00  0.00    +0.110 C 
BRANCH  34  35
ATOM     35  C   UNL     1     151.269 149.643 145.519  0.00  0.00    +0.012 C 
BRANCH  35  36
ATOM     36  C   UNL     1     150.448 148.423 145.910  0.00  0.00    +0.001 C 
BRANCH  36  37
ATOM     37  C   UNL     1     150.727 147.209 145.035  0.00  0.00    +0.000 C 
BRANCH  37  38
ATOM     38  C   UNL     1     151.843 146.334 145.590  0.00  0.00    +0.000 C 
BRANCH  38  39
ATOM     39  C   UNL     1     153.229 146.724 145.096  0.00  0.00    +0.000 C 
BRANCH  39  40
ATOM     40  C   UNL     1     153.396 146.592 143.588  0.00  0.00    +0.000 C 
BRANCH  40  41
ATOM     41  C   UNL     1     154.326 147.641 142.991  0.00  0.00    +0.000 C 
BRANCH  41  42
ATOM     42  C   UNL     1     154.310 148.962 143.750  0.00  0.00    +0.000 C 
BRANCH  42  43
ATOM     43  C   UNL     1     154.270 150.187 142.847  0.00  0.00    +0.000 C 
BRANCH  43  44
ATOM     44  C   UNL     1     153.391 151.304 143.397  0.00  0.00    +0.000 C 
ATOM     45  C   UNL     1     154.091 152.181 144.428  0.00  0.00    +0.000 C 
ENDBRANCH  43  44
ENDBRANCH  42  43
ENDBRANCH  41  42
ENDBRANCH  40  41
ENDBRANCH  39  40
ENDBRANCH  38  39
ENDBRANCH  37  38
ENDBRANCH  36  37
ENDBRANCH  35  36
ENDBRANCH  34  35
ENDBRANCH  32  34
ENDBRANCH  31  32
ENDBRANCH   1  31
TORSDOF 37
ENDMDL
MODEL 5
REMARK VINA RESULT:      -5.9      3.330      5.009
REMARK  Name = 3PE
REMARK  37 active torsions:
REMARK  status: ('A' for Active; 'I' for Inactive)
REMARK    1  A    between atoms: P_1  and  O_3
REMARK    2  A    between atoms: P_1  and  O_5
REMARK    3  A    between atoms: O_3  and  C_9
REMARK    4  A    between atoms: O_5  and  C_7
REMARK    5  A    between atoms: C_7  and  C_8
REMARK    6  A    between atoms: C_9  and  C_10
REMARK    7  A    between atoms: C_10  and  C_11
REMARK    8  A    between atoms: C_10  and  O_31
REMARK    9  A    between atoms: C_11  and  O_12
REMARK   10  A    between atoms: O_12  and  C_14
REMARK   11  A    between atoms: C_14  and  C_15
REMARK   12  A    between atoms: C_15  and  C_16
REMARK   13  A    between atoms: C_16  and  C_17
REMARK   14  A    between atoms: C_17  and  C_18
REMARK   15  A    between atoms: C_18  and  C_19
REMARK   16  A    between atoms: C_19  and  C_20
REMARK   17  A    between atoms: C_20  and  C_21
REMARK   18  A    between atoms: C_21  and  C_22
REMARK   19  A    between atoms: C_22  and  C_23
REMARK   20  A    between atoms: C_23  and  C_24
REMARK   21  A    between atoms: C_24  and  C_25
REMARK   22  A    between atoms: C_25  and  C_26
REMARK   23  A    between atoms: C_26  and  C_27
REMARK   24  A    between atoms: C_27  and  C_28
REMARK   25  A    between atoms: C_28  and  C_29
REMARK   26  A    between atoms: O_31  and  C_33
REMARK   27  A    between atoms: C_33  and  C_34
REMARK   28  A    between atoms: C_34  and  C_35
REMARK   29  A    between atoms: C_35  and  C_36
REMARK   30  A    between atoms: C_36  and  C_37
REMARK   31  A    between atoms: C_37  and  C_38
REMARK   32  A    between atoms: C_38  and  C_39
REMARK   33  A    between atoms: C_39  and  C_40
REMARK   34  A    between atoms: C_40  and  C_41
REMARK   35  A    between atoms: C_41  and  C_42
REMARK   36  A    between atoms: C_42  and  C_43
REMARK   37  A    between atoms: C_43  and  C_44
REMARK                            x       y       z     vdW  Elec       q    Type
REMARK                         _______ _______ _______ _____ _____    ______ ____
ROOT
ATOM      1  C   UNL     1     152.684 152.162 146.060  0.00  0.00    +0.242 C 
ENDROOT
BRANCH   1   2
ATOM      2  C   UNL     1     153.431 152.099 147.388  0.00  0.00    +0.196 C 
BRANCH   2   3
ATOM      3  O   UNL     1     152.499 151.863 148.417  0.00  0.00    -0.310 OA
BRANCH   3   4
ATOM      4  P   UNL     1     152.144 153.060 149.485  0.00  0.00    +0.214 P 
ATOM      5  O   UNL     1     152.675 154.363 148.991  0.00  0.00    -0.517 OA
ATOM      6  O   UNL     1     150.721 152.833 149.866  0.00  0.00    -0.437 OA
BRANCH   4   7
ATOM      7  O   UNL     1     153.127 152.674 150.756  0.00  0.00    -0.312 OA
BRANCH   7   8
ATOM      8  C   UNL     1     152.785 153.111 152.048  0.00  0.00    +0.170 C 
BRANCH   8   9
ATOM      9  C   UNL     1     153.681 154.272 152.415  0.00  0.00    +0.142 C 
ATOM     10  N   UNL     1     152.959 155.567 152.347  0.00  0.00    -0.129 NA
ENDBRANCH   8   9
ENDBRANCH   7   8
ENDBRANCH   4   7
ENDBRANCH   3   4
ENDBRANCH   2   3
ENDBRANCH   1   2
BRANCH   1  11
ATOM     11  C   UNL     1     153.638 152.322 144.895  0.00  0.00    +0.254 C 
BRANCH  11  12
ATOM     12  O   UNL     1     154.214 151.041 144.659  0.00  0.00    -0.444 OA
BRANCH  12  13
ATOM     13  C   UNL     1     154.127 150.523 143.438  0.00  0.00    +0.317 C 
ATOM     14  O   UNL     1     153.670 151.124 142.501  0.00  0.00    -0.250 OA
BRANCH  13  15
ATOM     15  C   UNL     1     154.674 149.124 143.401  0.00  0.00    +0.110 C 
BRANCH  15  16
ATOM     16  C   UNL     1     153.724 148.100 142.807  0.00  0.00    +0.012 C 
BRANCH  16  17
ATOM     17  C   UNL     1     153.898 146.742 143.471  0.00  0.00    +0.001 C 
BRANCH  17  18
ATOM     18  C   UNL     1     153.458 146.722 144.928  0.00  0.00    +0.000 C 
BRANCH  18  19
ATOM     19  C   UNL     1     152.065 147.292 145.144  0.00  0.00    +0.000 C 
BRANCH  19  20
ATOM     20  C   UNL     1     150.962 146.399 144.593  0.00  0.00    +0.000 C 
BRANCH  20  21
ATOM     21  C   UNL     1     150.149 147.064 143.493  0.00  0.00    +0.000 C 
BRANCH  21  22
ATOM     22  C   UNL     1     150.139 146.287 142.184  0.00  0.00    +0.000 C 
BRANCH  22  23
ATOM     23  C   UNL     1     150.121 147.188 140.957  0.00  0.00    +0.000 C 
BRANCH  23  24
ATOM     24  C   UNL     1     149.593 146.496 139.708  0.00  0.00    +0.000 C 
BRANCH  24  25
ATOM     25  C   UNL     1     148.274 147.077 139.219  0.00  0.00    +0.000 C 
BRANCH  25  26
ATOM     26  C   UNL     1     147.060 146.227 139.561  0.00  0.00    +0.000 C 
BRANCH  26  27
ATOM     27  C   UNL     1     146.056 146.958 140.441  0.00  0.00    +0.000 C 
BRANCH  27  28
ATOM     28  C   UNL     1     146.546 148.324 140.902  0.00  0.00    +0.000 C 
BRANCH  28  29
ATOM     29  C   UNL     1     146.630 148.452 142.416  0.00  0.00    +0.000 C 
ATOM     30  C   UNL     1     147.486 149.625 142.877  0.00  0.00    +0.000 C 
ENDBRANCH  28  29
ENDBRANCH  27  28
ENDBRANCH  26  27
ENDBRANCH  25  26
ENDBRANCH  24  25
ENDBRANCH  23  24
ENDBRANCH  22  23
ENDBRANCH  21  22
ENDBRANCH  20  21
ENDBRANCH  19  20
ENDBRANCH  18  19
ENDBRANCH  17  18
ENDBRANCH  16  17
ENDBRANCH  15  16
ENDBRANCH  13  15
ENDBRANCH  12  13
ENDBRANCH  11  12
ENDBRANCH   1  11
BRANCH   1  31
ATOM     31  O   UNL     1     151.940 150.974 145.744  0.00  0.00    -0.446 OA
BRANCH  31  32
ATOM     32  C   UNL     1     150.758 150.994 145.165  0.00  0.00    +0.317 C 
ATOM     33  O   UNL     1     150.579 150.660 144.013  0.00  0.00    -0.250 OA
BRANCH  32  34
ATOM     34  C   UNL     1     149.682 151.462 146.104  0.00  0.00    +0.110 C 
BRANCH  34  35
ATOM     35  C   UNL     1     149.009 152.764 145.704  0.00  0.00    +0.012 C 
BRANCH  35  36
ATOM     36  C   UNL     1     148.632 153.590 146.925  0.00  0.00    +0.001 C 
BRANCH  36  37
ATOM     37  C   UNL     1     147.207 154.123 146.868  0.00  0.00    +0.000 C 
BRANCH  37  38
ATOM     38  C   UNL     1     146.421 153.823 148.137  0.00  0.00    +0.000 C 
BRANCH  38  39
ATOM     39  C   UNL     1     146.752 154.754 149.296  0.00  0.00    +0.000 C 
BRANCH  39  40
ATOM     40  C   UNL     1     145.547 155.523 149.821  0.00  0.00    +0.000 C 
BRANCH  40  41
ATOM     41  C   UNL     1     145.102 156.649 148.896  0.00  0.00    +0.000 C 
BRANCH  41  42
ATOM     42  C   UNL     1     146.187 157.690 148.648  0.00  0.00    +0.000 C 
BRANCH  42  43
ATOM     43  C   UNL     1     146.138 158.867 149.613  0.00  0.00    +0.000 C 
BRANCH  43  44
ATOM     44  C   UNL     1     147.232 158.815 150.672  0.00  0.00    +0.000 C 
ATOM     45  C   UNL     1     148.434 157.970 150.269  0.00  0.00    +0.000 C 
ENDBRANCH  43  44
ENDBRANCH  42  43
ENDBRANCH  41  42
ENDBRANCH  40  41
ENDBRANCH  39  40
ENDBRANCH  38  39
ENDBRANCH  37  38
ENDBRANCH  36  37
ENDBRANCH  35  36
ENDBRANCH  34  35
ENDBRANCH  32  34
ENDBRANCH  31  32
ENDBRANCH   1  31
TORSDOF 37
ENDMDL
MODEL 6
REMARK VINA RESULT:      -5.9      1.400      2.781
REMARK  Name = 3PE
REMARK  37 active torsions:
REMARK  status: ('A' for Active; 'I' for Inactive)
REMARK    1  A    between atoms: P_1  and  O_3
REMARK    2  A    between atoms: P_1  and  O_5
REMARK    3  A    between atoms: O_3  and  C_9
REMARK    4  A    between atoms: O_5  and  C_7
REMARK    5  A    between atoms: C_7  and  C_8
REMARK    6  A    between atoms: C_9  and  C_10
REMARK    7  A    between atoms: C_10  and  C_11
REMARK    8  A    between atoms: C_10  and  O_31
REMARK    9  A    between atoms: C_11  and  O_12
REMARK   10  A    between atoms: O_12  and  C_14
REMARK   11  A    between atoms: C_14  and  C_15
REMARK   12  A    between atoms: C_15  and  C_16
REMARK   13  A    between atoms: C_16  and  C_17
REMARK   14  A    between atoms: C_17  and  C_18
REMARK   15  A    between atoms: C_18  and  C_19
REMARK   16  A    between atoms: C_19  and  C_20
REMARK   17  A    between atoms: C_20  and  C_21
REMARK   18  A    between atoms: C_21  and  C_22
REMARK   19  A    between atoms: C_22  and  C_23
REMARK   20  A    between atoms: C_23  and  C_24
REMARK   21  A    between atoms: C_24  and  C_25
REMARK   22  A    between atoms: C_25  and  C_26
REMARK   23  A    between atoms: C_26  and  C_27
REMARK   24  A    between atoms: C_27  and  C_28
REMARK   25  A    between atoms: C_28  and  C_29
REMARK   26  A    between atoms: O_31  and  C_33
REMARK   27  A    between atoms: C_33  and  C_34
REMARK   28  A    between atoms: C_34  and  C_35
REMARK   29  A    between atoms: C_35  and  C_36
REMARK   30  A    between atoms: C_36  and  C_37
REMARK   31  A    between atoms: C_37  and  C_38
REMARK   32  A    between atoms: C_38  and  C_39
REMARK   33  A    between atoms: C_39  and  C_40
REMARK   34  A    between atoms: C_40  and  C_41
REMARK   35  A    between atoms: C_41  and  C_42
REMARK   36  A    between atoms: C_42  and  C_43
REMARK   37  A    between atoms: C_43  and  C_44
REMARK                            x       y       z     vdW  Elec       q    Type
REMARK                         _______ _______ _______ _____ _____    ______ ____
ROOT
ATOM      1  C   UNL     1     153.009 152.405 147.878  0.00  0.00    +0.242 C 
ENDROOT
BRANCH   1   2
ATOM      2  C   UNL     1     152.744 152.166 149.361  0.00  0.00    +0.196 C 
BRANCH   2   3
ATOM      3  O   UNL     1     152.979 153.367 150.058  0.00  0.00    -0.310 OA
BRANCH   3   4
ATOM      4  P   UNL     1     151.711 154.219 150.664  0.00  0.00    +0.214 P 
ATOM      5  O   UNL     1     151.653 155.569 150.035  0.00  0.00    -0.517 OA
ATOM      6  O   UNL     1     150.571 153.260 150.682  0.00  0.00    -0.437 OA
BRANCH   4   7
ATOM      7  O   UNL     1     152.216 154.511 152.210  0.00  0.00    -0.312 OA
BRANCH   7   8
ATOM      8  C   UNL     1     153.402 153.911 152.671  0.00  0.00    +0.170 C 
BRANCH   8   9
ATOM      9  C   UNL     1     154.439 154.994 152.872  0.00  0.00    +0.142 C 
ATOM     10  N   UNL     1     155.487 154.953 151.823  0.00  0.00    -0.129 NA
ENDBRANCH   8   9
ENDBRANCH   7   8
ENDBRANCH   4   7
ENDBRANCH   3   4
ENDBRANCH   2   3
ENDBRANCH   1   2
BRANCH   1  11
ATOM     11  C   UNL     1     153.256 151.105 147.143  0.00  0.00    +0.254 C 
BRANCH  11  12
ATOM     12  O   UNL     1     154.338 151.339 146.247  0.00  0.00    -0.444 OA
BRANCH  12  13
ATOM     13  C   UNL     1     154.058 151.675 144.991  0.00  0.00    +0.317 C 
ATOM     14  O   UNL     1     154.343 152.744 144.520  0.00  0.00    -0.250 OA
BRANCH  13  15
ATOM     15  C   UNL     1     153.365 150.554 144.272  0.00  0.00    +0.110 C 
BRANCH  15  16
ATOM     16  C   UNL     1     154.207 149.891 143.195  0.00  0.00    +0.012 C 
BRANCH  16  17
ATOM     17  C   UNL     1     154.204 148.377 143.354  0.00  0.00    +0.001 C 
BRANCH  17  18
ATOM     18  C   UNL     1     154.126 147.922 144.804  0.00  0.00    +0.000 C 
BRANCH  18  19
ATOM     19  C   UNL     1     153.183 146.746 145.015  0.00  0.00    +0.000 C 
BRANCH  19  20
ATOM     20  C   UNL     1     153.213 145.744 143.869  0.00  0.00    +0.000 C 
BRANCH  20  21
ATOM     21  C   UNL     1     151.903 144.989 143.702  0.00  0.00    +0.000 C 
BRANCH  21  22
ATOM     22  C   UNL     1     152.058 143.644 143.006  0.00  0.00    +0.000 C 
BRANCH  22  23
ATOM     23  C   UNL     1     151.262 143.551 141.710  0.00  0.00    +0.000 C 
BRANCH  23  24
ATOM     24  C   UNL     1     150.024 142.672 141.824  0.00  0.00    +0.000 C 
BRANCH  24  25
ATOM     25  C   UNL     1     148.735 143.474 141.943  0.00  0.00    +0.000 C 
BRANCH  25  26
ATOM     26  C   UNL     1     147.525 142.794 141.321  0.00  0.00    +0.000 C 
BRANCH  26  27
ATOM     27  C   UNL     1     146.499 143.785 140.792  0.00  0.00    +0.000 C 
BRANCH  27  28
ATOM     28  C   UNL     1     145.424 144.138 141.810  0.00  0.00    +0.000 C 
BRANCH  28  29
ATOM     29  C   UNL     1     144.626 145.379 141.435  0.00  0.00    +0.000 C 
ATOM     30  C   UNL     1     144.254 145.434 139.958  0.00  0.00    +0.000 C 
ENDBRANCH  28  29
ENDBRANCH  27  28
ENDBRANCH  26  27
ENDBRANCH  25  26
ENDBRANCH  24  25
ENDBRANCH  23  24
ENDBRANCH  22  23
ENDBRANCH  21  22
ENDBRANCH  20  21
ENDBRANCH  19  20
ENDBRANCH  18  19
ENDBRANCH  17  18
ENDBRANCH  16  17
ENDBRANCH  15  16
ENDBRANCH  13  15
ENDBRANCH  12  13
ENDBRANCH  11  12
ENDBRANCH   1  11
BRANCH   1  31
ATOM     31  O   UNL     1     151.910 153.004 147.171  0.00  0.00    -0.446 OA
BRANCH  31  32
ATOM     32  C   UNL     1     150.779 152.377 146.929  0.00  0.00    +0.317 C 
ATOM     33  O   UNL     1     150.146 151.796 147.784  0.00  0.00    -0.250 OA
BRANCH  32  34
ATOM     34  C   UNL     1     150.376 152.487 145.484  0.00  0.00    +0.110 C 
BRANCH  34  35
ATOM     35  C   UNL     1     149.429 151.401 145.003  0.00  0.00    +0.012 C 
BRANCH  35  36
ATOM     36  C   UNL     1     149.278 151.429 143.489  0.00  0.00    +0.001 C 
BRANCH  36  37
ATOM     37  C   UNL     1     148.733 150.127 142.918  0.00  0.00    +0.000 C 
BRANCH  37  38
ATOM     38  C   UNL     1     149.111 148.918 143.762  0.00  0.00    +0.000 C 
BRANCH  38  39
ATOM     39  C   UNL     1     150.423 148.268 143.346  0.00  0.00    +0.000 C 
BRANCH  39  40
ATOM     40  C   UNL     1     150.888 148.674 141.954  0.00  0.00    +0.000 C 
BRANCH  40  41
ATOM     41  C   UNL     1     150.951 147.507 140.976  0.00  0.00    +0.000 C 
BRANCH  41  42
ATOM     42  C   UNL     1     149.695 146.645 140.985  0.00  0.00    +0.000 C 
BRANCH  42  43
ATOM     43  C   UNL     1     149.199 146.270 139.595  0.00  0.00    +0.000 C 
BRANCH  43  44
ATOM     44  C   UNL     1     147.911 146.988 139.208  0.00  0.00    +0.000 C 
ATOM     45  C   UNL     1     147.265 147.748 140.360  0.00  0.00    +0.000 C 
ENDBRANCH  43  44
ENDBRANCH  42  43
ENDBRANCH  41  42
ENDBRANCH  40  41
ENDBRANCH  39  40
ENDBRANCH  38  39
ENDBRANCH  37  38
ENDBRANCH  36  37
ENDBRANCH  35  36
ENDBRANCH  34  35
ENDBRANCH  32  34
ENDBRANCH  31  32
ENDBRANCH   1  31
TORSDOF 37
ENDMDL
MODEL 7
REMARK VINA RESULT:      -5.9      1.734      4.934
REMARK  Name = 3PE
REMARK  37 active torsions:
REMARK  status: ('A' for Active; 'I' for Inactive)
REMARK    1  A    between atoms: P_1  and  O_3
REMARK    2  A    between atoms: P_1  and  O_5
REMARK    3  A    between atoms: O_3  and  C_9
REMARK    4  A    between atoms: O_5  and  C_7
REMARK    5  A    between atoms: C_7  and  C_8
REMARK    6  A    between atoms: C_9  and  C_10
REMARK    7  A    between atoms: C_10  and  C_11
REMARK    8  A    between atoms: C_10  and  O_31
REMARK    9  A    between atoms: C_11  and  O_12
REMARK   10  A    between atoms: O_12  and  C_14
REMARK   11  A    between atoms: C_14  and  C_15
REMARK   12  A    between atoms: C_15  and  C_16
REMARK   13  A    between atoms: C_16  and  C_17
REMARK   14  A    between atoms: C_17  and  C_18
REMARK   15  A    between atoms: C_18  and  C_19
REMARK   16  A    between atoms: C_19  and  C_20
REMARK   17  A    between atoms: C_20  and  C_21
REMARK   18  A    between atoms: C_21  and  C_22
REMARK   19  A    between atoms: C_22  and  C_23
REMARK   20  A    between atoms: C_23  and  C_24
REMARK   21  A    between atoms: C_24  and  C_25
REMARK   22  A    between atoms: C_25  and  C_26
REMARK   23  A    between atoms: C_26  and  C_27
REMARK   24  A    between atoms: C_27  and  C_28
REMARK   25  A    between atoms: C_28  and  C_29
REMARK   26  A    between atoms: O_31  and  C_33
REMARK   27  A    between atoms: C_33  and  C_34
REMARK   28  A    between atoms: C_34  and  C_35
REMARK   29  A    between atoms: C_35  and  C_36
REMARK   30  A    between atoms: C_36  and  C_37
REMARK   31  A    between atoms: C_37  and  C_38
REMARK   32  A    between atoms: C_38  and  C_39
REMARK   33  A    between atoms: C_39  and  C_40
REMARK   34  A    between atoms: C_40  and  C_41
REMARK   35  A    between atoms: C_41  and  C_42
REMARK   36  A    between atoms: C_42  and  C_43
REMARK   37  A    between atoms: C_43  and  C_44
REMARK                            x       y       z     vdW  Elec       q    Type
REMARK                         _______ _______ _______ _____ _____    ______ ____
ROOT
ATOM      1  C   UNL     1     151.315 154.271 147.794  0.00  0.00    +0.242 C 
ENDROOT
BRANCH   1   2
ATOM      2  C   UNL     1     151.994 155.610 148.065  0.00  0.00    +0.196 C 
BRANCH   2   3
ATOM      3  O   UNL     1     151.878 155.903 149.437  0.00  0.00    -0.310 OA
BRANCH   3   4
ATOM      4  P   UNL     1     152.361 154.794 150.550  0.00  0.00    +0.214 P 
ATOM      5  O   UNL     1     151.225 153.895 150.904  0.00  0.00    -0.517 OA
ATOM      6  O   UNL     1     153.686 154.311 150.069  0.00  0.00    -0.437 OA
BRANCH   4   7
ATOM      7  O   UNL     1     152.567 155.738 151.891  0.00  0.00    -0.312 OA
BRANCH   7   8
ATOM      8  C   UNL     1     153.871 156.067 152.306  0.00  0.00    +0.170 C 
BRANCH   8   9
ATOM      9  C   UNL     1     154.303 155.073 153.360  0.00  0.00    +0.142 C 
ATOM     10  N   UNL     1     153.156 154.606 154.179  0.00  0.00    -0.129 NA
ENDBRANCH   8   9
ENDBRANCH   7   8
ENDBRANCH   4   7
ENDBRANCH   3   4
ENDBRANCH   2   3
ENDBRANCH   1   2
BRANCH   1  11
ATOM     11  C   UNL     1     150.111 154.433 146.890  0.00  0.00    +0.254 C 
BRANCH  11  12
ATOM     12  O   UNL     1     149.046 153.706 147.493  0.00  0.00    -0.444 OA
BRANCH  12  13
ATOM     13  C   UNL     1     148.147 153.128 146.703  0.00  0.00    +0.317 C 
ATOM     14  O   UNL     1     146.961 153.204 146.892  0.00  0.00    -0.250 OA
BRANCH  13  15
ATOM     15  C   UNL     1     148.810 152.398 145.570  0.00  0.00    +0.110 C 
BRANCH  15  16
ATOM     16  C   UNL     1     148.506 150.911 145.525  0.00  0.00    +0.012 C 
BRANCH  16  17
ATOM     17  C   UNL     1     147.669 150.560 144.304  0.00  0.00    +0.001 C 
BRANCH  17  18
ATOM     18  C   UNL     1     148.500 150.295 143.057  0.00  0.00    +0.000 C 
BRANCH  18  19
ATOM     19  C   UNL     1     147.934 149.187 142.181  0.00  0.00    +0.000 C 
BRANCH  19  20
ATOM     20  C   UNL     1     146.668 148.563 142.751  0.00  0.00    +0.000 C 
BRANCH  20  21
ATOM     21  C   UNL     1     146.848 147.105 143.148  0.00  0.00    +0.000 C 
BRANCH  21  22
ATOM     22  C   UNL     1     145.991 146.142 142.339  0.00  0.00    +0.000 C 
BRANCH  22  23
ATOM     23  C   UNL     1     145.633 146.679 140.959  0.00  0.00    +0.000 C 
BRANCH  23  24
ATOM     24  C   UNL     1     146.455 146.057 139.838  0.00  0.00    +0.000 C 
BRANCH  24  25
ATOM     25  C   UNL     1     147.580 146.960 139.354  0.00  0.00    +0.000 C 
BRANCH  25  26
ATOM     26  C   UNL     1     148.950 146.298 139.362  0.00  0.00    +0.000 C 
BRANCH  26  27
ATOM     27  C   UNL     1     149.987 147.099 140.134  0.00  0.00    +0.000 C 
BRANCH  27  28
ATOM     28  C   UNL     1     150.632 146.311 141.266  0.00  0.00    +0.000 C 
BRANCH  28  29
ATOM     29  C   UNL     1     149.737 145.210 141.817  0.00  0.00    +0.000 C 
ATOM     30  C   UNL     1     150.511 144.074 142.475  0.00  0.00    +0.000 C 
ENDBRANCH  28  29
ENDBRANCH  27  28
ENDBRANCH  26  27
ENDBRANCH  25  26
ENDBRANCH  24  25
ENDBRANCH  23  24
ENDBRANCH  22  23
ENDBRANCH  21  22
ENDBRANCH  20  21
ENDBRANCH  19  20
ENDBRANCH  18  19
ENDBRANCH  17  18
ENDBRANCH  16  17
ENDBRANCH  15  16
ENDBRANCH  13  15
ENDBRANCH  12  13
ENDBRANCH  11  12
ENDBRANCH   1  11
BRANCH   1  31
ATOM     31  O   UNL     1     152.143 153.318 147.108  0.00  0.00    -0.446 OA
BRANCH  31  32
ATOM     32  C   UNL     1     152.224 152.050 147.453  0.00  0.00    +0.317 C 
ATOM     33  O   UNL     1     152.271 151.678 148.606  0.00  0.00    -0.250 OA
BRANCH  32  34
ATOM     34  C   UNL     1     152.236 151.143 146.253  0.00  0.00    +0.110 C 
BRANCH  34  35
ATOM     35  C   UNL     1     152.760 151.782 144.978  0.00  0.00    +0.012 C 
BRANCH  35  36
ATOM     36  C   UNL     1     152.013 151.270 143.755  0.00  0.00    +0.001 C 
BRANCH  36  37
ATOM     37  C   UNL     1     152.924 150.596 142.738  0.00  0.00    +0.000 C 
BRANCH  37  38
ATOM     38  C   UNL     1     154.243 150.141 143.347  0.00  0.00    +0.000 C 
BRANCH  38  39
ATOM     39  C   UNL     1     154.313 148.642 143.602  0.00  0.00    +0.000 C 
BRANCH  39  40
ATOM     40  C   UNL     1     154.101 148.262 145.062  0.00  0.00    +0.000 C 
BRANCH  40  41
ATOM     41  C   UNL     1     153.492 146.877 145.242  0.00  0.00    +0.000 C 
BRANCH  41  42
ATOM     42  C   UNL     1     152.169 146.701 144.507  0.00  0.00    +0.000 C 
BRANCH  42  43
ATOM     43  C   UNL     1     151.165 147.813 144.778  0.00  0.00    +0.000 C 
BRANCH  43  44
ATOM     44  C   UNL     1     149.730 147.310 144.875  0.00  0.00    +0.000 C 
ATOM     45  C   UNL     1     149.095 147.532 146.243  0.00  0.00    +0.000 C 
ENDBRANCH  43  44
ENDBRANCH  42  43
ENDBRANCH  41  42
ENDBRANCH  40  41
ENDBRANCH  39  40
ENDBRANCH  38  39
ENDBRANCH  37  38
ENDBRANCH  36  37
ENDBRANCH  35  36
ENDBRANCH  34  35
ENDBRANCH  32  34
ENDBRANCH  31  32
ENDBRANCH   1  31
TORSDOF 37
ENDMDL
MODEL 8
REMARK VINA RESULT:      -5.9      1.832      5.241
REMARK  Name = 3PE
REMARK  37 active torsions:
REMARK  status: ('A' for Active; 'I' for Inactive)
REMARK    1  A    between atoms: P_1  and  O_3
REMARK    2  A    between atoms: P_1  and  O_5
REMARK    3  A    between atoms: O_3  and  C_9
REMARK    4  A    between atoms: O_5  and  C_7
REMARK    5  A    between atoms: C_7  and  C_8
REMARK    6  A    between atoms: C_9  and  C_10
REMARK    7  A    between atoms: C_10  and  C_11
REMARK    8  A    between atoms: C_10  and  O_31
REMARK    9  A    between atoms: C_11  and  O_12
REMARK   10  A    between atoms: O_12  and  C_14
REMARK   11  A    between atoms: C_14  and  C_15
REMARK   12  A    between atoms: C_15  and  C_16
REMARK   13  A    between atoms: C_16  and  C_17
REMARK   14  A    between atoms: C_17  and  C_18
REMARK   15  A    between atoms: C_18  and  C_19
REMARK   16  A    between atoms: C_19  and  C_20
REMARK   17  A    between atoms: C_20  and  C_21
REMARK   18  A    between atoms: C_21  and  C_22
REMARK   19  A    between atoms: C_22  and  C_23
REMARK   20  A    between atoms: C_23  and  C_24
REMARK   21  A    between atoms: C_24  and  C_25
REMARK   22  A    between atoms: C_25  and  C_26
REMARK   23  A    between atoms: C_26  and  C_27
REMARK   24  A    between atoms: C_27  and  C_28
REMARK   25  A    between atoms: C_28  and  C_29
REMARK   26  A    between atoms: O_31  and  C_33
REMARK   27  A    between atoms: C_33  and  C_34
REMARK   28  A    between atoms: C_34  and  C_35
REMARK   29  A    between atoms: C_35  and  C_36
REMARK   30  A    between atoms: C_36  and  C_37
REMARK   31  A    between atoms: C_37  and  C_38
REMARK   32  A    between atoms: C_38  and  C_39
REMARK   33  A    between atoms: C_39  and  C_40
REMARK   34  A    between atoms: C_40  and  C_41
REMARK   35  A    between atoms: C_41  and  C_42
REMARK   36  A    between atoms: C_42  and  C_43
REMARK   37  A    between atoms: C_43  and  C_44
REMARK                            x       y       z     vdW  Elec       q    Type
REMARK                         _______ _______ _______ _____ _____    ______ ____
ROOT
ATOM      1  C   UNL     1     150.676 153.281 147.889  0.00  0.00    +0.242 C 
ENDROOT
BRANCH   1   2
ATOM      2  C   UNL     1     150.361 154.332 148.948  0.00  0.00    +0.196 C 
BRANCH   2   3
ATOM      3  O   UNL     1     151.476 155.181 149.083  0.00  0.00    -0.310 OA
BRANCH   3   4
ATOM      4  P   UNL     1     151.589 156.175 150.387  0.00  0.00    +0.214 P 
ATOM      5  O   UNL     1     152.026 157.535 149.959  0.00  0.00    -0.517 OA
ATOM      6  O   UNL     1     150.361 155.909 151.187  0.00  0.00    -0.437 OA
BRANCH   4   7
ATOM      7  O   UNL     1     152.906 155.550 151.167  0.00  0.00    -0.312 OA
BRANCH   7   8
ATOM      8  C   UNL     1     152.860 154.226 151.640  0.00  0.00    +0.170 C 
BRANCH   8   9
ATOM      9  C   UNL     1     154.093 153.500 151.151  0.00  0.00    +0.142 C 
ATOM     10  N   UNL     1     154.700 154.176 149.978  0.00  0.00    -0.129 NA
ENDBRANCH   8   9
ENDBRANCH   7   8
ENDBRANCH   4   7
ENDBRANCH   3   4
ENDBRANCH   2   3
ENDBRANCH   1   2
BRANCH   1  11
ATOM     11  C   UNL     1     149.536 153.127 146.904  0.00  0.00    +0.254 C 
BRANCH  11  12
ATOM     12  O   UNL     1     149.262 151.732 146.809  0.00  0.00    -0.444 OA
BRANCH  12  13
ATOM     13  C   UNL     1     149.352 151.149 145.618  0.00  0.00    +0.317 C 
ATOM     14  O   UNL     1     150.395 151.005 145.036  0.00  0.00    -0.250 OA
BRANCH  13  15
ATOM     15  C   UNL     1     148.004 150.704 145.128  0.00  0.00    +0.110 C 
BRANCH  15  16
ATOM     16  C   UNL     1     147.896 150.595 143.617  0.00  0.00    +0.012 C 
BRANCH  16  17
ATOM     17  C   UNL     1     147.059 149.389 143.215  0.00  0.00    +0.001 C 
BRANCH  17  18
ATOM     18  C   UNL     1     145.961 149.722 142.215  0.00  0.00    +0.000 C 
BRANCH  18  19
ATOM     19  C   UNL     1     146.015 148.867 140.957  0.00  0.00    +0.000 C 
BRANCH  19  20
ATOM     20  C   UNL     1     146.956 147.677 141.083  0.00  0.00    +0.000 C 
BRANCH  20  21
ATOM     21  C   UNL     1     147.287 147.034 139.744  0.00  0.00    +0.000 C 
BRANCH  21  22
ATOM     22  C   UNL     1     147.086 145.526 139.724  0.00  0.00    +0.000 C 
BRANCH  22  23
ATOM     23  C   UNL     1     146.947 144.926 141.117  0.00  0.00    +0.000 C 
BRANCH  23  24
ATOM     24  C   UNL     1     147.838 143.712 141.343  0.00  0.00    +0.000 C 
BRANCH  24  25
ATOM     25  C   UNL     1     149.067 144.026 142.185  0.00  0.00    +0.000 C 
BRANCH  25  26
ATOM     26  C   UNL     1     150.379 143.934 141.422  0.00  0.00    +0.000 C 
BRANCH  26  27
ATOM     27  C   UNL     1     150.781 145.251 140.776  0.00  0.00    +0.000 C 
BRANCH  27  28
ATOM     28  C   UNL     1     150.372 146.469 141.594  0.00  0.00    +0.000 C 
BRANCH  28  29
ATOM     29  C   UNL     1     150.828 147.785 140.979  0.00  0.00    +0.000 C 
ATOM     30  C   UNL     1     150.838 148.943 141.970  0.00  0.00    +0.000 C 
ENDBRANCH  28  29
ENDBRANCH  27  28
ENDBRANCH  26  27
ENDBRANCH  25  26
ENDBRANCH  24  25
ENDBRANCH  23  24
ENDBRANCH  22  23
ENDBRANCH  21  22
ENDBRANCH  20  21
ENDBRANCH  19  20
ENDBRANCH  18  19
ENDBRANCH  17  18
ENDBRANCH  16  17
ENDBRANCH  15  16
ENDBRANCH  13  15
ENDBRANCH  12  13
ENDBRANCH  11  12
ENDBRANCH   1  11
BRANCH   1  31
ATOM     31  O   UNL     1     151.811 153.594 147.065  0.00  0.00    -0.446 OA
BRANCH  31  32
ATOM     32  C   UNL     1     152.720 152.707 146.719  0.00  0.00    +0.317 C 
ATOM     33  O   UNL     1     152.884 151.661 147.310  0.00  0.00    -0.250 OA
BRANCH  32  34
ATOM     34  C   UNL     1     153.501 153.148 145.513  0.00  0.00    +0.110 C 
BRANCH  34  35
ATOM     35  C   UNL     1     154.271 152.041 144.814  0.00  0.00    +0.012 C 
BRANCH  35  36
ATOM     36  C   UNL     1     153.392 151.298 143.818  0.00  0.00    +0.001 C 
BRANCH  36  37
ATOM     37  C   UNL     1     154.187 150.440 142.843  0.00  0.00    +0.000 C 
BRANCH  37  38
ATOM     38  C   UNL     1     154.626 149.118 143.456  0.00  0.00    +0.000 C 
BRANCH  38  39
ATOM     39  C   UNL     1     154.172 147.897 142.668  0.00  0.00    +0.000 C 
BRANCH  39  40
ATOM     40  C   UNL     1     153.609 146.784 143.542  0.00  0.00    +0.000 C 
BRANCH  40  41
ATOM     41  C   UNL     1     153.735 147.067 145.034  0.00  0.00    +0.000 C 
BRANCH  41  42
ATOM     42  C   UNL     1     152.472 146.735 145.819  0.00  0.00    +0.000 C 
BRANCH  42  43
ATOM     43  C   UNL     1     151.259 146.459 144.940  0.00  0.00    +0.000 C 
BRANCH  43  44
ATOM     44  C   UNL     1     150.121 147.446 145.167  0.00  0.00    +0.000 C 
ATOM     45  C   UNL     1     148.752 146.902 144.776  0.00  0.00    +0.000 C 
ENDBRANCH  43  44
ENDBRANCH  42  43
ENDBRANCH  41  42
ENDBRANCH  40  41
ENDBRANCH  39  40
ENDBRANCH  38  39
ENDBRANCH  37  38
ENDBRANCH  36  37
ENDBRANCH  35  36
ENDBRANCH  34  35
ENDBRANCH  32  34
ENDBRANCH  31  32
ENDBRANCH   1  31
TORSDOF 37
ENDMDL
MODEL 9
REMARK VINA RESULT:      -5.8      2.930      4.891
REMARK  Name = 3PE
REMARK  37 active torsions:
REMARK  status: ('A' for Active; 'I' for Inactive)
REMARK    1  A    between atoms: P_1  and  O_3
REMARK    2  A    between atoms: P_1  and  O_5
REMARK    3  A    between atoms: O_3  and  C_9
REMARK    4  A    between atoms: O_5  and  C_7
REMARK    5  A    between atoms: C_7  and  C_8
REMARK    6  A    between atoms: C_9  and  C_10
REMARK    7  A    between atoms: C_10  and  C_11
REMARK    8  A    between atoms: C_10  and  O_31
REMARK    9  A    between atoms: C_11  and  O_12
REMARK   10  A    between atoms: O_12  and  C_14
REMARK   11  A    between atoms: C_14  and  C_15
REMARK   12  A    between atoms: C_15  and  C_16
REMARK   13  A    between atoms: C_16  and  C_17
REMARK   14  A    between atoms: C_17  and  C_18
REMARK   15  A    between atoms: C_18  and  C_19
REMARK   16  A    between atoms: C_19  and  C_20
REMARK   17  A    between atoms: C_20  and  C_21
REMARK   18  A    between atoms: C_21  and  C_22
REMARK   19  A    between atoms: C_22  and  C_23
REMARK   20  A    between atoms: C_23  and  C_24
REMARK   21  A    between atoms: C_24  and  C_25
REMARK   22  A    between atoms: C_25  and  C_26
REMARK   23  A    between atoms: C_26  and  C_27
REMARK   24  A    between atoms: C_27  and  C_28
REMARK   25  A    between atoms: C_28  and  C_29
REMARK   26  A    between atoms: O_31  and  C_33
REMARK   27  A    between atoms: C_33  and  C_34
REMARK   28  A    between atoms: C_34  and  C_35
REMARK   29  A    between atoms: C_35  and  C_36
REMARK   30  A    between atoms: C_36  and  C_37
REMARK   31  A    between atoms: C_37  and  C_38
REMARK   32  A    between atoms: C_38  and  C_39
REMARK   33  A    between atoms: C_39  and  C_40
REMARK   34  A    between atoms: C_40  and  C_41
REMARK   35  A    between atoms: C_41  and  C_42
REMARK   36  A    between atoms: C_42  and  C_43
REMARK   37  A    between atoms: C_43  and  C_44
REMARK                            x       y       z     vdW  Elec       q    Type
REMARK                         _______ _______ _______ _____ _____    ______ ____
ROOT
ATOM      1  C   UNL     1     153.291 152.044 147.105  0.00  0.00    +0.242 C 
ENDROOT
BRANCH   1   2
ATOM      2  C   UNL     1     153.223 151.621 148.569  0.00  0.00    +0.196 C 
BRANCH   2   3
ATOM      3  O   UNL     1     152.806 152.725 149.337  0.00  0.00    -0.310 OA
BRANCH   3   4
ATOM      4  P   UNL     1     152.252 152.491 150.866  0.00  0.00    +0.214 P 
ATOM      5  O   UNL     1     150.773 152.310 150.855  0.00  0.00    -0.517 OA
ATOM      6  O   UNL     1     153.204 151.522 151.480  0.00  0.00    -0.437 OA
BRANCH   4   7
ATOM      7  O   UNL     1     152.475 153.986 151.533  0.00  0.00    -0.312 OA
BRANCH   7   8
ATOM      8  C   UNL     1     153.745 154.589 151.462  0.00  0.00    +0.170 C 
BRANCH   8   9
ATOM      9  C   UNL     1     154.232 154.848 152.870  0.00  0.00    +0.142 C 
ATOM     10  N   UNL     1     153.263 154.365 153.884  0.00  0.00    -0.129 NA
ENDBRANCH   8   9
ENDBRANCH   7   8
ENDBRANCH   4   7
ENDBRANCH   3   4
ENDBRANCH   2   3
ENDBRANCH   1   2
BRANCH   1  11
ATOM     11  C   UNL     1     153.893 150.957 146.241  0.00  0.00    +0.254 C 
BRANCH  11  12
ATOM     12  O   UNL     1     154.146 151.540 144.966  0.00  0.00    -0.444 OA
BRANCH  12  13
ATOM     13  C   UNL     1     153.983 150.787 143.883  0.00  0.00    +0.317 C 
ATOM     14  O   UNL     1     153.852 151.246 142.779  0.00  0.00    -0.250 OA
BRANCH  13  15
ATOM     15  C   UNL     1     153.995 149.326 144.230  0.00  0.00    +0.110 C 
BRANCH  15  16
ATOM     16  C   UNL     1     154.227 148.406 143.044  0.00  0.00    +0.012 C 
BRANCH  16  17
ATOM     17  C   UNL     1     153.879 146.966 143.393  0.00  0.00    +0.001 C 
BRANCH  17  18
ATOM     18  C   UNL     1     152.815 146.846 144.474  0.00  0.00    +0.000 C 
BRANCH  18  19
ATOM     19  C   UNL     1     152.083 145.512 144.451  0.00  0.00    +0.000 C 
BRANCH  19  20
ATOM     20  C   UNL     1     151.934 144.936 143.050  0.00  0.00    +0.000 C 
BRANCH  20  21
ATOM     21  C   UNL     1     150.615 144.209 142.840  0.00  0.00    +0.000 C 
BRANCH  21  22
ATOM     22  C   UNL     1     149.699 144.882 141.827  0.00  0.00    +0.000 C 
BRANCH  22  23
ATOM     23  C   UNL     1     150.462 145.571 140.704  0.00  0.00    +0.000 C 
BRANCH  23  24
ATOM     24  C   UNL     1     150.059 147.027 140.506  0.00  0.00    +0.000 C 
BRANCH  24  25
ATOM     25  C   UNL     1     150.872 147.990 141.360  0.00  0.00    +0.000 C 
BRANCH  25  26
ATOM     26  C   UNL     1     150.113 148.548 142.554  0.00  0.00    +0.000 C 
BRANCH  26  27
ATOM     27  C   UNL     1     148.607 148.367 142.433  0.00  0.00    +0.000 C 
BRANCH  27  28
ATOM     28  C   UNL     1     147.963 147.831 143.704  0.00  0.00    +0.000 C 
BRANCH  28  29
ATOM     29  C   UNL     1     148.962 147.190 144.658  0.00  0.00    +0.000 C 
ATOM     30  C   UNL     1     148.976 147.833 146.040  0.00  0.00    +0.000 C 
ENDBRANCH  28  29
ENDBRANCH  27  28
ENDBRANCH  26  27
ENDBRANCH  25  26
ENDBRANCH  24  25
ENDBRANCH  23  24
ENDBRANCH  22  23
ENDBRANCH  21  22
ENDBRANCH  20  21
ENDBRANCH  19  20
ENDBRANCH  18  19
ENDBRANCH  17  18
ENDBRANCH  16  17
ENDBRANCH  15  16
ENDBRANCH  13  15
ENDBRANCH  12  13
ENDBRANCH  11  12
ENDBRANCH   1  11
BRANCH   1  31
ATOM     31  O   UNL     1     152.010 152.301 146.505  0.00  0.00    -0.446 OA
BRANCH  31  32
ATOM     32  C   UNL     1     151.024 151.428 146.505  0.00  0.00    +0.317 C 
ATOM     33  O   UNL     1     150.546 150.968 147.520  0.00  0.00    -0.250 OA
BRANCH  32  34
ATOM     34  C   UNL     1     150.572 151.096 145.110  0.00  0.00    +0.110 C 
BRANCH  34  35
ATOM     35  C   UNL     1     149.131 151.465 144.804  0.00  0.00    +0.012 C 
BRANCH  35  36
ATOM     36  C   UNL     1     148.765 152.815 145.404  0.00  0.00    +0.001 C 
BRANCH  36  37
ATOM     37  C   UNL     1     147.574 152.746 146.349  0.00  0.00    +0.000 C 
BRANCH  37  38
ATOM     38  C   UNL     1     147.474 153.968 147.251  0.00  0.00    +0.000 C 
BRANCH  38  39
ATOM     39  C   UNL     1     146.116 154.125 147.921  0.00  0.00    +0.000 C 
BRANCH  39  40
ATOM     40  C   UNL     1     145.937 155.461 148.630  0.00  0.00    +0.000 C 
BRANCH  40  41
ATOM     41  C   UNL     1     146.543 155.487 150.027  0.00  0.00    +0.000 C 
BRANCH  41  42
ATOM     42  C   UNL     1     147.701 156.468 150.163  0.00  0.00    +0.000 C 
BRANCH  42  43
ATOM     43  C   UNL     1     147.263 157.892 150.481  0.00  0.00    +0.000 C 
BRANCH  43  44
ATOM     44  C   UNL     1     148.253 158.943 149.992  0.00  0.00    +0.000 C 
ATOM     45  C   UNL     1     148.665 159.941 151.067  0.00  0.00    +0.000 C 
ENDBRANCH  43  44
ENDBRANCH  42  43
ENDBRANCH  41  42
ENDBRANCH  40  41
ENDBRANCH  39  40
ENDBRANCH  38  39
ENDBRANCH  37  38
ENDBRANCH  36  37
ENDBRANCH  35  36
ENDBRANCH  34  35
ENDBRANCH  32  34
ENDBRANCH  31  32
ENDBRANCH   1  31
TORSDOF 37
ENDMDL
MODEL 10
REMARK VINA RESULT:      -5.8      3.433      5.965
REMARK  Name = 3PE
REMARK  37 active torsions:
REMARK  status: ('A' for Active; 'I' for Inactive)
REMARK    1  A    between atoms: P_1  and  O_3
REMARK    2  A    between atoms: P_1  and  O_5
REMARK    3  A    between atoms: O_3  and  C_9
REMARK    4  A    between atoms: O_5  and  C_7
REMARK    5  A    between atoms: C_7  and  C_8
REMARK    6  A    between atoms: C_9  and  C_10
REMARK    7  A    between atoms: C_10  and  C_11
REMARK    8  A    between atoms: C_10  and  O_31
REMARK    9  A    between atoms: C_11  and  O_12
REMARK   10  A    between atoms: O_12  and  C_14
REMARK   11  A    between atoms: C_14  and  C_15
REMARK   12  A    between atoms: C_15  and  C_16
REMARK   13  A    between atoms: C_16  and  C_17
REMARK   14  A    between atoms: C_17  and  C_18
REMARK   15  A    between atoms: C_18  and  C_19
REMARK   16  A    between atoms: C_19  and  C_20
REMARK   17  A    between atoms: C_20  and  C_21
REMARK   18  A    between atoms: C_21  and  C_22
REMARK   19  A    between atoms: C_22  and  C_23
REMARK   20  A    between atoms: C_23  and  C_24
REMARK   21  A    between atoms: C_24  and  C_25
REMARK   22  A    between atoms: C_25  and  C_26
REMARK   23  A    between atoms: C_26  and  C_27
REMARK   24  A    between atoms: C_27  and  C_28
REMARK   25  A    between atoms: C_28  and  C_29
REMARK   26  A    between atoms: O_31  and  C_33
REMARK   27  A    between atoms: C_33  and  C_34
REMARK   28  A    between atoms: C_34  and  C_35
REMARK   29  A    between atoms: C_35  and  C_36
REMARK   30  A    between atoms: C_36  and  C_37
REMARK   31  A    between atoms: C_37  and  C_38
REMARK   32  A    between atoms: C_38  and  C_39
REMARK   33  A    between atoms: C_39  and  C_40
REMARK   34  A    between atoms: C_40  and  C_41
REMARK   35  A    between atoms: C_41  and  C_42
REMARK   36  A    between atoms: C_42  and  C_43
REMARK   37  A    between atoms: C_43  and  C_44
REMARK                            x       y       z     vdW  Elec       q    Type
REMARK                         _______ _______ _______ _____ _____    ______ ____
ROOT
ATOM      1  C   UNL     1     151.570 153.699 150.110  0.00  0.00    +0.242 C 
ENDROOT
BRANCH   1   2
ATOM      2  C   UNL     1     152.255 153.543 151.464  0.00  0.00    +0.196 C 
BRANCH   2   3
ATOM      3  O   UNL     1     153.350 154.427 151.518  0.00  0.00    -0.310 OA
BRANCH   3   4
ATOM      4  P   UNL     1     153.874 154.987 152.971  0.00  0.00    +0.214 P 
ATOM      5  O   UNL     1     153.200 154.250 154.078  0.00  0.00    -0.517 OA
ATOM      6  O   UNL     1     155.353 155.108 152.832  0.00  0.00    -0.437 OA
BRANCH   4   7
ATOM      7  O   UNL     1     153.195 156.493 153.011  0.00  0.00    -0.312 OA
BRANCH   7   8
ATOM      8  C   UNL     1     152.894 157.144 151.800  0.00  0.00    +0.170 C 
BRANCH   8   9
ATOM      9  C   UNL     1     152.330 158.511 152.119  0.00  0.00    +0.142 C 
ATOM     10  N   UNL     1     153.348 159.577 151.957  0.00  0.00    -0.129 NA
ENDBRANCH   8   9
ENDBRANCH   7   8
ENDBRANCH   4   7
ENDBRANCH   3   4
ENDBRANCH   2   3
ENDBRANCH   1   2
BRANCH   1  11
ATOM     11  C   UNL     1     152.073 152.677 149.113  0.00  0.00    +0.254 C 
BRANCH  11  12
ATOM     12  O   UNL     1     151.918 153.255 147.820  0.00  0.00    -0.444 OA
BRANCH  12  13
ATOM     13  C   UNL     1     152.327 152.560 146.763  0.00  0.00    +0.317 C 
ATOM     14  O   UNL     1     153.056 153.014 145.922  0.00  0.00    -0.250 OA
BRANCH  13  15
ATOM     15  C   UNL     1     151.768 151.166 146.782  0.00  0.00    +0.110 C 
BRANCH  15  16
ATOM     16  C   UNL     1     150.368 151.049 146.204  0.00  0.00    +0.012 C 
BRANCH  16  17
ATOM     17  C   UNL     1     150.343 151.465 144.741  0.00  0.00    +0.001 C 
BRANCH  17  18
ATOM     18  C   UNL     1     151.145 150.540 143.836  0.00  0.00    +0.000 C 
BRANCH  18  19
ATOM     19  C   UNL     1     152.099 151.281 142.912  0.00  0.00    +0.000 C 
BRANCH  19  20
ATOM     20  C   UNL     1     153.467 150.621 142.811  0.00  0.00    +0.000 C 
BRANCH  20  21
ATOM     21  C   UNL     1     153.846 149.840 144.060  0.00  0.00    +0.000 C 
BRANCH  21  22
ATOM     22  C   UNL     1     154.579 148.538 143.769  0.00  0.00    +0.000 C 
BRANCH  22  23
ATOM     23  C   UNL     1     153.942 147.737 142.641  0.00  0.00    +0.000 C 
BRANCH  23  24
ATOM     24  C   UNL     1     152.674 147.007 143.062  0.00  0.00    +0.000 C 
BRANCH  24  25
ATOM     25  C   UNL     1     152.900 146.039 144.215  0.00  0.00    +0.000 C 
BRANCH  25  26
ATOM     26  C   UNL     1     151.879 146.164 145.336  0.00  0.00    +0.000 C 
BRANCH  26  27
ATOM     27  C   UNL     1     151.092 147.465 145.276  0.00  0.00    +0.000 C 
BRANCH  27  28
ATOM     28  C   UNL     1     149.678 147.337 145.825  0.00  0.00    +0.000 C 
BRANCH  28  29
ATOM     29  C   UNL     1     148.627 147.156 144.739  0.00  0.00    +0.000 C 
ATOM     30  C   UNL     1     149.072 147.673 143.376  0.00  0.00    +0.000 C 
ENDBRANCH  28  29
ENDBRANCH  27  28
ENDBRANCH  26  27
ENDBRANCH  25  26
ENDBRANCH  24  25
ENDBRANCH  23  24
ENDBRANCH  22  23
ENDBRANCH  21  22
ENDBRANCH  20  21
ENDBRANCH  19  20
ENDBRANCH  18  19
ENDBRANCH  17  18
ENDBRANCH  16  17
ENDBRANCH  15  16
ENDBRANCH  13  15
ENDBRANCH  12  13
ENDBRANCH  11  12
ENDBRANCH   1  11
BRANCH   1  31
ATOM     31  O   UNL     1     150.149 153.489 150.140  0.00  0.00    -0.446 OA
BRANCH  31  32
ATOM     32  C   UNL     1     149.320 154.251 150.823  0.00  0.00    +0.317 C 
ATOM     33  O   UNL     1     148.348 153.818 151.405  0.00  0.00    -0.250 OA
BRANCH  32  34
ATOM     34  C   UNL     1     149.736 155.695 150.796  0.00  0.00    +0.110 C 
BRANCH  34  35
ATOM     35  C   UNL     1     149.044 156.538 149.739  0.00  0.00    +0.012 C 
BRANCH  35  36
ATOM     36  C   UNL     1     147.697 157.048 150.232  0.00  0.00    +0.001 C 
BRANCH  36  37
ATOM     37  C   UNL     1     146.982 157.926 149.214  0.00  0.00    +0.000 C 
BRANCH  37  38
ATOM     38  C   UNL     1     145.597 157.402 148.862  0.00  0.00    +0.000 C 
BRANCH  38  39
ATOM     39  C   UNL     1     145.360 155.962 149.295  0.00  0.00    +0.000 C 
BRANCH  39  40
ATOM     40  C   UNL     1     145.345 154.973 148.137  0.00  0.00    +0.000 C 
BRANCH  40  41
ATOM     41  C   UNL     1     146.479 153.957 148.197  0.00  0.00    +0.000 C 
BRANCH  41  42
ATOM     42  C   UNL     1     147.256 153.843 146.891  0.00  0.00    +0.000 C 
BRANCH  42  43
ATOM     43  C   UNL     1     148.754 154.065 147.048  0.00  0.00    +0.000 C 
BRANCH  43  44
ATOM     44  C   UNL     1     149.276 155.224 146.208  0.00  0.00    +0.000 C 
ATOM     45  C   UNL     1     148.240 156.314 145.960  0.00  0.00    +0.000 C 
ENDBRANCH  43  44
ENDBRANCH  42  43
ENDBRANCH  41  42
ENDBRANCH  40  41
ENDBRANCH  39  40
ENDBRANCH  38  39
ENDBRANCH  37  38
ENDBRANCH  36  37
ENDBRANCH  35  36
ENDBRANCH  34  35
ENDBRANCH  32  34
ENDBRANCH  31  32
ENDBRANCH   1  31
TORSDOF 37
ENDMDL
