MODEL 1
REMARK VINA RESULT:      -8.5      0.000      0.000
REMARK  16 active torsions:
REMARK  status: ('A' for Active; 'I' for Inactive)
REMARK    1  A    between atoms: O_2  and  C_22 
REMARK    2  A    between atoms: O_2  and  C_26 
REMARK    3  A    between atoms: O_4  and  C_18 
REMARK    4  A    between atoms: O_5  and  C_19 
REMARK    5  A    between atoms: O_6  and  C_25 
REMARK    6  A    between atoms: O_6  and  C_29 
REMARK    7  A    between atoms: O_7  and  C_20 
REMARK    8  A    between atoms: O_8  and  C_21 
REMARK    9  A    between atoms: O_9  and  C_23 
REMARK   10  A    between atoms: O_10  and  C_24 
REMARK   11  A    between atoms: O_13  and  C_35 
REMARK   12  A    between atoms: O_14  and  C_40 
REMARK   13  A    between atoms: O_15  and  C_41 
REMARK   14  A    between atoms: O_16  and  C_43 
REMARK   15  A    between atoms: C_17  and  C_26 
REMARK   16  A    between atoms: C_30  and  C_33 
ROOT
HETATM    1  O   UNK     0     165.334 172.810 171.639  0.00  0.00    -0.348 OA
HETATM    2  C   UNK     0     164.969 171.708 172.471  0.00  0.00     0.180 C 
HETATM    3  C   UNK     0     164.825 172.174 173.922  0.00  0.00     0.180 C 
HETATM    4  C   UNK     0     166.109 172.850 174.405  0.00  0.00     0.183 C 
HETATM    5  C   UNK     0     166.587 173.906 173.409  0.00  0.00     0.205 C 
HETATM    6  C   UNK     0     166.606 173.356 171.982  0.00  0.00     0.298 C 
ENDROOT
BRANCH   2   7
HETATM    7  C   UNK     0     163.663 171.136 171.929  0.00  0.00     0.205 C 
BRANCH   7   8
HETATM    8  O   UNK     0     163.874 170.679 170.601  0.00  0.00    -0.356 OA
BRANCH   8   9
HETATM    9  C   UNK     0     162.733 169.991 170.099  0.00  0.00     0.291 C 
HETATM   10  O   UNK     0     162.838 168.573 170.255  0.00  0.00    -0.351 OA
HETATM   11  C   UNK     0     163.902 167.978 169.505  0.00  0.00     0.152 C 
HETATM   12  C   UNK     0     163.734 168.245 168.003  0.00  0.00     0.178 C 
HETATM   13  C   UNK     0     163.892 166.484 169.824  0.00  0.00     0.042 C 
HETATM   14  C   UNK     0     163.601 169.747 167.748  0.00  0.00     0.183 C 
HETATM   15  C   UNK     0     162.513 170.358 168.633  0.00  0.00     0.204 C 
BRANCH  12  16
HETATM   16  O   UNK     0     164.873 167.773 167.287  0.00  0.00    -0.390 OA
HETATM   17  H   UNK     0     165.450 168.535 167.108  0.00  0.00     0.210 HD
ENDBRANCH  12  16
BRANCH  14  18
HETATM   18  O   UNK     0     163.289 169.965 166.374  0.00  0.00    -0.390 OA
HETATM   19  H   UNK     0     162.507 170.541 166.335  0.00  0.00     0.210 HD
ENDBRANCH  14  18
BRANCH  15  20
HETATM   20  O   UNK     0     161.232 169.857 168.246  0.00  0.00    -0.388 OA
HETATM   21  H   UNK     0     161.328 168.917 168.016  0.00  0.00     0.210 HD
ENDBRANCH  15  20
ENDBRANCH   8   9
ENDBRANCH   7   8
ENDBRANCH   2   7
BRANCH   6  22
HETATM   22  O   UNK     0     166.922 174.433 171.100  0.00  0.00    -0.311 OA
BRANCH  22  23
HETATM   23  C   UNK     0     167.840 174.054 170.146  0.00  0.00     0.157 A 
HETATM   24  C   UNK     0     167.511 173.815 168.864  0.00  0.00     0.124 A 
HETATM   25  O   UNK     0     168.403 173.401 167.887  0.00  0.00    -0.306 OA
HETATM   26  C   UNK     0     169.721 173.239 168.231  0.00  0.00     0.096 A 
HETATM   27  C   UNK     0     170.197 173.461 169.521  0.00  0.00     0.084 A 
HETATM   28  C   UNK     0     170.596 172.832 167.223  0.00  0.00     0.075 A 
HETATM   29  C   UNK     0     169.253 173.887 170.565  0.00  0.00     0.223 A 
HETATM   30  C   UNK     0     171.551 173.278 169.814  0.00  0.00     0.085 A 
HETATM   31  O   UNK     0     169.612 174.092 171.716  0.00  0.00    -0.284 OA
HETATM   32  C   UNK     0     172.425 172.871 168.805  0.00  0.00     0.074 A 
HETATM   33  C   UNK     0     171.949 172.649 167.513  0.00  0.00     0.071 A 
BRANCH  24  34
HETATM   34  C   UNK     0     166.132 173.949 168.362  0.00  0.00     0.004 A 
HETATM   35  C   UNK     0     165.710 173.192 167.268  0.00  0.00     0.053 A 
HETATM   36  C   UNK     0     164.405 173.317 166.794  0.00  0.00     0.099 A 
HETATM   37  C   UNK     0     163.521 174.201 167.411  0.00  0.00     0.098 A 
HETATM   38  C   UNK     0     163.942 174.959 168.504  0.00  0.00     0.040 A 
HETATM   39  C   UNK     0     165.247 174.833 168.979  0.00  0.00     0.017 A 
BRANCH  36  40
HETATM   40  O   UNK     0     164.006 172.573 165.724  0.00  0.00    -0.358 OA
HETATM   41  H   UNK     0     164.052 173.111 164.917  0.00  0.00     0.217 HD
ENDBRANCH  36  40
BRANCH  37  42
HETATM   42  O   UNK     0     162.243 174.332 166.957  0.00  0.00    -0.358 OA
HETATM   43  H   UNK     0     161.641 174.463 167.706  0.00  0.00     0.217 HD
ENDBRANCH  37  42
ENDBRANCH  24  34
BRANCH  30  44
HETATM   44  O   UNK     0     172.067 173.481 171.057  0.00  0.00    -0.360 OA
HETATM   45  H   UNK     0     171.674 174.281 171.446  0.00  0.00     0.217 HD
ENDBRANCH  30  44
BRANCH  33  46
HETATM   46  O   UNK     0     172.805 172.251 166.532  0.00  0.00    -0.361 OA
HETATM   47  H   UNK     0     173.394 171.563 166.886  0.00  0.00     0.217 HD
ENDBRANCH  33  46
ENDBRANCH  22  23
ENDBRANCH   6  22
BRANCH   3  48
HETATM   48  O   UNK     0     164.543 171.051 174.752  0.00  0.00    -0.390 OA
HETATM   49  H   UNK     0     163.950 170.456 174.262  0.00  0.00     0.210 HD
ENDBRANCH   3  48
BRANCH   5  50
HETATM   50  O   UNK     0     167.912 174.313 173.749  0.00  0.00    -0.388 OA
HETATM   51  H   UNK     0     168.503 174.054 173.023  0.00  0.00     0.210 HD
ENDBRANCH   5  50
BRANCH   4  52
HETATM   52  O   UNK     0     165.834 173.471 175.662  0.00  0.00    -0.390 OA
HETATM   53  H   UNK     0     165.311 174.271 175.483  0.00  0.00     0.210 HD
ENDBRANCH   4  52
TORSDOF 16
ENDMDL
MODEL 2
REMARK VINA RESULT:      -8.5      4.024      8.830
REMARK  16 active torsions:
REMARK  status: ('A' for Active; 'I' for Inactive)
REMARK    1  A    between atoms: O_2  and  C_22 
REMARK    2  A    between atoms: O_2  and  C_26 
REMARK    3  A    between atoms: O_4  and  C_18 
REMARK    4  A    between atoms: O_5  and  C_19 
REMARK    5  A    between atoms: O_6  and  C_25 
REMARK    6  A    between atoms: O_6  and  C_29 
REMARK    7  A    between atoms: O_7  and  C_20 
REMARK    8  A    between atoms: O_8  and  C_21 
REMARK    9  A    between atoms: O_9  and  C_23 
REMARK   10  A    between atoms: O_10  and  C_24 
REMARK   11  A    between atoms: O_13  and  C_35 
REMARK   12  A    between atoms: O_14  and  C_40 
REMARK   13  A    between atoms: O_15  and  C_41 
REMARK   14  A    between atoms: O_16  and  C_43 
REMARK   15  A    between atoms: C_17  and  C_26 
REMARK   16  A    between atoms: C_30  and  C_33 
ROOT
HETATM    1  O   UNK     0     164.353 171.944 172.824  0.00  0.00    -0.348 OA
HETATM    2  C   UNK     0     164.155 173.039 171.927  0.00  0.00     0.180 C 
HETATM    3  C   UNK     0     165.270 174.072 172.110  0.00  0.00     0.180 C 
HETATM    4  C   UNK     0     165.345 174.536 173.564  0.00  0.00     0.183 C 
HETATM    5  C   UNK     0     165.373 173.347 174.525  0.00  0.00     0.205 C 
HETATM    6  C   UNK     0     164.273 172.339 174.192  0.00  0.00     0.298 C 
ENDROOT
BRANCH   2   7
HETATM    7  C   UNK     0     164.136 172.473 170.510  0.00  0.00     0.205 C 
BRANCH   7   8
HETATM    8  O   UNK     0     162.824 172.595 169.981  0.00  0.00    -0.356 OA
BRANCH   8   9
HETATM    9  C   UNK     0     162.751 173.628 169.003  0.00  0.00     0.291 C 
HETATM   10  O   UNK     0     162.775 174.934 169.587  0.00  0.00    -0.351 OA
HETATM   11  C   UNK     0     161.647 175.226 170.418  0.00  0.00     0.152 C 
HETATM   12  C   UNK     0     160.336 175.120 169.626  0.00  0.00     0.178 C 
HETATM   13  C   UNK     0     161.861 176.628 170.984  0.00  0.00     0.042 C 
HETATM   14  C   UNK     0     160.236 173.750 168.956  0.00  0.00     0.183 C 
HETATM   15  C   UNK     0     161.498 173.441 168.148  0.00  0.00     0.204 C 
BRANCH  12  16
HETATM   16  O   UNK     0     159.218 175.271 170.498  0.00  0.00    -0.390 OA
HETATM   17  H   UNK     0     159.543 175.210 171.412  0.00  0.00     0.210 HD
ENDBRANCH  12  16
BRANCH  14  18
HETATM   18  O   UNK     0     159.095 173.727 168.101  0.00  0.00    -0.390 OA
HETATM   19  H   UNK     0     159.409 173.818 167.184  0.00  0.00     0.210 HD
ENDBRANCH  14  18
BRANCH  15  20
HETATM   20  O   UNK     0     161.595 174.332 167.036  0.00  0.00    -0.388 OA
HETATM   21  H   UNK     0     161.122 175.152 167.258  0.00  0.00     0.210 HD
ENDBRANCH  15  20
ENDBRANCH   8   9
ENDBRANCH   7   8
ENDBRANCH   2   7
BRANCH   6  22
HETATM   22  O   UNK     0     164.453 171.199 175.033  0.00  0.00    -0.311 OA
BRANCH  22  23
HETATM   23  C   UNK     0     163.250 170.608 175.350  0.00  0.00     0.157 A 
HETATM   24  C   UNK     0     162.833 169.451 174.805  0.00  0.00     0.124 A 
HETATM   25  O   UNK     0     161.615 168.847 175.077  0.00  0.00    -0.306 OA
HETATM   26  C   UNK     0     160.774 169.448 175.977  0.00  0.00     0.096 A 
HETATM   27  C   UNK     0     161.086 170.643 176.621  0.00  0.00     0.084 A 
HETATM   28  C   UNK     0     159.560 168.811 176.238  0.00  0.00     0.075 A 
HETATM   29  C   UNK     0     162.371 171.296 176.326  0.00  0.00     0.223 A 
HETATM   30  C   UNK     0     160.188 171.211 177.529  0.00  0.00     0.085 A 
HETATM   31  O   UNK     0     162.696 172.350 176.856  0.00  0.00    -0.284 OA
HETATM   32  C   UNK     0     158.975 170.571 177.789  0.00  0.00     0.074 A 
HETATM   33  C   UNK     0     158.662 169.374 177.145  0.00  0.00     0.071 A 
BRANCH  24  34
HETATM   34  C   UNK     0     163.637 168.704 173.822  0.00  0.00     0.004 A 
HETATM   35  C   UNK     0     163.474 168.945 172.457  0.00  0.00     0.053 A 
HETATM   36  C   UNK     0     164.236 168.239 171.527  0.00  0.00     0.099 A 
HETATM   37  C   UNK     0     165.162 167.290 171.961  0.00  0.00     0.098 A 
HETATM   38  C   UNK     0     165.325 167.048 173.324  0.00  0.00     0.040 A 
HETATM   39  C   UNK     0     164.564 167.755 174.255  0.00  0.00     0.017 A 
BRANCH  36  40
HETATM   40  O   UNK     0     164.066 168.483 170.197  0.00  0.00    -0.358 OA
HETATM   41  H   UNK     0     163.702 167.694 169.765  0.00  0.00     0.217 HD
ENDBRANCH  36  40
BRANCH  37  42
HETATM   42  O   UNK     0     165.912 166.594 171.062  0.00  0.00    -0.358 OA
HETATM   43  H   UNK     0     166.729 167.082 170.870  0.00  0.00     0.217 HD
ENDBRANCH  37  42
ENDBRANCH  24  34
BRANCH  30  44
HETATM   44  O   UNK     0     160.444 172.377 178.184  0.00  0.00    -0.360 OA
HETATM   45  H   UNK     0     160.942 172.975 177.600  0.00  0.00     0.217 HD
ENDBRANCH  30  44
BRANCH  33  46
HETATM   46  O   UNK     0     157.477 168.754 177.401  0.00  0.00    -0.361 OA
HETATM   47  H   UNK     0     157.088 168.458 176.560  0.00  0.00     0.217 HD
ENDBRANCH  33  46
ENDBRANCH  22  23
ENDBRANCH   6  22
BRANCH   3  48
HETATM   48  O   UNK     0     165.014 175.194 171.270  0.00  0.00    -0.390 OA
HETATM   49  H   UNK     0     165.542 175.091 170.460  0.00  0.00     0.210 HD
ENDBRANCH   3  48
BRANCH   5  50
HETATM   50  O   UNK     0     165.166 173.811 175.859  0.00  0.00    -0.388 OA
HETATM   51  H   UNK     0     165.596 173.184 176.465  0.00  0.00     0.210 HD
ENDBRANCH   5  50
BRANCH   4  52
HETATM   52  O   UNK     0     166.541 175.303 173.722  0.00  0.00    -0.390 OA
HETATM   53  H   UNK     0     167.224 174.706 174.072  0.00  0.00     0.210 HD
ENDBRANCH   4  52
TORSDOF 16
ENDMDL
MODEL 3
REMARK VINA RESULT:      -8.3      1.926      5.476
REMARK  16 active torsions:
REMARK  status: ('A' for Active; 'I' for Inactive)
REMARK    1  A    between atoms: O_2  and  C_22 
REMARK    2  A    between atoms: O_2  and  C_26 
REMARK    3  A    between atoms: O_4  and  C_18 
REMARK    4  A    between atoms: O_5  and  C_19 
REMARK    5  A    between atoms: O_6  and  C_25 
REMARK    6  A    between atoms: O_6  and  C_29 
REMARK    7  A    between atoms: O_7  and  C_20 
REMARK    8  A    between atoms: O_8  and  C_21 
REMARK    9  A    between atoms: O_9  and  C_23 
REMARK   10  A    between atoms: O_10  and  C_24 
REMARK   11  A    between atoms: O_13  and  C_35 
REMARK   12  A    between atoms: O_14  and  C_40 
REMARK   13  A    between atoms: O_15  and  C_41 
REMARK   14  A    between atoms: O_16  and  C_43 
REMARK   15  A    between atoms: C_17  and  C_26 
REMARK   16  A    between atoms: C_30  and  C_33 
ROOT
HETATM    1  O   UNK     0     165.649 172.687 169.976  0.00  0.00    -0.348 OA
HETATM    2  C   UNK     0     164.335 173.068 169.564  0.00  0.00     0.180 C 
HETATM    3  C   UNK     0     164.191 172.891 168.051  0.00  0.00     0.180 C 
HETATM    4  C   UNK     0     165.270 173.679 167.307  0.00  0.00     0.183 C 
HETATM    5  C   UNK     0     166.658 173.396 167.883  0.00  0.00     0.205 C 
HETATM    6  C   UNK     0     166.661 173.514 169.408  0.00  0.00     0.298 C 
ENDROOT
BRANCH   2   7
HETATM    7  C   UNK     0     163.343 172.199 170.331  0.00  0.00     0.205 C 
BRANCH   7   8
HETATM    8  O   UNK     0     163.871 170.886 170.446  0.00  0.00    -0.356 OA
BRANCH   8   9
HETATM    9  C   UNK     0     162.857 169.900 170.282  0.00  0.00     0.291 C 
HETATM   10  O   UNK     0     163.329 168.579 170.564  0.00  0.00    -0.351 OA
HETATM   11  C   UNK     0     164.345 168.116 169.669  0.00  0.00     0.152 C 
HETATM   12  C   UNK     0     163.839 168.105 168.219  0.00  0.00     0.178 C 
HETATM   13  C   UNK     0     164.755 166.723 170.141  0.00  0.00     0.042 C 
HETATM   14  C   UNK     0     163.303 169.485 167.839  0.00  0.00     0.183 C 
HETATM   15  C   UNK     0     162.284 169.979 168.868  0.00  0.00     0.204 C 
BRANCH  12  16
HETATM   16  O   UNK     0     164.904 167.782 167.327  0.00  0.00    -0.390 OA
HETATM   17  H   UNK     0     165.675 168.320 167.575  0.00  0.00     0.210 HD
ENDBRANCH  12  16
BRANCH  14  18
HETATM   18  O   UNK     0     162.696 169.415 166.550  0.00  0.00    -0.390 OA
HETATM   19  H   UNK     0     163.329 169.775 165.905  0.00  0.00     0.210 HD
ENDBRANCH  14  18
BRANCH  15  20
HETATM   20  O   UNK     0     161.114 169.161 168.826  0.00  0.00    -0.388 OA
HETATM   21  H   UNK     0     161.360 168.260 169.096  0.00  0.00     0.210 HD
ENDBRANCH  15  20
ENDBRANCH   8   9
ENDBRANCH   7   8
ENDBRANCH   2   7
BRANCH   6  22
HETATM   22  O   UNK     0     167.943 173.099 169.878  0.00  0.00    -0.311 OA
BRANCH  22  23
HETATM   23  C   UNK     0     168.557 174.086 170.617  0.00  0.00     0.157 A 
HETATM   24  C   UNK     0     169.777 174.571 170.326  0.00  0.00     0.124 A 
HETATM   25  O   UNK     0     170.436 175.540 171.066  0.00  0.00    -0.306 OA
HETATM   26  C   UNK     0     169.805 176.066 172.164  0.00  0.00     0.096 A 
HETATM   27  C   UNK     0     168.536 175.660 172.572  0.00  0.00     0.084 A 
HETATM   28  C   UNK     0     170.489 177.046 172.884  0.00  0.00     0.075 A 
HETATM   29  C   UNK     0     167.838 174.622 171.798  0.00  0.00     0.223 A 
HETATM   30  C   UNK     0     167.941 176.230 173.701  0.00  0.00     0.085 A 
HETATM   31  O   UNK     0     166.725 174.222 172.111  0.00  0.00    -0.284 OA
HETATM   32  C   UNK     0     168.628 177.211 174.419  0.00  0.00     0.074 A 
HETATM   33  C   UNK     0     169.898 177.618 174.011  0.00  0.00     0.071 A 
BRANCH  24  34
HETATM   34  C   UNK     0     170.566 174.093 169.176  0.00  0.00     0.004 A 
HETATM   35  C   UNK     0     171.520 173.091 169.353  0.00  0.00     0.053 A 
HETATM   36  C   UNK     0     172.265 172.636 168.265  0.00  0.00     0.099 A 
HETATM   37  C   UNK     0     172.058 173.185 167.000  0.00  0.00     0.098 A 
HETATM   38  C   UNK     0     171.104 174.188 166.823  0.00  0.00     0.040 A 
HETATM   39  C   UNK     0     170.358 174.641 167.910  0.00  0.00     0.017 A 
BRANCH  36  40
HETATM   40  O   UNK     0     173.196 171.658 168.451  0.00  0.00    -0.358 OA
HETATM   41  H   UNK     0     173.491 171.659 169.376  0.00  0.00     0.217 HD
ENDBRANCH  36  40
BRANCH  37  42
HETATM   42  O   UNK     0     172.779 172.750 165.930  0.00  0.00    -0.358 OA
HETATM   43  H   UNK     0     173.297 173.484 165.563  0.00  0.00     0.217 HD
ENDBRANCH  37  42
ENDBRANCH  24  34
BRANCH  30  44
HETATM   44  O   UNK     0     166.705 175.869 174.142  0.00  0.00    -0.360 OA
HETATM   45  H   UNK     0     166.418 176.481 174.841  0.00  0.00     0.217 HD
ENDBRANCH  30  44
BRANCH  33  46
HETATM   46  O   UNK     0     170.564 178.575 174.714  0.00  0.00    -0.361 OA
HETATM   47  H   UNK     0     170.286 178.533 175.645  0.00  0.00     0.217 HD
ENDBRANCH  33  46
ENDBRANCH  22  23
ENDBRANCH   6  22
BRANCH   3  48
HETATM   48  O   UNK     0     162.906 173.353 167.643  0.00  0.00    -0.390 OA
HETATM   49  H   UNK     0     163.028 173.952 166.887  0.00  0.00     0.210 HD
ENDBRANCH   3  48
BRANCH   5  50
HETATM   50  O   UNK     0     167.590 174.341 167.359  0.00  0.00    -0.388 OA
HETATM   51  H   UNK     0     167.159 175.211 167.340  0.00  0.00     0.210 HD
ENDBRANCH   5  50
BRANCH   4  52
HETATM   52  O   UNK     0     165.237 173.286 165.934  0.00  0.00    -0.390 OA
HETATM   53  H   UNK     0     165.963 172.656 165.794  0.00  0.00     0.210 HD
ENDBRANCH   4  52
TORSDOF 16
ENDMDL
MODEL 4
REMARK VINA RESULT:      -8.3      3.039      7.885
REMARK  16 active torsions:
REMARK  status: ('A' for Active; 'I' for Inactive)
REMARK    1  A    between atoms: O_2  and  C_22 
REMARK    2  A    between atoms: O_2  and  C_26 
REMARK    3  A    between atoms: O_4  and  C_18 
REMARK    4  A    between atoms: O_5  and  C_19 
REMARK    5  A    between atoms: O_6  and  C_25 
REMARK    6  A    between atoms: O_6  and  C_29 
REMARK    7  A    between atoms: O_7  and  C_20 
REMARK    8  A    between atoms: O_8  and  C_21 
REMARK    9  A    between atoms: O_9  and  C_23 
REMARK   10  A    between atoms: O_10  and  C_24 
REMARK   11  A    between atoms: O_13  and  C_35 
REMARK   12  A    between atoms: O_14  and  C_40 
REMARK   13  A    between atoms: O_15  and  C_41 
REMARK   14  A    between atoms: O_16  and  C_43 
REMARK   15  A    between atoms: C_17  and  C_26 
REMARK   16  A    between atoms: C_30  and  C_33 
ROOT
HETATM    1  O   UNK     0     164.867 172.131 170.854  0.00  0.00    -0.348 OA
HETATM    2  C   UNK     0     164.722 173.293 170.034  0.00  0.00     0.180 C 
HETATM    3  C   UNK     0     165.950 174.194 170.185  0.00  0.00     0.180 C 
HETATM    4  C   UNK     0     166.178 174.559 171.652  0.00  0.00     0.183 C 
HETATM    5  C   UNK     0     166.149 173.317 172.543  0.00  0.00     0.205 C 
HETATM    6  C   UNK     0     164.928 172.447 172.243  0.00  0.00     0.298 C 
ENDROOT
BRANCH   2   7
HETATM    7  C   UNK     0     164.541 172.819 168.595  0.00  0.00     0.205 C 
BRANCH   7   8
HETATM    8  O   UNK     0     163.154 172.734 168.307  0.00  0.00    -0.356 OA
BRANCH   8   9
HETATM    9  C   UNK     0     162.630 173.990 167.889  0.00  0.00     0.291 C 
HETATM   10  O   UNK     0     162.701 174.981 168.919  0.00  0.00    -0.351 OA
HETATM   11  C   UNK     0     161.900 174.689 170.069  0.00  0.00     0.152 C 
HETATM   12  C   UNK     0     160.419 174.552 169.689  0.00  0.00     0.178 C 
HETATM   13  C   UNK     0     162.130 175.817 171.072  0.00  0.00     0.042 C 
HETATM   14  C   UNK     0     160.256 173.514 168.578  0.00  0.00     0.183 C 
HETATM   15  C   UNK     0     161.192 173.815 167.406  0.00  0.00     0.204 C 
BRANCH  12  16
HETATM   16  O   UNK     0     159.658 174.119 170.815  0.00  0.00    -0.390 OA
HETATM   17  H   UNK     0     159.624 174.853 171.451  0.00  0.00     0.210 HD
ENDBRANCH  12  16
BRANCH  14  18
HETATM   18  O   UNK     0     158.902 173.514 168.130  0.00  0.00    -0.390 OA
HETATM   19  H   UNK     0     158.861 172.996 167.308  0.00  0.00     0.210 HD
ENDBRANCH  14  18
BRANCH  15  20
HETATM   20  O   UNK     0     160.797 175.030 166.766  0.00  0.00    -0.388 OA
HETATM   21  H   UNK     0     161.483 175.699 166.929  0.00  0.00     0.210 HD
ENDBRANCH  15  20
ENDBRANCH   8   9
ENDBRANCH   7   8
ENDBRANCH   2   7
BRANCH   6  22
HETATM   22  O   UNK     0     165.046 171.247 173.005  0.00  0.00    -0.311 OA
BRANCH  22  23
HETATM   23  C   UNK     0     163.844 170.885 173.572  0.00  0.00     0.157 A 
HETATM   24  C   UNK     0     163.019 169.973 173.028  0.00  0.00     0.124 A 
HETATM   25  O   UNK     0     161.789 169.611 173.555  0.00  0.00    -0.306 OA
HETATM   26  C   UNK     0     161.379 170.200 174.723  0.00  0.00     0.096 A 
HETATM   27  C   UNK     0     162.140 171.154 175.395  0.00  0.00     0.084 A 
HETATM   28  C   UNK     0     160.141 169.808 175.234  0.00  0.00     0.075 A 
HETATM   29  C   UNK     0     163.440 171.552 174.834  0.00  0.00     0.223 A 
HETATM   30  C   UNK     0     161.671 171.722 176.583  0.00  0.00     0.085 A 
HETATM   31  O   UNK     0     164.150 172.388 175.378  0.00  0.00    -0.284 OA
HETATM   32  C   UNK     0     160.432 171.328 177.092  0.00  0.00     0.074 A 
HETATM   33  C   UNK     0     159.670 170.373 176.419  0.00  0.00     0.071 A 
BRANCH  24  34
HETATM   34  C   UNK     0     163.336 169.268 171.773  0.00  0.00     0.004 A 
HETATM   35  C   UNK     0     162.866 169.762 170.556  0.00  0.00     0.053 A 
HETATM   36  C   UNK     0     163.168 169.095 169.369  0.00  0.00     0.099 A 
HETATM   37  C   UNK     0     163.938 167.933 169.398  0.00  0.00     0.098 A 
HETATM   38  C   UNK     0     164.408 167.438 170.615  0.00  0.00     0.040 A 
HETATM   39  C   UNK     0     164.107 168.105 171.802  0.00  0.00     0.017 A 
BRANCH  36  40
HETATM   40  O   UNK     0     162.701 169.587 168.187  0.00  0.00    -0.358 OA
HETATM   41  H   UNK     0     163.342 170.218 167.820  0.00  0.00     0.217 HD
ENDBRANCH  36  40
BRANCH  37  42
HETATM   42  O   UNK     0     164.239 167.273 168.245  0.00  0.00    -0.358 OA
HETATM   43  H   UNK     0     163.469 166.764 167.949  0.00  0.00     0.217 HD
ENDBRANCH  37  42
ENDBRANCH  24  34
BRANCH  30  44
HETATM   44  O   UNK     0     162.374 172.657 177.278  0.00  0.00    -0.360 OA
HETATM   45  H   UNK     0     161.927 173.518 177.209  0.00  0.00     0.217 HD
ENDBRANCH  30  44
BRANCH  33  46
HETATM   46  O   UNK     0     158.462 169.992 176.919  0.00  0.00    -0.361 OA
HETATM   47  H   UNK     0     158.545 169.861 177.879  0.00  0.00     0.217 HD
ENDBRANCH  33  46
ENDBRANCH  22  23
ENDBRANCH   6  22
BRANCH   3  48
HETATM   48  O   UNK     0     165.755 175.386 169.428  0.00  0.00    -0.390 OA
HETATM   49  H   UNK     0     166.198 175.274 168.570  0.00  0.00     0.210 HD
ENDBRANCH   3  48
BRANCH   5  50
HETATM   50  O   UNK     0     166.090 173.717 173.911  0.00  0.00    -0.388 OA
HETATM   51  H   UNK     0     166.154 174.686 173.946  0.00  0.00     0.210 HD
ENDBRANCH   5  50
BRANCH   4  52
HETATM   52  O   UNK     0     167.457 175.189 171.756  0.00  0.00    -0.390 OA
HETATM   53  H   UNK     0     167.572 175.746 170.967  0.00  0.00     0.210 HD
ENDBRANCH   4  52
TORSDOF 16
ENDMDL
MODEL 5
REMARK VINA RESULT:      -8.3      2.302      7.913
REMARK  16 active torsions:
REMARK  status: ('A' for Active; 'I' for Inactive)
REMARK    1  A    between atoms: O_2  and  C_22 
REMARK    2  A    between atoms: O_2  and  C_26 
REMARK    3  A    between atoms: O_4  and  C_18 
REMARK    4  A    between atoms: O_5  and  C_19 
REMARK    5  A    between atoms: O_6  and  C_25 
REMARK    6  A    between atoms: O_6  and  C_29 
REMARK    7  A    between atoms: O_7  and  C_20 
REMARK    8  A    between atoms: O_8  and  C_21 
REMARK    9  A    between atoms: O_9  and  C_23 
REMARK   10  A    between atoms: O_10  and  C_24 
REMARK   11  A    between atoms: O_13  and  C_35 
REMARK   12  A    between atoms: O_14  and  C_40 
REMARK   13  A    between atoms: O_15  and  C_41 
REMARK   14  A    between atoms: O_16  and  C_43 
REMARK   15  A    between atoms: C_17  and  C_26 
REMARK   16  A    between atoms: C_30  and  C_33 
ROOT
HETATM    1  O   UNK     0     164.915 172.304 169.017  0.00  0.00    -0.348 OA
HETATM    2  C   UNK     0     166.112 172.755 168.379  0.00  0.00     0.180 C 
HETATM    3  C   UNK     0     165.836 174.047 167.607  0.00  0.00     0.180 C 
HETATM    4  C   UNK     0     164.698 173.848 166.605  0.00  0.00     0.183 C 
HETATM    5  C   UNK     0     163.485 173.195 167.267  0.00  0.00     0.205 C 
HETATM    6  C   UNK     0     163.891 171.968 168.084  0.00  0.00     0.298 C 
ENDROOT
BRANCH   2   7
HETATM    7  C   UNK     0     167.162 172.959 169.466  0.00  0.00     0.205 C 
BRANCH   7   8
HETATM    8  O   UNK     0     168.454 172.862 168.885  0.00  0.00    -0.356 OA
BRANCH   8   9
HETATM    9  C   UNK     0     169.304 173.916 169.326  0.00  0.00     0.291 C 
HETATM   10  O   UNK     0     169.577 174.865 168.290  0.00  0.00    -0.351 OA
HETATM   11  C   UNK     0     170.309 174.331 167.183  0.00  0.00     0.152 C 
HETATM   12  C   UNK     0     171.665 173.771 167.637  0.00  0.00     0.178 C 
HETATM   13  C   UNK     0     170.469 175.460 166.167  0.00  0.00     0.042 C 
HETATM   14  C   UNK     0     171.463 172.751 168.758  0.00  0.00     0.183 C 
HETATM   15  C   UNK     0     170.603 173.334 169.881  0.00  0.00     0.204 C 
BRANCH  12  16
HETATM   16  O   UNK     0     172.316 173.115 166.552  0.00  0.00    -0.390 OA
HETATM   17  H   UNK     0     173.146 173.589 166.371  0.00  0.00     0.210 HD
ENDBRANCH  12  16
BRANCH  14  18
HETATM   18  O   UNK     0     172.734 172.361 169.272  0.00  0.00    -0.390 OA
HETATM   19  H   UNK     0     173.146 171.764 168.624  0.00  0.00     0.210 HD
ENDBRANCH  14  18
BRANCH  15  20
HETATM   20  O   UNK     0     171.307 174.390 170.536  0.00  0.00    -0.388 OA
HETATM   21  H   UNK     0     172.140 174.546 170.058  0.00  0.00     0.210 HD
ENDBRANCH  15  20
ENDBRANCH   8   9
ENDBRANCH   7   8
ENDBRANCH   2   7
BRANCH   6  22
HETATM   22  O   UNK     0     162.737 171.502 168.782  0.00  0.00    -0.311 OA
BRANCH  22  23
HETATM   23  C   UNK     0     163.042 171.125 170.071  0.00  0.00     0.157 A 
HETATM   24  C   UNK     0     162.962 171.964 171.120  0.00  0.00     0.124 A 
HETATM   25  O   UNK     0     163.292 171.627 172.424  0.00  0.00    -0.306 OA
HETATM   26  C   UNK     0     163.712 170.348 172.682  0.00  0.00     0.096 A 
HETATM   27  C   UNK     0     163.831 169.377 171.690  0.00  0.00     0.084 A 
HETATM   28  C   UNK     0     164.027 170.036 174.005  0.00  0.00     0.075 A 
HETATM   29  C   UNK     0     163.495 169.733 170.302  0.00  0.00     0.223 A 
HETATM   30  C   UNK     0     164.266 168.088 172.011  0.00  0.00     0.085 A 
HETATM   31  O   UNK     0     163.586 168.924 169.388  0.00  0.00    -0.284 OA
HETATM   32  C   UNK     0     164.580 167.779 173.336  0.00  0.00     0.074 A 
HETATM   33  C   UNK     0     164.461 168.751 174.330  0.00  0.00     0.071 A 
BRANCH  24  34
HETATM   34  C   UNK     0     162.528 173.366 170.982  0.00  0.00     0.004 A 
HETATM   35  C   UNK     0     161.190 173.659 170.717  0.00  0.00     0.053 A 
HETATM   36  C   UNK     0     160.778 174.985 170.588  0.00  0.00     0.099 A 
HETATM   37  C   UNK     0     161.705 176.019 170.722  0.00  0.00     0.098 A 
HETATM   38  C   UNK     0     163.043 175.726 170.986  0.00  0.00     0.040 A 
HETATM   39  C   UNK     0     163.454 174.400 171.116  0.00  0.00     0.017 A 
BRANCH  36  40
HETATM   40  O   UNK     0     159.469 175.259 170.328  0.00  0.00    -0.358 OA
HETATM   41  H   UNK     0     159.295 176.201 170.485  0.00  0.00     0.217 HD
ENDBRANCH  36  40
BRANCH  37  42
HETATM   42  O   UNK     0     161.315 177.318 170.599  0.00  0.00    -0.358 OA
HETATM   43  H   UNK     0     160.719 177.411 169.839  0.00  0.00     0.217 HD
ENDBRANCH  37  42
ENDBRANCH  24  34
BRANCH  30  44
HETATM   44  O   UNK     0     164.400 167.105 171.081  0.00  0.00    -0.360 OA
HETATM   45  H   UNK     0     163.879 167.331 170.291  0.00  0.00     0.217 HD
ENDBRANCH  30  44
BRANCH  33  46
HETATM   46  O   UNK     0     164.769 168.444 175.620  0.00  0.00    -0.361 OA
HETATM   47  H   UNK     0     164.414 169.138 176.203  0.00  0.00     0.217 HD
ENDBRANCH  33  46
ENDBRANCH  22  23
ENDBRANCH   6  22
BRANCH   3  48
HETATM   48  O   UNK     0     167.015 174.439 166.909  0.00  0.00    -0.390 OA
HETATM   49  H   UNK     0     167.739 173.855 167.189  0.00  0.00     0.210 HD
ENDBRANCH   3  48
BRANCH   5  50
HETATM   50  O   UNK     0     162.563 172.778 166.261  0.00  0.00    -0.388 OA
HETATM   51  H   UNK     0     163.060 172.631 165.439  0.00  0.00     0.210 HD
ENDBRANCH   5  50
BRANCH   4  52
HETATM   52  O   UNK     0     164.328 175.132 166.097  0.00  0.00    -0.390 OA
HETATM   53  H   UNK     0     163.368 175.119 165.945  0.00  0.00     0.210 HD
ENDBRANCH   4  52
TORSDOF 16
ENDMDL
MODEL 6
REMARK VINA RESULT:      -8.2      2.752      6.505
REMARK  16 active torsions:
REMARK  status: ('A' for Active; 'I' for Inactive)
REMARK    1  A    between atoms: O_2  and  C_22 
REMARK    2  A    between atoms: O_2  and  C_26 
REMARK    3  A    between atoms: O_4  and  C_18 
REMARK    4  A    between atoms: O_5  and  C_19 
REMARK    5  A    between atoms: O_6  and  C_25 
REMARK    6  A    between atoms: O_6  and  C_29 
REMARK    7  A    between atoms: O_7  and  C_20 
REMARK    8  A    between atoms: O_8  and  C_21 
REMARK    9  A    between atoms: O_9  and  C_23 
REMARK   10  A    between atoms: O_10  and  C_24 
REMARK   11  A    between atoms: O_13  and  C_35 
REMARK   12  A    between atoms: O_14  and  C_40 
REMARK   13  A    between atoms: O_15  and  C_41 
REMARK   14  A    between atoms: O_16  and  C_43 
REMARK   15  A    between atoms: C_17  and  C_26 
REMARK   16  A    between atoms: C_30  and  C_33 
ROOT
HETATM    1  O   UNK     0     167.211 173.265 170.339  0.00  0.00    -0.348 OA
HETATM    2  C   UNK     0     166.574 173.550 169.092  0.00  0.00     0.180 C 
HETATM    3  C   UNK     0     167.579 173.405 167.947  0.00  0.00     0.180 C 
HETATM    4  C   UNK     0     168.799 174.297 168.180  0.00  0.00     0.183 C 
HETATM    5  C   UNK     0     169.361 174.111 169.589  0.00  0.00     0.205 C 
HETATM    6  C   UNK     0     168.255 174.187 170.642  0.00  0.00     0.298 C 
ENDROOT
BRANCH   2   7
HETATM    7  C   UNK     0     165.403 172.583 168.943  0.00  0.00     0.205 C 
BRANCH   7   8
HETATM    8  O   UNK     0     164.249 173.158 169.537  0.00  0.00    -0.356 OA
BRANCH   8   9
HETATM    9  C   UNK     0     163.747 174.239 168.758  0.00  0.00     0.291 C 
HETATM   10  O   UNK     0     162.607 174.861 169.360  0.00  0.00    -0.351 OA
HETATM   11  C   UNK     0     161.462 174.009 169.466  0.00  0.00     0.152 C 
HETATM   12  C   UNK     0     161.015 173.511 168.085  0.00  0.00     0.178 C 
HETATM   13  C   UNK     0     160.369 174.816 170.164  0.00  0.00     0.042 C 
HETATM   14  C   UNK     0     162.185 172.839 167.365  0.00  0.00     0.183 C 
HETATM   15  C   UNK     0     163.414 173.750 167.350  0.00  0.00     0.204 C 
BRANCH  12  16
HETATM   16  O   UNK     0     159.968 172.552 168.220  0.00  0.00    -0.390 OA
HETATM   17  H   UNK     0     159.614 172.370 167.334  0.00  0.00     0.210 HD
ENDBRANCH  12  16
BRANCH  14  18
HETATM   18  O   UNK     0     161.797 172.526 166.029  0.00  0.00    -0.390 OA
HETATM   19  H   UNK     0     161.231 171.734 166.063  0.00  0.00     0.210 HD
ENDBRANCH  14  18
BRANCH  15  20
HETATM   20  O   UNK     0     163.160 174.898 166.539  0.00  0.00    -0.388 OA
HETATM   21  H   UNK     0     163.296 175.693 167.082  0.00  0.00     0.210 HD
ENDBRANCH  15  20
ENDBRANCH   8   9
ENDBRANCH   7   8
ENDBRANCH   2   7
BRANCH   6  22
HETATM   22  O   UNK     0     168.831 173.863 171.908  0.00  0.00    -0.311 OA
BRANCH  22  23
HETATM   23  C   UNK     0     168.449 174.759 172.882  0.00  0.00     0.157 A 
HETATM   24  C   UNK     0     167.379 174.571 173.675  0.00  0.00     0.124 A 
HETATM   25  O   UNK     0     166.949 175.466 174.642  0.00  0.00    -0.306 OA
HETATM   26  C   UNK     0     167.666 176.620 174.830  0.00  0.00     0.096 A 
HETATM   27  C   UNK     0     168.799 176.934 174.083  0.00  0.00     0.084 A 
HETATM   28  C   UNK     0     167.215 177.497 175.817  0.00  0.00     0.075 A 
HETATM   29  C   UNK     0     169.253 175.994 173.047  0.00  0.00     0.223 A 
HETATM   30  C   UNK     0     169.491 178.127 174.318  0.00  0.00     0.085 A 
HETATM   31  O   UNK     0     170.238 176.220 172.357  0.00  0.00    -0.284 OA
HETATM   32  C   UNK     0     169.037 179.002 175.306  0.00  0.00     0.074 A 
HETATM   33  C   UNK     0     167.902 178.687 176.054  0.00  0.00     0.071 A 
BRANCH  24  34
HETATM   34  C   UNK     0     166.521 173.377 173.577  0.00  0.00     0.004 A 
HETATM   35  C   UNK     0     165.283 173.457 172.939  0.00  0.00     0.053 A 
HETATM   36  C   UNK     0     164.471 172.327 172.844  0.00  0.00     0.099 A 
HETATM   37  C   UNK     0     164.896 171.116 173.389  0.00  0.00     0.098 A 
HETATM   38  C   UNK     0     166.134 171.035 174.028  0.00  0.00     0.040 A 
HETATM   39  C   UNK     0     166.946 172.165 174.121  0.00  0.00     0.017 A 
BRANCH  36  40
HETATM   40  O   UNK     0     163.263 172.419 172.220  0.00  0.00    -0.358 OA
HETATM   41  H   UNK     0     163.200 173.269 171.755  0.00  0.00     0.217 HD
ENDBRANCH  36  40
BRANCH  37  42
HETATM   42  O   UNK     0     164.113 170.005 173.303  0.00  0.00    -0.358 OA
HETATM   43  H   UNK     0     164.334 169.510 172.498  0.00  0.00     0.217 HD
ENDBRANCH  37  42
ENDBRANCH  24  34
BRANCH  30  44
HETATM   44  O   UNK     0     170.602 178.481 173.617  0.00  0.00    -0.360 OA
HETATM   45  H   UNK     0     171.395 178.159 174.080  0.00  0.00     0.217 HD
ENDBRANCH  30  44
BRANCH  33  46
HETATM   46  O   UNK     0     167.463 179.544 177.017  0.00  0.00    -0.361 OA
HETATM   47  H   UNK     0     166.514 179.394 177.164  0.00  0.00     0.217 HD
ENDBRANCH  33  46
ENDBRANCH  22  23
ENDBRANCH   6  22
BRANCH   3  48
HETATM   48  O   UNK     0     166.953 173.773 166.721  0.00  0.00    -0.390 OA
HETATM   49  H   UNK     0     167.223 173.132 166.042  0.00  0.00     0.210 HD
ENDBRANCH   3  48
BRANCH   5  50
HETATM   50  O   UNK     0     170.310 175.142 169.861  0.00  0.00    -0.388 OA
HETATM   51  H   UNK     0     169.980 175.967 169.467  0.00  0.00     0.210 HD
ENDBRANCH   5  50
BRANCH   4  52
HETATM   52  O   UNK     0     169.795 173.941 167.219  0.00  0.00    -0.390 OA
HETATM   53  H   UNK     0     169.471 174.220 166.346  0.00  0.00     0.210 HD
ENDBRANCH   4  52
TORSDOF 16
ENDMDL
MODEL 7
REMARK VINA RESULT:      -8.2      4.720      7.803
REMARK  16 active torsions:
REMARK  status: ('A' for Active; 'I' for Inactive)
REMARK    1  A    between atoms: O_2  and  C_22 
REMARK    2  A    between atoms: O_2  and  C_26 
REMARK    3  A    between atoms: O_4  and  C_18 
REMARK    4  A    between atoms: O_5  and  C_19 
REMARK    5  A    between atoms: O_6  and  C_25 
REMARK    6  A    between atoms: O_6  and  C_29 
REMARK    7  A    between atoms: O_7  and  C_20 
REMARK    8  A    between atoms: O_8  and  C_21 
REMARK    9  A    between atoms: O_9  and  C_23 
REMARK   10  A    between atoms: O_10  and  C_24 
REMARK   11  A    between atoms: O_13  and  C_35 
REMARK   12  A    between atoms: O_14  and  C_40 
REMARK   13  A    between atoms: O_15  and  C_41 
REMARK   14  A    between atoms: O_16  and  C_43 
REMARK   15  A    between atoms: C_17  and  C_26 
REMARK   16  A    between atoms: C_30  and  C_33 
ROOT
HETATM    1  O   UNK     0     163.139 169.333 170.767  0.00  0.00    -0.348 OA
HETATM    2  C   UNK     0     163.348 170.114 169.589  0.00  0.00     0.180 C 
HETATM    3  C   UNK     0     163.311 169.213 168.352  0.00  0.00     0.180 C 
HETATM    4  C   UNK     0     164.333 168.083 168.473  0.00  0.00     0.183 C 
HETATM    5  C   UNK     0     164.215 167.371 169.821  0.00  0.00     0.205 C 
HETATM    6  C   UNK     0     164.172 168.372 170.976  0.00  0.00     0.298 C 
ENDROOT
BRANCH   2   7
HETATM    7  C   UNK     0     162.257 171.180 169.545  0.00  0.00     0.205 C 
BRANCH   7   8
HETATM    8  O   UNK     0     162.780 172.398 170.053  0.00  0.00    -0.356 OA
BRANCH   8   9
HETATM    9  C   UNK     0     162.780 173.419 169.060  0.00  0.00     0.291 C 
HETATM   10  O   UNK     0     162.886 174.729 169.625  0.00  0.00    -0.351 OA
HETATM   11  C   UNK     0     161.775 175.107 170.444  0.00  0.00     0.152 C 
HETATM   12  C   UNK     0     160.465 175.075 169.644  0.00  0.00     0.178 C 
HETATM   13  C   UNK     0     162.076 176.500 170.991  0.00  0.00     0.042 C 
HETATM   14  C   UNK     0     160.280 173.704 168.993  0.00  0.00     0.183 C 
HETATM   15  C   UNK     0     161.524 173.301 168.199  0.00  0.00     0.204 C 
BRANCH  12  16
HETATM   16  O   UNK     0     159.354 175.311 170.506  0.00  0.00    -0.390 OA
HETATM   17  H   UNK     0     159.595 176.031 171.113  0.00  0.00     0.210 HD
ENDBRANCH  12  16
BRANCH  14  18
HETATM   18  O   UNK     0     159.145 173.743 168.131  0.00  0.00    -0.390 OA
HETATM   19  H   UNK     0     158.976 174.674 167.905  0.00  0.00     0.210 HD
ENDBRANCH  14  18
BRANCH  15  20
HETATM   20  O   UNK     0     161.685 174.167 167.074  0.00  0.00    -0.388 OA
HETATM   21  H   UNK     0     161.926 173.626 166.303  0.00  0.00     0.210 HD
ENDBRANCH  15  20
ENDBRANCH   8   9
ENDBRANCH   7   8
ENDBRANCH   2   7
BRANCH   6  22
HETATM   22  O   UNK     0     163.918 167.646 172.178  0.00  0.00    -0.311 OA
BRANCH  22  23
HETATM   23  C   UNK     0     164.785 168.012 173.184  0.00  0.00     0.157 A 
HETATM   24  C   UNK     0     164.483 168.937 174.113  0.00  0.00     0.124 A 
HETATM   25  O   UNK     0     165.343 169.352 175.119  0.00  0.00    -0.306 OA
HETATM   26  C   UNK     0     166.584 168.775 175.197  0.00  0.00     0.096 A 
HETATM   27  C   UNK     0     167.020 167.799 174.304  0.00  0.00     0.084 A 
HETATM   28  C   UNK     0     167.423 169.206 176.225  0.00  0.00     0.075 A 
HETATM   29  C   UNK     0     166.117 167.364 173.227  0.00  0.00     0.223 A 
HETATM   30  C   UNK     0     168.298 167.246 174.431  0.00  0.00     0.085 A 
HETATM   31  O   UNK     0     166.448 166.515 172.410  0.00  0.00    -0.284 OA
HETATM   32  C   UNK     0     169.135 167.679 175.461  0.00  0.00     0.074 A 
HETATM   33  C   UNK     0     168.698 168.656 176.356  0.00  0.00     0.071 A 
BRANCH  24  34
HETATM   34  C   UNK     0     163.186 169.636 174.143  0.00  0.00     0.004 A 
HETATM   35  C   UNK     0     162.107 169.077 174.829  0.00  0.00     0.053 A 
HETATM   36  C   UNK     0     160.880 169.739 174.859  0.00  0.00     0.099 A 
HETATM   37  C   UNK     0     160.730 170.960 174.201  0.00  0.00     0.098 A 
HETATM   38  C   UNK     0     161.808 171.519 173.514  0.00  0.00     0.040 A 
HETATM   39  C   UNK     0     163.035 170.857 173.486  0.00  0.00     0.017 A 
BRANCH  36  40
HETATM   40  O   UNK     0     159.833 169.182 175.531  0.00  0.00    -0.358 OA
HETATM   41  H   UNK     0     160.107 168.335 175.917  0.00  0.00     0.217 HD
ENDBRANCH  36  40
BRANCH  37  42
HETATM   42  O   UNK     0     159.537 171.616 174.223  0.00  0.00    -0.358 OA
HETATM   43  H   UNK     0     159.075 171.429 175.056  0.00  0.00     0.217 HD
ENDBRANCH  37  42
ENDBRANCH  24  34
BRANCH  30  44
HETATM   44  O   UNK     0     168.773 166.291 173.586  0.00  0.00    -0.360 OA
HETATM   45  H   UNK     0     168.247 165.478 173.685  0.00  0.00     0.217 HD
ENDBRANCH  30  44
BRANCH  33  46
HETATM   46  O   UNK     0     169.518 169.075 177.358  0.00  0.00    -0.361 OA
HETATM   47  H   UNK     0     168.990 169.205 178.165  0.00  0.00     0.217 HD
ENDBRANCH  33  46
ENDBRANCH  22  23
ENDBRANCH   6  22
BRANCH   3  48
HETATM   48  O   UNK     0     163.603 169.991 167.194  0.00  0.00    -0.390 OA
HETATM   49  H   UNK     0     162.785 170.436 166.917  0.00  0.00     0.210 HD
ENDBRANCH   3  48
BRANCH   5  50
HETATM   50  O   UNK     0     165.345 166.520 170.008  0.00  0.00    -0.388 OA
HETATM   51  H   UNK     0     166.140 167.078 170.043  0.00  0.00     0.210 HD
ENDBRANCH   5  50
BRANCH   4  52
HETATM   52  O   UNK     0     164.086 167.150 167.419  0.00  0.00    -0.390 OA
HETATM   53  H   UNK     0     163.289 166.646 167.658  0.00  0.00     0.210 HD
ENDBRANCH   4  52
TORSDOF 16
ENDMDL
MODEL 8
REMARK VINA RESULT:      -8.1      2.747      8.081
REMARK  16 active torsions:
REMARK  status: ('A' for Active; 'I' for Inactive)
REMARK    1  A    between atoms: O_2  and  C_22 
REMARK    2  A    between atoms: O_2  and  C_26 
REMARK    3  A    between atoms: O_4  and  C_18 
REMARK    4  A    between atoms: O_5  and  C_19 
REMARK    5  A    between atoms: O_6  and  C_25 
REMARK    6  A    between atoms: O_6  and  C_29 
REMARK    7  A    between atoms: O_7  and  C_20 
REMARK    8  A    between atoms: O_8  and  C_21 
REMARK    9  A    between atoms: O_9  and  C_23 
REMARK   10  A    between atoms: O_10  and  C_24 
REMARK   11  A    between atoms: O_13  and  C_35 
REMARK   12  A    between atoms: O_14  and  C_40 
REMARK   13  A    between atoms: O_15  and  C_41 
REMARK   14  A    between atoms: O_16  and  C_43 
REMARK   15  A    between atoms: C_17  and  C_26 
REMARK   16  A    between atoms: C_30  and  C_33 
ROOT
HETATM    1  O   UNK     0     168.251 173.589 168.747  0.00  0.00    -0.348 OA
HETATM    2  C   UNK     0     169.115 174.636 168.301  0.00  0.00     0.180 C 
HETATM    3  C   UNK     0     170.305 174.773 169.253  0.00  0.00     0.180 C 
HETATM    4  C   UNK     0     169.828 175.003 170.687  0.00  0.00     0.183 C 
HETATM    5  C   UNK     0     168.766 173.980 171.089  0.00  0.00     0.205 C 
HETATM    6  C   UNK     0     167.676 173.863 170.023  0.00  0.00     0.298 C 
ENDROOT
BRANCH   2   7
HETATM    7  C   UNK     0     169.562 174.289 166.884  0.00  0.00     0.205 C 
BRANCH   7   8
HETATM    8  O   UNK     0     170.908 173.838 166.921  0.00  0.00    -0.356 OA
BRANCH   8   9
HETATM    9  C   UNK     0     170.986 172.462 167.277  0.00  0.00     0.291 C 
HETATM   10  O   UNK     0     172.315 172.063 167.627  0.00  0.00    -0.351 OA
HETATM   11  C   UNK     0     173.255 172.150 166.551  0.00  0.00     0.152 C 
HETATM   12  C   UNK     0     172.825 171.266 165.371  0.00  0.00     0.178 C 
HETATM   13  C   UNK     0     174.614 171.734 167.110  0.00  0.00     0.042 C 
HETATM   14  C   UNK     0     171.402 171.621 164.940  0.00  0.00     0.183 C 
HETATM   15  C   UNK     0     170.447 171.601 166.136  0.00  0.00     0.204 C 
BRANCH  12  16
HETATM   16  O   UNK     0     173.691 171.475 164.257  0.00  0.00    -0.390 OA
HETATM   17  H   UNK     0     173.548 170.747 163.628  0.00  0.00     0.210 HD
ENDBRANCH  12  16
BRANCH  14  18
HETATM   18  O   UNK     0     170.964 170.690 163.954  0.00  0.00    -0.390 OA
HETATM   19  H   UNK     0     171.473 169.869 164.074  0.00  0.00     0.210 HD
ENDBRANCH  14  18
BRANCH  15  20
HETATM   20  O   UNK     0     170.307 170.267 166.625  0.00  0.00    -0.388 OA
HETATM   21  H   UNK     0     170.275 170.298 167.597  0.00  0.00     0.210 HD
ENDBRANCH  15  20
ENDBRANCH   8   9
ENDBRANCH   7   8
ENDBRANCH   2   7
BRANCH   6  22
HETATM   22  O   UNK     0     166.807 172.795 170.399  0.00  0.00    -0.311 OA
BRANCH  22  23
HETATM   23  C   UNK     0     165.483 173.167 170.320  0.00  0.00     0.157 A 
HETATM   24  C   UNK     0     164.718 173.393 171.402  0.00  0.00     0.124 A 
HETATM   25  O   UNK     0     163.375 173.737 171.359  0.00  0.00    -0.306 OA
HETATM   26  C   UNK     0     162.776 173.879 170.134  0.00  0.00     0.096 A 
HETATM   27  C   UNK     0     163.456 173.682 168.934  0.00  0.00     0.084 A 
HETATM   28  C   UNK     0     161.427 174.235 170.122  0.00  0.00     0.075 A 
HETATM   29  C   UNK     0     164.877 173.305 168.973  0.00  0.00     0.223 A 
HETATM   30  C   UNK     0     162.793 173.840 167.713  0.00  0.00     0.085 A 
HETATM   31  O   UNK     0     165.523 173.113 167.952  0.00  0.00    -0.284 OA
HETATM   32  C   UNK     0     161.443 174.196 167.704  0.00  0.00     0.074 A 
HETATM   33  C   UNK     0     160.762 174.394 168.906  0.00  0.00     0.071 A 
BRANCH  24  34
HETATM   34  C   UNK     0     165.235 173.273 172.777  0.00  0.00     0.004 A 
HETATM   35  C   UNK     0     165.775 172.065 173.216  0.00  0.00     0.053 A 
HETATM   36  C   UNK     0     166.266 171.951 174.517  0.00  0.00     0.099 A 
HETATM   37  C   UNK     0     166.216 173.046 175.379  0.00  0.00     0.098 A 
HETATM   38  C   UNK     0     165.675 174.254 174.941  0.00  0.00     0.040 A 
HETATM   39  C   UNK     0     165.185 174.368 173.640  0.00  0.00     0.017 A 
BRANCH  36  40
HETATM   40  O   UNK     0     166.791 170.764 174.935  0.00  0.00    -0.358 OA
HETATM   41  H   UNK     0     167.645 170.613 174.499  0.00  0.00     0.217 HD
ENDBRANCH  36  40
BRANCH  37  42
HETATM   42  O   UNK     0     166.693 172.947 176.651  0.00  0.00    -0.358 OA
HETATM   43  H   UNK     0     166.210 173.558 177.230  0.00  0.00     0.217 HD
ENDBRANCH  37  42
ENDBRANCH  24  34
BRANCH  30  44
HETATM   44  O   UNK     0     163.409 173.659 166.513  0.00  0.00    -0.360 OA
HETATM   45  H   UNK     0     164.197 174.228 166.464  0.00  0.00     0.217 HD
ENDBRANCH  30  44
BRANCH  33  46
HETATM   46  O   UNK     0     159.446 174.741 168.892  0.00  0.00    -0.361 OA
HETATM   47  H   UNK     0     159.321 175.481 168.273  0.00  0.00     0.217 HD
ENDBRANCH  33  46
ENDBRANCH  22  23
ENDBRANCH   6  22
BRANCH   3  48
HETATM   48  O   UNK     0     171.113 175.873 168.843  0.00  0.00    -0.390 OA
HETATM   49  H   UNK     0     171.120 176.526 169.563  0.00  0.00     0.210 HD
ENDBRANCH   3  48
BRANCH   5  50
HETATM   50  O   UNK     0     168.154 174.387 172.312  0.00  0.00    -0.388 OA
HETATM   51  H   UNK     0     168.628 175.169 172.641  0.00  0.00     0.210 HD
ENDBRANCH   5  50
BRANCH   4  52
HETATM   52  O   UNK     0     170.958 174.881 171.553  0.00  0.00    -0.390 OA
HETATM   53  H   UNK     0     171.254 173.955 171.516  0.00  0.00     0.210 HD
ENDBRANCH   4  52
TORSDOF 16
ENDMDL
MODEL 9
REMARK VINA RESULT:      -8.1      2.461      8.327
REMARK  16 active torsions:
REMARK  status: ('A' for Active; 'I' for Inactive)
REMARK    1  A    between atoms: O_2  and  C_22 
REMARK    2  A    between atoms: O_2  and  C_26 
REMARK    3  A    between atoms: O_4  and  C_18 
REMARK    4  A    between atoms: O_5  and  C_19 
REMARK    5  A    between atoms: O_6  and  C_25 
REMARK    6  A    between atoms: O_6  and  C_29 
REMARK    7  A    between atoms: O_7  and  C_20 
REMARK    8  A    between atoms: O_8  and  C_21 
REMARK    9  A    between atoms: O_9  and  C_23 
REMARK   10  A    between atoms: O_10  and  C_24 
REMARK   11  A    between atoms: O_13  and  C_35 
REMARK   12  A    between atoms: O_14  and  C_40 
REMARK   13  A    between atoms: O_15  and  C_41 
REMARK   14  A    between atoms: O_16  and  C_43 
REMARK   15  A    between atoms: C_17  and  C_26 
REMARK   16  A    between atoms: C_30  and  C_33 
ROOT
HETATM    1  O   UNK     0     165.556 173.946 169.770  0.00  0.00    -0.348 OA
HETATM    2  C   UNK     0     166.073 173.558 168.496  0.00  0.00     0.180 C 
HETATM    3  C   UNK     0     165.040 173.846 167.404  0.00  0.00     0.180 C 
HETATM    4  C   UNK     0     163.715 173.150 167.714  0.00  0.00     0.183 C 
HETATM    5  C   UNK     0     163.265 173.429 169.148  0.00  0.00     0.205 C 
HETATM    6  C   UNK     0     164.402 173.195 170.143  0.00  0.00     0.298 C 
ENDROOT
BRANCH   2   7
HETATM    7  C   UNK     0     167.366 174.336 168.270  0.00  0.00     0.205 C 
BRANCH   7   8
HETATM    8  O   UNK     0     168.323 173.477 167.669  0.00  0.00    -0.356 OA
BRANCH   8   9
HETATM    9  C   UNK     0     169.367 174.217 167.044  0.00  0.00     0.291 C 
HETATM   10  O   UNK     0     170.311 173.373 166.378  0.00  0.00    -0.351 OA
HETATM   11  C   UNK     0     171.040 172.504 167.251  0.00  0.00     0.152 C 
HETATM   12  C   UNK     0     171.826 173.306 168.297  0.00  0.00     0.178 C 
HETATM   13  C   UNK     0     171.957 171.656 166.374  0.00  0.00     0.042 C 
HETATM   14  C   UNK     0     170.887 174.249 169.051  0.00  0.00     0.183 C 
HETATM   15  C   UNK     0     170.066 175.097 168.079  0.00  0.00     0.204 C 
BRANCH  12  16
HETATM   16  O   UNK     0     172.427 172.426 169.245  0.00  0.00    -0.390 OA
HETATM   17  H   UNK     0     172.723 171.632 168.770  0.00  0.00     0.210 HD
ENDBRANCH  12  16
BRANCH  14  18
HETATM   18  O   UNK     0     171.656 175.094 169.904  0.00  0.00    -0.390 OA
HETATM   19  H   UNK     0     172.596 174.889 169.757  0.00  0.00     0.210 HD
ENDBRANCH  14  18
BRANCH  15  20
HETATM   20  O   UNK     0     170.923 175.998 167.376  0.00  0.00    -0.388 OA
HETATM   21  H   UNK     0     171.818 175.926 167.749  0.00  0.00     0.210 HD
ENDBRANCH  15  20
ENDBRANCH   8   9
ENDBRANCH   7   8
ENDBRANCH   2   7
BRANCH   6  22
HETATM   22  O   UNK     0     163.952 173.612 171.431  0.00  0.00    -0.311 OA
BRANCH  22  23
HETATM   23  C   UNK     0     164.156 172.634 172.380  0.00  0.00     0.157 A 
HETATM   24  C   UNK     0     165.321 172.476 173.034  0.00  0.00     0.124 A 
HETATM   25  O   UNK     0     165.570 171.484 173.969  0.00  0.00    -0.306 OA
HETATM   26  C   UNK     0     164.563 170.606 174.276  0.00  0.00     0.096 A 
HETATM   27  C   UNK     0     163.305 170.663 173.679  0.00  0.00     0.084 A 
HETATM   28  C   UNK     0     164.840 169.625 175.228  0.00  0.00     0.075 A 
HETATM   29  C   UNK     0     163.039 171.705 172.676  0.00  0.00     0.223 A 
HETATM   30  C   UNK     0     162.315 169.740 174.030  0.00  0.00     0.085 A 
HETATM   31  O   UNK     0     161.955 171.800 172.115  0.00  0.00    -0.284 OA
HETATM   32  C   UNK     0     162.596 168.760 174.983  0.00  0.00     0.074 A 
HETATM   33  C   UNK     0     163.855 168.702 175.581  0.00  0.00     0.071 A 
BRANCH  24  34
HETATM   34  C   UNK     0     166.486 173.348 172.798  0.00  0.00     0.004 A 
HETATM   35  C   UNK     0     166.494 174.651 173.296  0.00  0.00     0.053 A 
HETATM   36  C   UNK     0     167.597 175.476 173.076  0.00  0.00     0.099 A 
HETATM   37  C   UNK     0     168.691 174.999 172.355  0.00  0.00     0.098 A 
HETATM   38  C   UNK     0     168.683 173.696 171.856  0.00  0.00     0.040 A 
HETATM   39  C   UNK     0     167.581 172.871 172.078  0.00  0.00     0.017 A 
BRANCH  36  40
HETATM   40  O   UNK     0     167.592 176.748 173.566  0.00  0.00    -0.358 OA
HETATM   41  H   UNK     0     166.724 176.946 173.952  0.00  0.00     0.217 HD
ENDBRANCH  36  40
BRANCH  37  42
HETATM   42  O   UNK     0     169.774 175.795 172.133  0.00  0.00    -0.358 OA
HETATM   43  H   UNK     0     169.849 175.990 171.186  0.00  0.00     0.217 HD
ENDBRANCH  37  42
ENDBRANCH  24  34
BRANCH  30  44
HETATM   44  O   UNK     0     161.071 169.751 173.477  0.00  0.00    -0.360 OA
HETATM   45  H   UNK     0     160.405 169.854 174.179  0.00  0.00     0.217 HD
ENDBRANCH  30  44
BRANCH  33  46
HETATM   46  O   UNK     0     164.124 167.744 176.510  0.00  0.00    -0.361 OA
HETATM   47  H   UNK     0     164.195 168.164 177.384  0.00  0.00     0.217 HD
ENDBRANCH  33  46
ENDBRANCH  22  23
ENDBRANCH   6  22
BRANCH   3  48
HETATM   48  O   UNK     0     165.536 173.379 166.152  0.00  0.00    -0.390 OA
HETATM   49  H   UNK     0     165.652 174.147 165.569  0.00  0.00     0.210 HD
ENDBRANCH   3  48
BRANCH   5  50
HETATM   50  O   UNK     0     162.188 172.556 169.486  0.00  0.00    -0.388 OA
HETATM   51  H   UNK     0     162.533 171.867 170.078  0.00  0.00     0.210 HD
ENDBRANCH   5  50
BRANCH   4  52
HETATM   52  O   UNK     0     162.732 173.646 166.803  0.00  0.00    -0.390 OA
HETATM   53  H   UNK     0     163.015 174.533 166.524  0.00  0.00     0.210 HD
ENDBRANCH   4  52
TORSDOF 16
ENDMDL
MODEL 10
REMARK VINA RESULT:      -8.0      3.788      8.510
REMARK  16 active torsions:
REMARK  status: ('A' for Active; 'I' for Inactive)
REMARK    1  A    between atoms: O_2  and  C_22 
REMARK    2  A    between atoms: O_2  and  C_26 
REMARK    3  A    between atoms: O_4  and  C_18 
REMARK    4  A    between atoms: O_5  and  C_19 
REMARK    5  A    between atoms: O_6  and  C_25 
REMARK    6  A    between atoms: O_6  and  C_29 
REMARK    7  A    between atoms: O_7  and  C_20 
REMARK    8  A    between atoms: O_8  and  C_21 
REMARK    9  A    between atoms: O_9  and  C_23 
REMARK   10  A    between atoms: O_10  and  C_24 
REMARK   11  A    between atoms: O_13  and  C_35 
REMARK   12  A    between atoms: O_14  and  C_40 
REMARK   13  A    between atoms: O_15  and  C_41 
REMARK   14  A    between atoms: O_16  and  C_43 
REMARK   15  A    between atoms: C_17  and  C_26 
REMARK   16  A    between atoms: C_30  and  C_33 
ROOT
HETATM    1  O   UNK     0     164.717 171.916 173.176  0.00  0.00    -0.348 OA
HETATM    2  C   UNK     0     164.601 172.947 172.194  0.00  0.00     0.180 C 
HETATM    3  C   UNK     0     165.493 174.132 172.574  0.00  0.00     0.180 C 
HETATM    4  C   UNK     0     165.152 174.640 173.975  0.00  0.00     0.183 C 
HETATM    5  C   UNK     0     165.102 173.493 174.984  0.00  0.00     0.205 C 
HETATM    6  C   UNK     0     164.258 172.330 174.461  0.00  0.00     0.298 C 
ENDROOT
BRANCH   2   7
HETATM    7  C   UNK     0     164.999 172.348 170.849  0.00  0.00     0.205 C 
BRANCH   7   8
HETATM    8  O   UNK     0     164.230 172.959 169.824  0.00  0.00    -0.356 OA
BRANCH   8   9
HETATM    9  C   UNK     0     162.866 172.556 169.886  0.00  0.00     0.291 C 
HETATM   10  O   UNK     0     162.640 171.297 169.246  0.00  0.00    -0.351 OA
HETATM   11  C   UNK     0     162.889 171.302 167.836  0.00  0.00     0.152 C 
HETATM   12  C   UNK     0     161.996 172.326 167.123  0.00  0.00     0.178 C 
HETATM   13  C   UNK     0     162.642 169.881 167.334  0.00  0.00     0.042 C 
HETATM   14  C   UNK     0     162.169 173.707 167.757  0.00  0.00     0.183 C 
HETATM   15  C   UNK     0     161.980 173.640 169.274  0.00  0.00     0.204 C 
BRANCH  12  16
HETATM   16  O   UNK     0     162.357 172.423 165.747  0.00  0.00    -0.390 OA
HETATM   17  H   UNK     0     163.051 173.098 165.667  0.00  0.00     0.210 HD
ENDBRANCH  12  16
BRANCH  14  18
HETATM   18  O   UNK     0     161.221 174.607 167.189  0.00  0.00    -0.390 OA
HETATM   19  H   UNK     0     160.794 175.089 167.919  0.00  0.00     0.210 HD
ENDBRANCH  14  18
BRANCH  15  20
HETATM   20  O   UNK     0     160.623 173.317 169.582  0.00  0.00    -0.388 OA
HETATM   21  H   UNK     0     160.054 173.686 168.885  0.00  0.00     0.210 HD
ENDBRANCH  15  20
ENDBRANCH   8   9
ENDBRANCH   7   8
ENDBRANCH   2   7
BRANCH   6  22
HETATM   22  O   UNK     0     164.376 171.250 175.386  0.00  0.00    -0.311 OA
BRANCH  22  23
HETATM   23  C   UNK     0     163.155 170.664 175.641  0.00  0.00     0.157 A 
HETATM   24  C   UNK     0     162.730 169.551 175.017  0.00  0.00     0.124 A 
HETATM   25  O   UNK     0     161.496 168.955 175.226  0.00  0.00    -0.306 OA
HETATM   26  C   UNK     0     160.646 169.516 176.143  0.00  0.00     0.096 A 
HETATM   27  C   UNK     0     160.965 170.664 176.865  0.00  0.00     0.084 A 
HETATM   28  C   UNK     0     159.415 168.888 176.338  0.00  0.00     0.075 A 
HETATM   29  C   UNK     0     162.267 171.309 176.638  0.00  0.00     0.223 A 
HETATM   30  C   UNK     0     160.057 171.193 177.787  0.00  0.00     0.085 A 
HETATM   31  O   UNK     0     162.600 172.322 177.239  0.00  0.00    -0.284 OA
HETATM   32  C   UNK     0     158.827 170.562 177.980  0.00  0.00     0.074 A 
HETATM   33  C   UNK     0     158.507 169.412 177.258  0.00  0.00     0.071 A 
BRANCH  24  34
HETATM   34  C   UNK     0     163.543 168.849 174.008  0.00  0.00     0.004 A 
HETATM   35  C   UNK     0     163.364 169.125 172.652  0.00  0.00     0.053 A 
HETATM   36  C   UNK     0     164.134 168.462 171.697  0.00  0.00     0.099 A 
HETATM   37  C   UNK     0     165.083 167.522 172.097  0.00  0.00     0.098 A 
HETATM   38  C   UNK     0     165.263 167.245 173.452  0.00  0.00     0.040 A 
HETATM   39  C   UNK     0     164.494 167.909 174.407  0.00  0.00     0.017 A 
BRANCH  36  40
HETATM   40  O   UNK     0     163.948 168.739 170.375  0.00  0.00    -0.358 OA
HETATM   41  H   UNK     0     164.303 168.013 169.837  0.00  0.00     0.217 HD
ENDBRANCH  36  40
BRANCH  37  42
HETATM   42  O   UNK     0     165.842 166.868 171.173  0.00  0.00    -0.358 OA
HETATM   43  H   UNK     0     166.744 166.755 171.511  0.00  0.00     0.217 HD
ENDBRANCH  37  42
ENDBRANCH  24  34
BRANCH  30  44
HETATM   44  O   UNK     0     160.319 172.311 178.517  0.00  0.00    -0.360 OA
HETATM   45  H   UNK     0     160.936 172.883 178.027  0.00  0.00     0.217 HD
ENDBRANCH  30  44
BRANCH  33  46
HETATM   46  O   UNK     0     157.306 168.801 177.450  0.00  0.00    -0.361 OA
HETATM   47  H   UNK     0     156.594 169.439 177.269  0.00  0.00     0.217 HD
ENDBRANCH  33  46
ENDBRANCH  22  23
ENDBRANCH   6  22
BRANCH   3  48
HETATM   48  O   UNK     0     165.304 175.185 171.632  0.00  0.00    -0.390 OA
HETATM   49  H   UNK     0     165.834 174.981 170.843  0.00  0.00     0.210 HD
ENDBRANCH   3  48
BRANCH   5  50
HETATM   50  O   UNK     0     164.521 173.957 176.201  0.00  0.00    -0.388 OA
HETATM   51  H   UNK     0     163.698 174.427 175.983  0.00  0.00     0.210 HD
ENDBRANCH   5  50
BRANCH   4  52
HETATM   52  O   UNK     0     166.164 175.571 174.364  0.00  0.00    -0.390 OA
HETATM   53  H   UNK     0     166.523 175.272 175.217  0.00  0.00     0.210 HD
ENDBRANCH   4  52
TORSDOF 16
ENDMDL
