MODEL 1
REMARK VINA RESULT:      -9.5      0.000      0.000
REMARK  30 active torsions:
REMARK  status: ('A' for Active; 'I' for Inactive)
REMARK    1  A    between atoms: C_1  and  C_7 
REMARK    2  A    between atoms: C_4  and  O_9 
REMARK    3  A    between atoms: C_5  and  O_11 
REMARK    4  A    between atoms: C_6  and  O_10 
REMARK    5  A    between atoms: C_7  and  O_78 
REMARK    6  A    between atoms: C_12  and  C_18 
REMARK    7  A    between atoms: C_15  and  O_76 
REMARK    8  A    between atoms: C_16  and  O_78 
REMARK    9  A    between atoms: C_17  and  O_77 
REMARK   10  A    between atoms: C_18  and  O_74 
REMARK   11  A    between atoms: C_19  and  O_27 
REMARK   12  A    between atoms: C_21  and  O_25 
REMARK   13  A    between atoms: C_23  and  O_26 
REMARK   14  A    between atoms: C_28  and  O_37 
REMARK   15  A    between atoms: C_30  and  O_35 
REMARK   16  A    between atoms: C_32  and  O_36 
REMARK   17  A    between atoms: O_36  and  C_67 
REMARK   18  A    between atoms: C_39  and  O_60 
REMARK   19  A    between atoms: C_41  and  O_58 
REMARK   20  A    between atoms: C_42  and  C_45 
REMARK   21  A    between atoms: C_43  and  O_59 
REMARK   22  A    between atoms: C_45  and  O_53 
REMARK   23  A    between atoms: C_47  and  O_53 
REMARK   24  A    between atoms: C_51  and  C_54 
REMARK   25  A    between atoms: C_54  and  O_74 
REMARK   26  A    between atoms: C_64  and  O_69 
REMARK   27  A    between atoms: C_65  and  C_72 
REMARK   28  A    between atoms: C_66  and  O_70 
REMARK   29  A    between atoms: C_68  and  O_71 
REMARK   30  A    between atoms: C_72  and  O_73 
ROOT
HETATM    1  C   UNK     0      16.996  42.002  11.305  0.00  0.00     0.045 A 
HETATM    2  C   UNK     0      15.689  41.557  11.439  0.00  0.00     0.057 A 
HETATM    3  C   UNK     0      17.530  42.213  10.044  0.00  0.00     0.057 A 
HETATM    4  C   UNK     0      14.918  41.324  10.312  0.00  0.00     0.102 A 
HETATM    5  C   UNK     0      16.759  41.978   8.917  0.00  0.00     0.102 A 
HETATM    6  C   UNK     0      15.454  41.533   9.051  0.00  0.00     0.132 A 
ENDROOT
BRANCH   1   7
HETATM    7  C   UNK     0      17.812  42.252  12.499  0.00  0.00     0.298 C 
HETATM    8  O   UNK     0      17.295  42.694  13.499  0.00  0.00    -0.259 OA
BRANCH   7   9
HETATM    9  O   UNK     0      19.151  41.989  12.488  0.00  0.00    -0.272 OA
BRANCH   9  10
HETATM   10  C   UNK     0      19.832  41.753  13.648  0.00  0.00     0.116 A 
HETATM   11  C   UNK     0      20.834  42.625  14.049  0.00  0.00     0.058 A 
HETATM   12  C   UNK     0      21.529  42.397  15.227  0.00  0.00     0.045 A 
HETATM   13  C   UNK     0      21.218  41.292  16.007  0.00  0.00     0.057 A 
HETATM   14  C   UNK     0      20.219  40.415  15.607  0.00  0.00     0.102 A 
HETATM   15  C   UNK     0      19.526  40.647  14.429  0.00  0.00     0.133 A 
BRANCH  12  16
HETATM   16  C   UNK     0      22.594  43.322  15.654  0.00  0.00     0.293 C 
HETATM   17  O   UNK     0      22.492  44.505  15.418  0.00  0.00    -0.259 OA
BRANCH  16  18
HETATM   18  O   UNK     0      23.701  42.853  16.294  0.00  0.00    -0.315 OA
BRANCH  18  19
HETATM   19  C   UNK     0      24.194  43.568  17.416  0.00  0.00     0.213 C 
BRANCH  19  20
HETATM   20  C   UNK     0      24.059  42.838  18.765  0.00  0.00     0.181 C 
HETATM   21  O   UNK     0      22.700  43.008  19.244  0.00  0.00    -0.348 OA
HETATM   22  C   UNK     0      22.085  41.978  20.024  0.00  0.00     0.302 C 
HETATM   23  C   UNK     0      22.226  40.688  19.244  0.00  0.00     0.219 C 
HETATM   24  C   UNK     0      23.654  40.366  19.276  0.00  0.00     0.185 C 
HETATM   25  O   UNK     0      21.533  39.581  19.801  0.00  0.00    -0.304 OA
HETATM   26  C   UNK     0      24.469  41.350  18.502  0.00  0.00     0.194 C 
HETATM   27  O   UNK     0      23.844  39.081  18.708  0.00  0.00    -0.388 OA
HETATM   28  O   UNK     0      25.815  41.112  18.905  0.00  0.00    -0.307 OA
HETATM   29  C   UNK     0      26.236  39.805  19.046  0.00  0.00     0.291 C 
HETATM   30  C   UNK     0      25.760  38.771  18.084  0.00  0.00     0.039 A 
HETATM   31  O   UNK     0      27.015  39.507  19.920  0.00  0.00    -0.260 OA
HETATM   32  C   UNK     0      24.895  37.702  18.393  0.00  0.00     0.086 A 
HETATM   33  C   UNK     0      26.236  38.907  16.789  0.00  0.00     0.054 A 
HETATM   34  C   UNK     0      24.547  36.815  17.381  0.00  0.00     0.096 A 
HETATM   35  C   UNK     0      24.332  37.365  19.754  0.00  0.00     0.013 A 
HETATM   36  H   UNK     0      24.240  38.335  19.266  0.00  0.00     0.229 HD
HETATM   37  C   UNK     0      25.032  36.966  16.093  0.00  0.00     0.129 A 
HETATM   38  C   UNK     0      25.879  38.014  15.795  0.00  0.00     0.102 A 
HETATM   39  C   UNK     0      25.192  36.681  20.607  0.00  0.00     0.110 A 
HETATM   40  C   UNK     0      23.014  37.616  20.185  0.00  0.00     0.052 A 
HETATM   41  C   UNK     0      24.771  36.242  21.852  0.00  0.00     0.133 A 
HETATM   42  C   UNK     0      23.472  36.474  22.266  0.00  0.00     0.113 A 
HETATM   43  C   UNK     0      22.611  37.165  21.431  0.00  0.00     0.058 A 
HETATM   44  C   UNK     0      21.976  38.336  19.394  0.00  0.00     0.294 C 
HETATM   45  O   UNK     0      21.515  37.823  18.400  0.00  0.00    -0.259 OA
BRANCH  22  46
HETATM   46  O   UNK     0      20.719  42.297  20.275  0.00  0.00    -0.283 OA
BRANCH  46  47
HETATM   47  C   UNK     0      20.268  43.551  19.966  0.00  0.00     0.295 C 
HETATM   48  O   UNK     0      20.336  44.423  20.802  0.00  0.00    -0.259 OA
BRANCH  47  49
HETATM   49  C   UNK     0      19.684  43.874  18.638  0.00  0.00     0.045 A 
HETATM   50  C   UNK     0      18.728  43.055  18.053  0.00  0.00     0.057 A 
HETATM   51  C   UNK     0      18.200  43.378  16.809  0.00  0.00     0.102 A 
HETATM   52  C   UNK     0      18.627  44.518  16.146  0.00  0.00     0.132 A 
HETATM   53  C   UNK     0      19.580  45.338  16.727  0.00  0.00     0.102 A 
HETATM   54  C   UNK     0      20.105  45.016  17.971  0.00  0.00     0.057 A 
BRANCH  51  55
HETATM   55  O   UNK     0      17.265  42.574  16.237  0.00  0.00    -0.358 OA
HETATM   56  H   UNK     0      16.822  41.846  16.782  0.00  0.00     0.217 HD
ENDBRANCH  51  55
BRANCH  52  57
HETATM   57  O   UNK     0      18.110  44.836  14.927  0.00  0.00    -0.356 OA
HETATM   58  H   UNK     0      18.092  45.800  14.620  0.00  0.00     0.218 HD
ENDBRANCH  52  57
BRANCH  53  59
HETATM   59  O   UNK     0      20.003  46.456  16.075  0.00  0.00    -0.358 OA
HETATM   60  H   UNK     0      19.536  46.755  15.228  0.00  0.00     0.217 HD
ENDBRANCH  53  59
ENDBRANCH  47  49
ENDBRANCH  46  47
ENDBRANCH  22  46
BRANCH  34  61
HETATM   61  O   UNK     0      23.726  35.767  17.667  0.00  0.00    -0.361 OA
HETATM   62  H   UNK     0      23.690  35.395  18.608  0.00  0.00     0.217 HD
ENDBRANCH  34  61
BRANCH  37  63
HETATM   63  O   UNK     0      24.679  36.081  15.125  0.00  0.00    -0.356 OA
HETATM   64  H   UNK     0      23.850  35.512  15.238  0.00  0.00     0.218 HD
ENDBRANCH  37  63
BRANCH  38  65
HETATM   65  O   UNK     0      26.364  38.162  14.532  0.00  0.00    -0.358 OA
HETATM   66  H   UNK     0      25.726  38.272  13.754  0.00  0.00     0.217 HD
ENDBRANCH  38  65
BRANCH  39  67
HETATM   67  O   UNK     0      26.466  36.420  20.208  0.00  0.00    -0.357 OA
HETATM   68  H   UNK     0      27.223  37.023  20.505  0.00  0.00     0.217 HD
ENDBRANCH  39  67
BRANCH  41  69
HETATM   69  O   UNK     0      25.634  35.572  22.661  0.00  0.00    -0.356 OA
HETATM   70  H   UNK     0      25.895  35.965  23.557  0.00  0.00     0.218 HD
ENDBRANCH  41  69
BRANCH  42  71
HETATM   71  O   UNK     0      23.049  36.021  23.485  0.00  0.00    -0.304 OA
BRANCH  71  72
HETATM   72  C   UNK     0      21.764  36.191  23.925  0.00  0.00     0.120 A 
HETATM   73  C   UNK     0      20.824  35.197  23.700  0.00  0.00     0.005 A 
HETATM   74  C   UNK     0      19.522  35.360  24.143  0.00  0.00     0.051 A 
HETATM   75  C   UNK     0      19.154  36.517  24.812  0.00  0.00     0.102 A 
HETATM   76  C   UNK     0      20.093  37.513  25.037  0.00  0.00     0.135 A 
HETATM   77  C   UNK     0      21.396  37.351  24.596  0.00  0.00     0.136 A 
BRANCH  73  78
HETATM   78  C   UNK     0      21.219  33.937  22.973  0.00  0.00     0.205 C 
BRANCH  78  79
HETATM   79  O   UNK     0      22.356  33.368  23.603  0.00  0.00    -0.396 OA
HETATM   80  H   UNK     0      22.464  32.363  23.641  0.00  0.00     0.209 HD
ENDBRANCH  78  79
ENDBRANCH  73  78
BRANCH  75  81
HETATM   81  O   UNK     0      17.874  36.674  25.244  0.00  0.00    -0.358 OA
HETATM   82  H   UNK     0      17.354  37.507  24.994  0.00  0.00     0.217 HD
ENDBRANCH  75  81
BRANCH  76  83
HETATM   83  O   UNK     0      19.734  38.649  25.692  0.00  0.00    -0.356 OA
HETATM   84  H   UNK     0      18.758  38.843  25.871  0.00  0.00     0.218 HD
ENDBRANCH  76  83
BRANCH  77  85
HETATM   85  O   UNK     0      22.313  38.332  24.821  0.00  0.00    -0.356 OA
HETATM   86  H   UNK     0      23.172  38.119  25.310  0.00  0.00     0.218 HD
ENDBRANCH  77  85
ENDBRANCH  71  72
ENDBRANCH  42  71
ENDBRANCH  19  20
ENDBRANCH  18  19
ENDBRANCH  16  18
ENDBRANCH  12  16
BRANCH  14  87
HETATM   87  O   UNK     0      19.919  39.329  16.368  0.00  0.00    -0.358 OA
HETATM   88  H   UNK     0      19.016  39.262  16.820  0.00  0.00     0.217 HD
ENDBRANCH  14  87
BRANCH  15  89
HETATM   89  O   UNK     0      18.546  39.790  14.036  0.00  0.00    -0.356 OA
HETATM   90  H   UNK     0      17.574  40.049  14.147  0.00  0.00     0.218 HD
ENDBRANCH  15  89
ENDBRANCH   9  10
ENDBRANCH   7   9
ENDBRANCH   1   7
BRANCH   4  91
HETATM   91  O   UNK     0      13.637  40.887  10.440  0.00  0.00    -0.358 OA
HETATM   92  H   UNK     0      12.922  41.223   9.809  0.00  0.00     0.217 HD
ENDBRANCH   4  91
BRANCH   5  93
HETATM   93  O   UNK     0      17.284  42.179   7.678  0.00  0.00    -0.358 OA
HETATM   94  H   UNK     0      16.997  41.590   6.906  0.00  0.00     0.217 HD
ENDBRANCH   5  93
BRANCH   6  95
HETATM   95  O   UNK     0      14.697  41.302   7.945  0.00  0.00    -0.356 OA
HETATM   96  H   UNK     0      14.140  40.460   7.879  0.00  0.00     0.218 HD
ENDBRANCH   6  95
TORSDOF 30
ENDMDL
MODEL 2
REMARK VINA RESULT:      -9.1      4.052      6.938
REMARK  30 active torsions:
REMARK  status: ('A' for Active; 'I' for Inactive)
REMARK    1  A    between atoms: C_1  and  C_7 
REMARK    2  A    between atoms: C_4  and  O_9 
REMARK    3  A    between atoms: C_5  and  O_11 
REMARK    4  A    between atoms: C_6  and  O_10 
REMARK    5  A    between atoms: C_7  and  O_78 
REMARK    6  A    between atoms: C_12  and  C_18 
REMARK    7  A    between atoms: C_15  and  O_76 
REMARK    8  A    between atoms: C_16  and  O_78 
REMARK    9  A    between atoms: C_17  and  O_77 
REMARK   10  A    between atoms: C_18  and  O_74 
REMARK   11  A    between atoms: C_19  and  O_27 
REMARK   12  A    between atoms: C_21  and  O_25 
REMARK   13  A    between atoms: C_23  and  O_26 
REMARK   14  A    between atoms: C_28  and  O_37 
REMARK   15  A    between atoms: C_30  and  O_35 
REMARK   16  A    between atoms: C_32  and  O_36 
REMARK   17  A    between atoms: O_36  and  C_67 
REMARK   18  A    between atoms: C_39  and  O_60 
REMARK   19  A    between atoms: C_41  and  O_58 
REMARK   20  A    between atoms: C_42  and  C_45 
REMARK   21  A    between atoms: C_43  and  O_59 
REMARK   22  A    between atoms: C_45  and  O_53 
REMARK   23  A    between atoms: C_47  and  O_53 
REMARK   24  A    between atoms: C_51  and  C_54 
REMARK   25  A    between atoms: C_54  and  O_74 
REMARK   26  A    between atoms: C_64  and  O_69 
REMARK   27  A    between atoms: C_65  and  C_72 
REMARK   28  A    between atoms: C_66  and  O_70 
REMARK   29  A    between atoms: C_68  and  O_71 
REMARK   30  A    between atoms: C_72  and  O_73 
ROOT
HETATM    1  C   UNK     0      17.349  42.481  11.609  0.00  0.00     0.045 A 
HETATM    2  C   UNK     0      16.189  42.006  11.014  0.00  0.00     0.057 A 
HETATM    3  C   UNK     0      18.400  42.924  10.823  0.00  0.00     0.057 A 
HETATM    4  C   UNK     0      16.083  41.974   9.633  0.00  0.00     0.102 A 
HETATM    5  C   UNK     0      18.293  42.890   9.442  0.00  0.00     0.102 A 
HETATM    6  C   UNK     0      17.135  42.416   8.847  0.00  0.00     0.132 A 
ENDROOT
BRANCH   1   7
HETATM    7  C   UNK     0      17.460  42.517  13.072  0.00  0.00     0.298 C 
HETATM    8  O   UNK     0      16.520  42.184  13.755  0.00  0.00    -0.259 OA
BRANCH   7   9
HETATM    9  O   UNK     0      18.619  42.925  13.666  0.00  0.00    -0.272 OA
BRANCH   9  10
HETATM   10  C   UNK     0      18.640  43.317  14.974  0.00  0.00     0.116 A 
HETATM   11  C   UNK     0      18.511  42.369  15.979  0.00  0.00     0.058 A 
HETATM   12  C   UNK     0      18.535  42.754  17.311  0.00  0.00     0.045 A 
HETATM   13  C   UNK     0      18.689  44.095  17.637  0.00  0.00     0.057 A 
HETATM   14  C   UNK     0      18.813  45.046  16.634  0.00  0.00     0.102 A 
HETATM   15  C   UNK     0      18.789  44.657  15.305  0.00  0.00     0.133 A 
BRANCH  12  16
HETATM   16  C   UNK     0      18.398  41.749  18.381  0.00  0.00     0.293 C 
HETATM   17  O   UNK     0      19.017  41.883  19.412  0.00  0.00    -0.259 OA
BRANCH  16  18
HETATM   18  O   UNK     0      17.597  40.661  18.208  0.00  0.00    -0.315 OA
BRANCH  18  19
HETATM   19  C   UNK     0      18.177  39.456  17.731  0.00  0.00     0.213 C 
BRANCH  19  20
HETATM   20  C   UNK     0      17.880  38.209  18.582  0.00  0.00     0.181 C 
HETATM   21  O   UNK     0      17.562  37.110  17.689  0.00  0.00    -0.348 OA
HETATM   22  C   UNK     0      17.901  35.770  18.060  0.00  0.00     0.302 C 
HETATM   23  C   UNK     0      19.372  35.768  18.417  0.00  0.00     0.219 C 
HETATM   24  C   UNK     0      19.472  36.527  19.665  0.00  0.00     0.185 C 
HETATM   25  O   UNK     0      19.919  34.481  18.663  0.00  0.00    -0.304 OA
HETATM   26  C   UNK     0      19.147  37.973  19.471  0.00  0.00     0.194 C 
HETATM   27  O   UNK     0      20.799  36.427  20.154  0.00  0.00    -0.388 OA
HETATM   28  O   UNK     0      18.952  38.487  20.785  0.00  0.00    -0.307 OA
HETATM   29  C   UNK     0      19.821  38.087  21.781  0.00  0.00     0.291 C 
HETATM   30  C   UNK     0      21.267  37.913  21.469  0.00  0.00     0.039 A 
HETATM   31  O   UNK     0      19.419  37.917  22.908  0.00  0.00    -0.260 OA
HETATM   32  C   UNK     0      21.960  36.686  21.453  0.00  0.00     0.086 A 
HETATM   33  C   UNK     0      21.953  39.084  21.179  0.00  0.00     0.054 A 
HETATM   34  C   UNK     0      23.315  36.691  21.147  0.00  0.00     0.096 A 
HETATM   35  C   UNK     0      21.393  35.329  21.803  0.00  0.00     0.013 A 
HETATM   36  H   UNK     0      20.975  36.005  21.057  0.00  0.00     0.229 HD
HETATM   37  C   UNK     0      23.984  37.869  20.859  0.00  0.00     0.129 A 
HETATM   38  C   UNK     0      23.302  39.069  20.876  0.00  0.00     0.102 A 
HETATM   39  C   UNK     0      21.292  35.052  23.161  0.00  0.00     0.110 A 
HETATM   40  C   UNK     0      21.041  34.323  20.881  0.00  0.00     0.052 A 
HETATM   41  C   UNK     0      20.865  33.813  23.613  0.00  0.00     0.133 A 
HETATM   42  C   UNK     0      20.537  32.821  22.707  0.00  0.00     0.113 A 
HETATM   43  C   UNK     0      20.621  33.090  21.352  0.00  0.00     0.058 A 
HETATM   44  C   UNK     0      21.090  34.463  19.398  0.00  0.00     0.294 C 
HETATM   45  O   UNK     0      22.159  34.551  18.838  0.00  0.00    -0.259 OA
BRANCH  22  46
HETATM   46  O   UNK     0      17.616  34.874  16.988  0.00  0.00    -0.283 OA
BRANCH  46  47
HETATM   47  C   UNK     0      16.362  34.879  16.441  0.00  0.00     0.295 C 
HETATM   48  O   UNK     0      16.228  35.182  15.278  0.00  0.00    -0.259 OA
BRANCH  47  49
HETATM   49  C   UNK     0      15.153  34.537  17.237  0.00  0.00     0.045 A 
HETATM   50  C   UNK     0      14.011  35.325  17.186  0.00  0.00     0.057 A 
HETATM   51  C   UNK     0      12.896  34.985  17.941  0.00  0.00     0.102 A 
HETATM   52  C   UNK     0      12.919  33.859  18.750  0.00  0.00     0.132 A 
HETATM   53  C   UNK     0      14.057  33.070  18.802  0.00  0.00     0.102 A 
HETATM   54  C   UNK     0      15.170  33.410  18.046  0.00  0.00     0.057 A 
BRANCH  51  55
HETATM   55  O   UNK     0      11.778  35.757  17.892  0.00  0.00    -0.358 OA
HETATM   56  H   UNK     0      11.551  36.367  18.667  0.00  0.00     0.217 HD
ENDBRANCH  51  55
BRANCH  52  57
HETATM   57  O   UNK     0      11.826  33.525  19.491  0.00  0.00    -0.356 OA
HETATM   58  H   UNK     0      11.055  34.174  19.578  0.00  0.00     0.218 HD
ENDBRANCH  52  57
BRANCH  53  59
HETATM   59  O   UNK     0      14.082  31.966  19.599  0.00  0.00    -0.358 OA
HETATM   60  H   UNK     0      14.698  31.195  19.375  0.00  0.00     0.217 HD
ENDBRANCH  53  59
ENDBRANCH  47  49
ENDBRANCH  46  47
ENDBRANCH  22  46
BRANCH  34  61
HETATM   61  O   UNK     0      24.002  35.516  21.145  0.00  0.00    -0.361 OA
HETATM   62  H   UNK     0      24.227  35.059  22.020  0.00  0.00     0.217 HD
ENDBRANCH  34  61
BRANCH  37  63
HETATM   63  O   UNK     0      25.310  37.845  20.568  0.00  0.00    -0.356 OA
HETATM   64  H   UNK     0      25.916  38.581  20.907  0.00  0.00     0.218 HD
ENDBRANCH  37  63
BRANCH  38  65
HETATM   65  O   UNK     0      23.957  40.230  20.602  0.00  0.00    -0.358 OA
HETATM   66  H   UNK     0      24.074  40.928  21.325  0.00  0.00     0.217 HD
ENDBRANCH  38  65
BRANCH  39  67
HETATM   67  O   UNK     0      21.636  36.006  24.069  0.00  0.00    -0.357 OA
HETATM   68  H   UNK     0      21.156  36.897  24.072  0.00  0.00     0.217 HD
ENDBRANCH  39  67
BRANCH  41  69
HETATM   69  O   UNK     0      20.781  33.571  24.948  0.00  0.00    -0.356 OA
HETATM   70  H   UNK     0      19.876  33.537  25.400  0.00  0.00     0.218 HD
ENDBRANCH  41  69
BRANCH  42  71
HETATM   71  O   UNK     0      20.137  31.591  23.151  0.00  0.00    -0.304 OA
BRANCH  71  72
HETATM   72  C   UNK     0      20.548  30.428  22.558  0.00  0.00     0.120 A 
HETATM   73  C   UNK     0      19.681  29.738  21.725  0.00  0.00     0.005 A 
HETATM   74  C   UNK     0      20.089  28.561  21.120  0.00  0.00     0.051 A 
HETATM   75  C   UNK     0      21.365  28.068  21.346  0.00  0.00     0.102 A 
HETATM   76  C   UNK     0      22.233  28.756  22.181  0.00  0.00     0.135 A 
HETATM   77  C   UNK     0      21.826  29.935  22.786  0.00  0.00     0.136 A 
BRANCH  73  78
HETATM   78  C   UNK     0      18.293  30.270  21.475  0.00  0.00     0.205 C 
BRANCH  78  79
HETATM   79  O   UNK     0      17.750  30.758  22.691  0.00  0.00    -0.396 OA
HETATM   80  H   UNK     0      16.892  30.365  23.056  0.00  0.00     0.209 HD
ENDBRANCH  78  79
ENDBRANCH  73  78
BRANCH  75  81
HETATM   81  O   UNK     0      21.762  26.911  20.752  0.00  0.00    -0.358 OA
HETATM   82  H   UNK     0      22.705  26.569  20.890  0.00  0.00     0.217 HD
ENDBRANCH  75  81
BRANCH  76  83
HETATM   83  O   UNK     0      23.484  28.274  22.405  0.00  0.00    -0.356 OA
HETATM   84  H   UNK     0      24.288  28.768  22.041  0.00  0.00     0.218 HD
ENDBRANCH  76  83
BRANCH  77  85
HETATM   85  O   UNK     0      22.684  30.605  23.603  0.00  0.00    -0.356 OA
HETATM   86  H   UNK     0      22.438  30.767  24.571  0.00  0.00     0.218 HD
ENDBRANCH  77  85
ENDBRANCH  71  72
ENDBRANCH  42  71
ENDBRANCH  19  20
ENDBRANCH  18  19
ENDBRANCH  16  18
ENDBRANCH  12  16
BRANCH  14  87
HETATM   87  O   UNK     0      18.958  46.360  16.954  0.00  0.00    -0.358 OA
HETATM   88  H   UNK     0      18.410  47.061  16.473  0.00  0.00     0.217 HD
ENDBRANCH  14  87
BRANCH  15  89
HETATM   89  O   UNK     0      18.913  45.587  14.320  0.00  0.00    -0.356 OA
HETATM   90  H   UNK     0      19.453  45.376  13.490  0.00  0.00     0.218 HD
ENDBRANCH  15  89
ENDBRANCH   9  10
ENDBRANCH   7   9
ENDBRANCH   1   7
BRANCH   4  91
HETATM   91  O   UNK     0      14.948  41.508   9.047  0.00  0.00    -0.358 OA
HETATM   92  H   UNK     0      14.185  41.169   9.619  0.00  0.00     0.217 HD
ENDBRANCH   4  91
BRANCH   5  93
HETATM   93  O   UNK     0      19.327  43.319   8.668  0.00  0.00    -0.358 OA
HETATM   94  H   UNK     0      20.239  43.469   9.080  0.00  0.00     0.217 HD
ENDBRANCH   5  93
BRANCH   6  95
HETATM   95  O   UNK     0      17.031  42.383   7.491  0.00  0.00    -0.356 OA
HETATM   96  H   UNK     0      17.732  42.836   6.919  0.00  0.00     0.218 HD
ENDBRANCH   6  95
TORSDOF 30
ENDMDL
MODEL 3
REMARK VINA RESULT:      -9.1      5.263     11.272
REMARK  30 active torsions:
REMARK  status: ('A' for Active; 'I' for Inactive)
REMARK    1  A    between atoms: C_1  and  C_7 
REMARK    2  A    between atoms: C_4  and  O_9 
REMARK    3  A    between atoms: C_5  and  O_11 
REMARK    4  A    between atoms: C_6  and  O_10 
REMARK    5  A    between atoms: C_7  and  O_78 
REMARK    6  A    between atoms: C_12  and  C_18 
REMARK    7  A    between atoms: C_15  and  O_76 
REMARK    8  A    between atoms: C_16  and  O_78 
REMARK    9  A    between atoms: C_17  and  O_77 
REMARK   10  A    between atoms: C_18  and  O_74 
REMARK   11  A    between atoms: C_19  and  O_27 
REMARK   12  A    between atoms: C_21  and  O_25 
REMARK   13  A    between atoms: C_23  and  O_26 
REMARK   14  A    between atoms: C_28  and  O_37 
REMARK   15  A    between atoms: C_30  and  O_35 
REMARK   16  A    between atoms: C_32  and  O_36 
REMARK   17  A    between atoms: O_36  and  C_67 
REMARK   18  A    between atoms: C_39  and  O_60 
REMARK   19  A    between atoms: C_41  and  O_58 
REMARK   20  A    between atoms: C_42  and  C_45 
REMARK   21  A    between atoms: C_43  and  O_59 
REMARK   22  A    between atoms: C_45  and  O_53 
REMARK   23  A    between atoms: C_47  and  O_53 
REMARK   24  A    between atoms: C_51  and  C_54 
REMARK   25  A    between atoms: C_54  and  O_74 
REMARK   26  A    between atoms: C_64  and  O_69 
REMARK   27  A    between atoms: C_65  and  C_72 
REMARK   28  A    between atoms: C_66  and  O_70 
REMARK   29  A    between atoms: C_68  and  O_71 
REMARK   30  A    between atoms: C_72  and  O_73 
ROOT
HETATM    1  C   UNK     0      27.929  31.914  19.286  0.00  0.00     0.045 A 
HETATM    2  C   UNK     0      26.864  31.025  19.252  0.00  0.00     0.057 A 
HETATM    3  C   UNK     0      29.094  31.574  19.954  0.00  0.00     0.057 A 
HETATM    4  C   UNK     0      26.966  29.798  19.887  0.00  0.00     0.102 A 
HETATM    5  C   UNK     0      29.194  30.346  20.589  0.00  0.00     0.102 A 
HETATM    6  C   UNK     0      28.131  29.459  20.556  0.00  0.00     0.132 A 
ENDROOT
BRANCH   1   7
HETATM    7  C   UNK     0      27.822  33.212  18.611  0.00  0.00     0.298 C 
HETATM    8  O   UNK     0      28.715  33.590  17.888  0.00  0.00    -0.259 OA
BRANCH   7   9
HETATM    9  O   UNK     0      26.721  33.997  18.794  0.00  0.00    -0.272 OA
BRANCH   9  10
HETATM   10  C   UNK     0      26.646  34.874  19.838  0.00  0.00     0.116 A 
HETATM   11  C   UNK     0      26.044  34.482  21.025  0.00  0.00     0.058 A 
HETATM   12  C   UNK     0      25.967  35.363  22.094  0.00  0.00     0.045 A 
HETATM   13  C   UNK     0      26.494  36.641  21.972  0.00  0.00     0.057 A 
HETATM   14  C   UNK     0      27.092  37.038  20.785  0.00  0.00     0.102 A 
HETATM   15  C   UNK     0      27.169  36.154  19.719  0.00  0.00     0.133 A 
BRANCH  12  16
HETATM   16  C   UNK     0      25.328  34.948  23.356  0.00  0.00     0.293 C 
HETATM   17  O   UNK     0      25.983  34.904  24.373  0.00  0.00    -0.259 OA
BRANCH  16  18
HETATM   18  O   UNK     0      24.012  34.597  23.382  0.00  0.00    -0.315 OA
BRANCH  18  19
HETATM   19  C   UNK     0      23.053  35.574  23.756  0.00  0.00     0.213 C 
BRANCH  19  20
HETATM   20  C   UNK     0      21.705  35.480  23.019  0.00  0.00     0.181 C 
HETATM   21  O   UNK     0      21.814  36.210  21.770  0.00  0.00    -0.348 OA
HETATM   22  C   UNK     0      21.070  35.778  20.626  0.00  0.00     0.302 C 
HETATM   23  C   UNK     0      21.379  34.310  20.424  0.00  0.00     0.219 C 
HETATM   24  C   UNK     0      20.748  33.620  21.550  0.00  0.00     0.185 C 
HETATM   25  O   UNK     0      20.843  33.751  19.233  0.00  0.00    -0.304 OA
HETATM   26  C   UNK     0      21.403  33.953  22.851  0.00  0.00     0.194 C 
HETATM   27  O   UNK     0      20.851  32.221  21.342  0.00  0.00    -0.388 OA
HETATM   28  O   UNK     0      20.491  33.500  23.849  0.00  0.00    -0.307 OA
HETATM   29  C   UNK     0      19.871  32.281  23.664  0.00  0.00     0.291 C 
HETATM   30  C   UNK     0      20.632  31.151  23.063  0.00  0.00     0.039 A 
HETATM   31  O   UNK     0      18.728  32.119  24.023  0.00  0.00    -0.260 OA
HETATM   32  C   UNK     0      20.391  30.582  21.797  0.00  0.00     0.086 A 
HETATM   33  C   UNK     0      21.654  30.642  23.852  0.00  0.00     0.054 A 
HETATM   34  C   UNK     0      21.190  29.524  21.379  0.00  0.00     0.096 A 
HETATM   35  C   UNK     0      19.289  30.963  20.835  0.00  0.00     0.013 A 
HETATM   36  H   UNK     0      20.013  31.659  21.259  0.00  0.00     0.229 HD
HETATM   37  C   UNK     0      22.205  29.030  22.179  0.00  0.00     0.129 A 
HETATM   38  C   UNK     0      22.439  29.589  23.420  0.00  0.00     0.102 A 
HETATM   39  C   UNK     0      18.036  30.431  21.116  0.00  0.00     0.110 A 
HETATM   40  C   UNK     0      19.448  31.733  19.666  0.00  0.00     0.052 A 
HETATM   41  C   UNK     0      16.960  30.637  20.267  0.00  0.00     0.133 A 
HETATM   42  C   UNK     0      17.121  31.379  19.111  0.00  0.00     0.113 A 
HETATM   43  C   UNK     0      18.362  31.925  18.827  0.00  0.00     0.058 A 
HETATM   44  C   UNK     0      20.720  32.374  19.226  0.00  0.00     0.294 C 
HETATM   45  O   UNK     0      21.642  31.685  18.854  0.00  0.00    -0.259 OA
BRANCH  22  46
HETATM   46  O   UNK     0      21.424  36.555  19.484  0.00  0.00    -0.283 OA
BRANCH  46  47
HETATM   47  C   UNK     0      22.706  37.024  19.379  0.00  0.00     0.295 C 
HETATM   48  O   UNK     0      23.595  36.249  19.109  0.00  0.00    -0.259 OA
BRANCH  47  49
HETATM   49  C   UNK     0      23.042  38.455  19.599  0.00  0.00     0.045 A 
HETATM   50  C   UNK     0      24.360  38.892  19.604  0.00  0.00     0.057 A 
HETATM   51  C   UNK     0      24.648  40.235  19.814  0.00  0.00     0.102 A 
HETATM   52  C   UNK     0      23.622  41.143  20.022  0.00  0.00     0.132 A 
HETATM   53  C   UNK     0      22.305  40.710  20.016  0.00  0.00     0.102 A 
HETATM   54  C   UNK     0      22.019  39.369  19.804  0.00  0.00     0.057 A 
BRANCH  51  55
HETATM   55  O   UNK     0      25.938  40.662  19.821  0.00  0.00    -0.358 OA
HETATM   56  H   UNK     0      26.694  39.989  19.775  0.00  0.00     0.217 HD
ENDBRANCH  51  55
BRANCH  52  57
HETATM   57  O   UNK     0      23.903  42.459  20.229  0.00  0.00    -0.356 OA
HETATM   58  H   UNK     0      24.509  42.955  19.588  0.00  0.00     0.218 HD
ENDBRANCH  52  57
BRANCH  53  59
HETATM   59  O   UNK     0      21.296  41.601  20.224  0.00  0.00    -0.358 OA
HETATM   60  H   UNK     0      20.522  41.648  19.575  0.00  0.00     0.217 HD
ENDBRANCH  53  59
ENDBRANCH  47  49
ENDBRANCH  46  47
ENDBRANCH  22  46
BRANCH  34  61
HETATM   61  O   UNK     0      20.958  28.953  20.166  0.00  0.00    -0.361 OA
HETATM   62  H   UNK     0      20.507  29.486  19.433  0.00  0.00     0.217 HD
ENDBRANCH  34  61
BRANCH  37  63
HETATM   63  O   UNK     0      22.967  27.992  21.748  0.00  0.00    -0.356 OA
HETATM   64  H   UNK     0      23.035  27.149  22.304  0.00  0.00     0.218 HD
ENDBRANCH  37  63
BRANCH  38  65
HETATM   65  O   UNK     0      23.431  29.101  24.213  0.00  0.00    -0.358 OA
HETATM   66  H   UNK     0      23.690  29.592  25.059  0.00  0.00     0.217 HD
ENDBRANCH  38  65
BRANCH  39  67
HETATM   67  O   UNK     0      17.862  29.677  22.235  0.00  0.00    -0.357 OA
HETATM   68  H   UNK     0      17.565  28.713  22.154  0.00  0.00     0.217 HD
ENDBRANCH  39  67
BRANCH  41  69
HETATM   69  O   UNK     0      15.748  30.100  20.567  0.00  0.00    -0.356 OA
HETATM   70  H   UNK     0      15.157  29.740  19.828  0.00  0.00     0.218 HD
ENDBRANCH  41  69
BRANCH  42  71
HETATM   71  O   UNK     0      16.066  31.564  18.262  0.00  0.00    -0.304 OA
BRANCH  71  72
HETATM   72  C   UNK     0      15.263  32.671  18.320  0.00  0.00     0.120 A 
HETATM   73  C   UNK     0      15.606  33.808  17.604  0.00  0.00     0.005 A 
HETATM   74  C   UNK     0      14.797  34.931  17.656  0.00  0.00     0.051 A 
HETATM   75  C   UNK     0      13.644  34.923  18.425  0.00  0.00     0.102 A 
HETATM   76  C   UNK     0      13.300  33.788  19.143  0.00  0.00     0.135 A 
HETATM   77  C   UNK     0      14.107  32.663  19.091  0.00  0.00     0.136 A 
BRANCH  73  78
HETATM   78  C   UNK     0      16.858  33.820  16.765  0.00  0.00     0.205 C 
BRANCH  78  79
HETATM   79  O   UNK     0      16.774  32.804  15.779  0.00  0.00    -0.396 OA
HETATM   80  H   UNK     0      15.870  32.493  15.448  0.00  0.00     0.209 HD
ENDBRANCH  78  79
ENDBRANCH  73  78
BRANCH  75  81
HETATM   81  O   UNK     0      12.854  36.029  18.475  0.00  0.00    -0.358 OA
HETATM   82  H   UNK     0      13.047  36.817  17.869  0.00  0.00     0.217 HD
ENDBRANCH  75  81
BRANCH  76  83
HETATM   83  O   UNK     0      12.170  33.779  19.899  0.00  0.00    -0.356 OA
HETATM   84  H   UNK     0      12.010  33.028  20.558  0.00  0.00     0.218 HD
ENDBRANCH  76  83
BRANCH  77  85
HETATM   85  O   UNK     0      13.763  31.551  19.798  0.00  0.00    -0.356 OA
HETATM   86  H   UNK     0      12.909  31.541  20.342  0.00  0.00     0.218 HD
ENDBRANCH  77  85
ENDBRANCH  71  72
ENDBRANCH  42  71
ENDBRANCH  19  20
ENDBRANCH  18  19
ENDBRANCH  16  18
ENDBRANCH  12  16
BRANCH  14  87
HETATM   87  O   UNK     0      27.604  38.292  20.664  0.00  0.00    -0.358 OA
HETATM   88  H   UNK     0      27.319  39.019  21.307  0.00  0.00     0.217 HD
ENDBRANCH  14  87
BRANCH  15  89
HETATM   89  O   UNK     0      27.756  36.540  18.555  0.00  0.00    -0.356 OA
HETATM   90  H   UNK     0      27.184  36.810  17.765  0.00  0.00     0.218 HD
ENDBRANCH  15  89
ENDBRANCH   9  10
ENDBRANCH   7   9
ENDBRANCH   1   7
BRANCH   4  91
HETATM   91  O   UNK     0      25.923  28.926  19.856  0.00  0.00    -0.358 OA
HETATM   92  H   UNK     0      25.195  29.031  19.162  0.00  0.00     0.217 HD
ENDBRANCH   4  91
BRANCH   5  93
HETATM   93  O   UNK     0      30.336  30.013  21.251  0.00  0.00    -0.358 OA
HETATM   94  H   UNK     0      31.215  29.971  20.752  0.00  0.00     0.217 HD
ENDBRANCH   5  93
BRANCH   6  95
HETATM   95  O   UNK     0      28.230  28.255  21.180  0.00  0.00    -0.356 OA
HETATM   96  H   UNK     0      28.964  28.096  21.859  0.00  0.00     0.218 HD
ENDBRANCH   6  95
TORSDOF 30
ENDMDL
MODEL 4
REMARK VINA RESULT:      -8.7      4.093      7.324
REMARK  30 active torsions:
REMARK  status: ('A' for Active; 'I' for Inactive)
REMARK    1  A    between atoms: C_1  and  C_7 
REMARK    2  A    between atoms: C_4  and  O_9 
REMARK    3  A    between atoms: C_5  and  O_11 
REMARK    4  A    between atoms: C_6  and  O_10 
REMARK    5  A    between atoms: C_7  and  O_78 
REMARK    6  A    between atoms: C_12  and  C_18 
REMARK    7  A    between atoms: C_15  and  O_76 
REMARK    8  A    between atoms: C_16  and  O_78 
REMARK    9  A    between atoms: C_17  and  O_77 
REMARK   10  A    between atoms: C_18  and  O_74 
REMARK   11  A    between atoms: C_19  and  O_27 
REMARK   12  A    between atoms: C_21  and  O_25 
REMARK   13  A    between atoms: C_23  and  O_26 
REMARK   14  A    between atoms: C_28  and  O_37 
REMARK   15  A    between atoms: C_30  and  O_35 
REMARK   16  A    between atoms: C_32  and  O_36 
REMARK   17  A    between atoms: O_36  and  C_67 
REMARK   18  A    between atoms: C_39  and  O_60 
REMARK   19  A    between atoms: C_41  and  O_58 
REMARK   20  A    between atoms: C_42  and  C_45 
REMARK   21  A    between atoms: C_43  and  O_59 
REMARK   22  A    between atoms: C_45  and  O_53 
REMARK   23  A    between atoms: C_47  and  O_53 
REMARK   24  A    between atoms: C_51  and  C_54 
REMARK   25  A    between atoms: C_54  and  O_74 
REMARK   26  A    between atoms: C_64  and  O_69 
REMARK   27  A    between atoms: C_65  and  C_72 
REMARK   28  A    between atoms: C_66  and  O_70 
REMARK   29  A    between atoms: C_68  and  O_71 
REMARK   30  A    between atoms: C_72  and  O_73 
ROOT
HETATM    1  C   UNK     0      19.015  43.654  11.723  0.00  0.00     0.045 A 
HETATM    2  C   UNK     0      20.343  43.336  11.970  0.00  0.00     0.057 A 
HETATM    3  C   UNK     0      18.392  44.648  12.461  0.00  0.00     0.057 A 
HETATM    4  C   UNK     0      21.045  44.012  12.954  0.00  0.00     0.102 A 
HETATM    5  C   UNK     0      19.096  45.323  13.446  0.00  0.00     0.102 A 
HETATM    6  C   UNK     0      20.421  45.005  13.692  0.00  0.00     0.132 A 
ENDROOT
BRANCH   1   7
HETATM    7  C   UNK     0      18.271  42.940  10.679  0.00  0.00     0.298 C 
HETATM    8  O   UNK     0      18.086  43.466   9.606  0.00  0.00    -0.259 OA
BRANCH   7   9
HETATM    9  O   UNK     0      17.787  41.686  10.912  0.00  0.00    -0.272 OA
BRANCH   9  10
HETATM   10  C   UNK     0      16.884  41.452  11.909  0.00  0.00     0.116 A 
HETATM   11  C   UNK     0      17.328  41.256  13.209  0.00  0.00     0.058 A 
HETATM   12  C   UNK     0      16.420  41.023  14.230  0.00  0.00     0.045 A 
HETATM   13  C   UNK     0      15.061  40.986  13.948  0.00  0.00     0.057 A 
HETATM   14  C   UNK     0      14.614  41.177  12.649  0.00  0.00     0.102 A 
HETATM   15  C   UNK     0      15.525  41.411  11.631  0.00  0.00     0.133 A 
BRANCH  12  16
HETATM   16  C   UNK     0      16.890  40.814  15.612  0.00  0.00     0.293 C 
HETATM   17  O   UNK     0      16.644  41.642  16.461  0.00  0.00    -0.259 OA
BRANCH  16  18
HETATM   18  O   UNK     0      17.615  39.708  15.936  0.00  0.00    -0.315 OA
BRANCH  18  19
HETATM   19  C   UNK     0      18.262  39.662  17.198  0.00  0.00     0.213 C 
BRANCH  19  20
HETATM   20  C   UNK     0      17.889  38.454  18.078  0.00  0.00     0.181 C 
HETATM   21  O   UNK     0      17.567  37.337  17.209  0.00  0.00    -0.348 OA
HETATM   22  C   UNK     0      17.844  36.000  17.636  0.00  0.00     0.302 C 
HETATM   23  C   UNK     0      19.299  35.960  18.050  0.00  0.00     0.219 C 
HETATM   24  C   UNK     0      19.379  36.757  19.276  0.00  0.00     0.185 C 
HETATM   25  O   UNK     0      19.791  34.664  18.359  0.00  0.00    -0.304 OA
HETATM   26  C   UNK     0      19.112  38.205  19.022  0.00  0.00     0.194 C 
HETATM   27  O   UNK     0      20.682  36.629  19.819  0.00  0.00    -0.388 OA
HETATM   28  O   UNK     0      18.886  38.770  20.311  0.00  0.00    -0.307 OA
HETATM   29  C   UNK     0      19.703  38.375  21.352  0.00  0.00     0.291 C 
HETATM   30  C   UNK     0      21.152  38.142  21.102  0.00  0.00     0.039 A 
HETATM   31  O   UNK     0      19.252  38.257  22.467  0.00  0.00    -0.260 OA
HETATM   32  C   UNK     0      21.802  36.892  21.154  0.00  0.00     0.086 A 
HETATM   33  C   UNK     0      21.890  39.278  20.801  0.00  0.00     0.054 A 
HETATM   34  C   UNK     0      23.167  36.841  20.900  0.00  0.00     0.096 A 
HETATM   35  C   UNK     0      21.174  35.567  21.525  0.00  0.00     0.013 A 
HETATM   36  H   UNK     0      20.808  36.232  20.741  0.00  0.00     0.229 HD
HETATM   37  C   UNK     0      23.887  37.984  20.601  0.00  0.00     0.129 A 
HETATM   38  C   UNK     0      23.248  39.207  20.552  0.00  0.00     0.102 A 
HETATM   39  C   UNK     0      21.013  35.340  22.886  0.00  0.00     0.110 A 
HETATM   40  C   UNK     0      20.823  34.544  20.623  0.00  0.00     0.052 A 
HETATM   41  C   UNK     0      20.526  34.132  23.361  0.00  0.00     0.133 A 
HETATM   42  C   UNK     0      20.196  33.122  22.476  0.00  0.00     0.113 A 
HETATM   43  C   UNK     0      20.342  33.342  21.117  0.00  0.00     0.058 A 
HETATM   44  C   UNK     0      20.932  34.631  19.139  0.00  0.00     0.294 C 
HETATM   45  O   UNK     0      22.024  34.664  18.619  0.00  0.00    -0.259 OA
BRANCH  22  46
HETATM   46  O   UNK     0      17.569  35.078  16.584  0.00  0.00    -0.283 OA
BRANCH  46  47
HETATM   47  C   UNK     0      16.280  34.949  16.142  0.00  0.00     0.295 C 
HETATM   48  O   UNK     0      16.032  35.172  14.979  0.00  0.00    -0.259 OA
BRANCH  47  49
HETATM   49  C   UNK     0      15.170  34.558  17.051  0.00  0.00     0.045 A 
HETATM   50  C   UNK     0      15.264  33.433  17.859  0.00  0.00     0.057 A 
HETATM   51  C   UNK     0      14.212  33.087  18.697  0.00  0.00     0.102 A 
HETATM   52  C   UNK     0      13.063  33.862  18.729  0.00  0.00     0.132 A 
HETATM   53  C   UNK     0      12.967  34.986  17.925  0.00  0.00     0.102 A 
HETATM   54  C   UNK     0      14.019  35.332  17.090  0.00  0.00     0.057 A 
BRANCH  51  55
HETATM   55  O   UNK     0      14.304  31.984  19.486  0.00  0.00    -0.358 OA
HETATM   56  H   UNK     0      13.586  31.793  20.174  0.00  0.00     0.217 HD
ENDBRANCH  51  55
BRANCH  52  57
HETATM   57  O   UNK     0      12.031  33.524  19.551  0.00  0.00    -0.356 OA
HETATM   58  H   UNK     0      11.903  32.561  19.834  0.00  0.00     0.218 HD
ENDBRANCH  52  57
BRANCH  53  59
HETATM   59  O   UNK     0      11.837  35.746  17.953  0.00  0.00    -0.358 OA
HETATM   60  H   UNK     0      11.831  36.624  18.457  0.00  0.00     0.217 HD
ENDBRANCH  53  59
ENDBRANCH  47  49
ENDBRANCH  46  47
ENDBRANCH  22  46
BRANCH  34  61
HETATM   61  O   UNK     0      23.812  35.643  20.964  0.00  0.00    -0.361 OA
HETATM   62  H   UNK     0      24.250  35.349  21.828  0.00  0.00     0.217 HD
ENDBRANCH  34  61
BRANCH  37  63
HETATM   63  O   UNK     0      25.222  37.906  20.362  0.00  0.00    -0.356 OA
HETATM   64  H   UNK     0      25.560  37.784  19.417  0.00  0.00     0.218 HD
ENDBRANCH  37  63
BRANCH  38  65
HETATM   65  O   UNK     0      23.953  40.335  20.266  0.00  0.00    -0.358 OA
HETATM   66  H   UNK     0      23.846  40.785  19.365  0.00  0.00     0.217 HD
ENDBRANCH  38  65
BRANCH  39  67
HETATM   67  O   UNK     0      21.355  36.312  23.775  0.00  0.00    -0.357 OA
HETATM   68  H   UNK     0      22.302  36.366  24.126  0.00  0.00     0.217 HD
ENDBRANCH  39  67
BRANCH  41  69
HETATM   69  O   UNK     0      20.382  33.939  24.699  0.00  0.00    -0.356 OA
HETATM   70  H   UNK     0      21.169  33.623  25.252  0.00  0.00     0.218 HD
ENDBRANCH  41  69
BRANCH  42  71
HETATM   71  O   UNK     0      19.737  31.922  22.944  0.00  0.00    -0.304 OA
BRANCH  71  72
HETATM   72  C   UNK     0      20.261  30.726  22.535  0.00  0.00     0.120 A 
HETATM   73  C   UNK     0      19.626  30.002  21.537  0.00  0.00     0.005 A 
HETATM   74  C   UNK     0      20.151  28.792  21.116  0.00  0.00     0.051 A 
HETATM   75  C   UNK     0      21.312  28.299  21.692  0.00  0.00     0.102 A 
HETATM   76  C   UNK     0      21.948  29.020  22.690  0.00  0.00     0.135 A 
HETATM   77  C   UNK     0      21.425  30.233  23.112  0.00  0.00     0.136 A 
BRANCH  73  78
HETATM   78  C   UNK     0      18.364  30.535  20.908  0.00  0.00     0.205 C 
BRANCH  78  79
HETATM   79  O   UNK     0      17.381  30.726  21.913  0.00  0.00    -0.396 OA
HETATM   80  H   UNK     0      16.891  29.930  22.299  0.00  0.00     0.209 HD
ENDBRANCH  78  79
ENDBRANCH  73  78
BRANCH  75  81
HETATM   81  O   UNK     0      21.823  27.109  21.277  0.00  0.00    -0.358 OA
HETATM   82  H   UNK     0      21.275  26.505  20.676  0.00  0.00     0.217 HD
ENDBRANCH  75  81
BRANCH  76  83
HETATM   83  O   UNK     0      23.086  28.538  23.257  0.00  0.00    -0.356 OA
HETATM   84  H   UNK     0      23.662  29.144  23.827  0.00  0.00     0.218 HD
ENDBRANCH  76  83
BRANCH  77  85
HETATM   85  O   UNK     0      22.055  30.936  24.093  0.00  0.00    -0.356 OA
HETATM   86  H   UNK     0      21.823  31.909  24.247  0.00  0.00     0.218 HD
ENDBRANCH  77  85
ENDBRANCH  71  72
ENDBRANCH  42  71
ENDBRANCH  19  20
ENDBRANCH  18  19
ENDBRANCH  16  18
ENDBRANCH  12  16
BRANCH  14  87
HETATM   87  O   UNK     0      13.283  41.136  12.372  0.00  0.00    -0.358 OA
HETATM   88  H   UNK     0      12.660  41.821  12.780  0.00  0.00     0.217 HD
ENDBRANCH  14  87
BRANCH  15  89
HETATM   89  O   UNK     0      15.088  41.601  10.357  0.00  0.00    -0.356 OA
HETATM   90  H   UNK     0      14.467  40.925   9.929  0.00  0.00     0.218 HD
ENDBRANCH  15  89
ENDBRANCH   9  10
ENDBRANCH   7   9
ENDBRANCH   1   7
BRANCH   4  91
HETATM   91  O   UNK     0      22.347  43.702  13.198  0.00  0.00    -0.358 OA
HETATM   92  H   UNK     0      22.849  43.092  12.566  0.00  0.00     0.217 HD
ENDBRANCH   4  91
BRANCH   5  93
HETATM   93  O   UNK     0      18.484  46.295  14.175  0.00  0.00    -0.358 OA
HETATM   94  H   UNK     0      18.296  46.147  15.159  0.00  0.00     0.217 HD
ENDBRANCH   5  93
BRANCH   6  95
HETATM   95  O   UNK     0      21.111  45.668  14.659  0.00  0.00    -0.356 OA
HETATM   96  H   UNK     0      20.783  45.651  15.616  0.00  0.00     0.218 HD
ENDBRANCH   6  95
TORSDOF 30
ENDMDL
MODEL 5
REMARK VINA RESULT:      -8.6      2.790     10.588
REMARK  30 active torsions:
REMARK  status: ('A' for Active; 'I' for Inactive)
REMARK    1  A    between atoms: C_1  and  C_7 
REMARK    2  A    between atoms: C_4  and  O_9 
REMARK    3  A    between atoms: C_5  and  O_11 
REMARK    4  A    between atoms: C_6  and  O_10 
REMARK    5  A    between atoms: C_7  and  O_78 
REMARK    6  A    between atoms: C_12  and  C_18 
REMARK    7  A    between atoms: C_15  and  O_76 
REMARK    8  A    between atoms: C_16  and  O_78 
REMARK    9  A    between atoms: C_17  and  O_77 
REMARK   10  A    between atoms: C_18  and  O_74 
REMARK   11  A    between atoms: C_19  and  O_27 
REMARK   12  A    between atoms: C_21  and  O_25 
REMARK   13  A    between atoms: C_23  and  O_26 
REMARK   14  A    between atoms: C_28  and  O_37 
REMARK   15  A    between atoms: C_30  and  O_35 
REMARK   16  A    between atoms: C_32  and  O_36 
REMARK   17  A    between atoms: O_36  and  C_67 
REMARK   18  A    between atoms: C_39  and  O_60 
REMARK   19  A    between atoms: C_41  and  O_58 
REMARK   20  A    between atoms: C_42  and  C_45 
REMARK   21  A    between atoms: C_43  and  O_59 
REMARK   22  A    between atoms: C_45  and  O_53 
REMARK   23  A    between atoms: C_47  and  O_53 
REMARK   24  A    between atoms: C_51  and  C_54 
REMARK   25  A    between atoms: C_54  and  O_74 
REMARK   26  A    between atoms: C_64  and  O_69 
REMARK   27  A    between atoms: C_65  and  C_72 
REMARK   28  A    between atoms: C_66  and  O_70 
REMARK   29  A    between atoms: C_68  and  O_71 
REMARK   30  A    between atoms: C_72  and  O_73 
ROOT
HETATM    1  C   UNK     0      20.102  30.698  23.358  0.00  0.00     0.045 A 
HETATM    2  C   UNK     0      21.379  30.176  23.505  0.00  0.00     0.057 A 
HETATM    3  C   UNK     0      19.186  30.064  22.535  0.00  0.00     0.057 A 
HETATM    4  C   UNK     0      21.738  29.021  22.829  0.00  0.00     0.102 A 
HETATM    5  C   UNK     0      19.546  28.910  21.858  0.00  0.00     0.102 A 
HETATM    6  C   UNK     0      20.821  28.389  22.005  0.00  0.00     0.132 A 
ENDROOT
BRANCH   1   7
HETATM    7  C   UNK     0      19.722  31.919  24.077  0.00  0.00     0.298 C 
HETATM    8  O   UNK     0      19.592  31.894  25.279  0.00  0.00    -0.259 OA
BRANCH   7   9
HETATM    9  O   UNK     0      19.512  33.084  23.397  0.00  0.00    -0.272 OA
BRANCH   9  10
HETATM   10  C   UNK     0      20.289  34.183  23.626  0.00  0.00     0.116 A 
HETATM   11  C   UNK     0      21.602  34.204  23.177  0.00  0.00     0.058 A 
HETATM   12  C   UNK     0      22.399  35.317  23.400  0.00  0.00     0.045 A 
HETATM   13  C   UNK     0      21.878  36.412  24.076  0.00  0.00     0.057 A 
HETATM   14  C   UNK     0      20.568  36.392  24.530  0.00  0.00     0.102 A 
HETATM   15  C   UNK     0      19.774  35.279  24.304  0.00  0.00     0.133 A 
BRANCH  12  16
HETATM   16  C   UNK     0      23.794  35.342  22.924  0.00  0.00     0.293 C 
HETATM   17  O   UNK     0      24.674  34.890  23.622  0.00  0.00    -0.259 OA
BRANCH  16  18
HETATM   18  O   UNK     0      24.101  35.887  21.715  0.00  0.00    -0.315 OA
BRANCH  18  19
HETATM   19  C   UNK     0      24.806  37.119  21.681  0.00  0.00     0.213 C 
BRANCH  19  20
HETATM   20  C   UNK     0      23.992  38.321  21.169  0.00  0.00     0.181 C 
HETATM   21  O   UNK     0      24.829  39.090  20.267  0.00  0.00    -0.348 OA
HETATM   22  C   UNK     0      24.237  39.791  19.169  0.00  0.00     0.302 C 
HETATM   23  C   UNK     0      23.397  38.789  18.406  0.00  0.00     0.219 C 
HETATM   24  C   UNK     0      22.270  38.473  19.285  0.00  0.00     0.185 C 
HETATM   25  O   UNK     0      22.855  39.278  17.187  0.00  0.00    -0.304 OA
HETATM   26  C   UNK     0      22.703  37.729  20.507  0.00  0.00     0.194 C 
HETATM   27  O   UNK     0      21.347  37.666  18.572  0.00  0.00    -0.388 OA
HETATM   28  O   UNK     0      21.592  37.801  21.396  0.00  0.00    -0.307 OA
HETATM   29  C   UNK     0      20.325  37.627  20.876  0.00  0.00     0.291 C 
HETATM   30  C   UNK     0      20.102  36.620  19.801  0.00  0.00     0.039 A 
HETATM   31  O   UNK     0      19.394  38.259  21.318  0.00  0.00    -0.260 OA
HETATM   32  C   UNK     0      19.760  36.911  18.465  0.00  0.00     0.086 A 
HETATM   33  C   UNK     0      20.250  35.297  20.191  0.00  0.00     0.054 A 
HETATM   34  C   UNK     0      19.580  35.855  17.580  0.00  0.00     0.096 A 
HETATM   35  C   UNK     0      19.497  38.281  17.882  0.00  0.00     0.013 A 
HETATM   36  H   UNK     0      20.403  37.995  18.417  0.00  0.00     0.229 HD
HETATM   37  C   UNK     0      19.733  34.541  17.986  0.00  0.00     0.129 A 
HETATM   38  C   UNK     0      20.068  34.260  19.296  0.00  0.00     0.102 A 
HETATM   39  C   UNK     0      18.236  38.809  18.133  0.00  0.00     0.110 A 
HETATM   40  C   UNK     0      20.382  39.008  17.061  0.00  0.00     0.052 A 
HETATM   41  C   UNK     0      17.842  40.020  17.587  0.00  0.00     0.133 A 
HETATM   42  C   UNK     0      18.704  40.724  16.768  0.00  0.00     0.113 A 
HETATM   43  C   UNK     0      19.967  40.214  16.520  0.00  0.00     0.058 A 
HETATM   44  C   UNK     0      21.764  38.582  16.700  0.00  0.00     0.294 C 
HETATM   45  O   UNK     0      21.928  37.630  15.971  0.00  0.00    -0.259 OA
BRANCH  22  46
HETATM   46  O   UNK     0      25.249  40.368  18.347  0.00  0.00    -0.283 OA
BRANCH  46  47
HETATM   47  C   UNK     0      25.176  41.702  18.051  0.00  0.00     0.295 C 
HETATM   48  O   UNK     0      26.008  42.188  17.320  0.00  0.00    -0.259 OA
BRANCH  47  49
HETATM   49  C   UNK     0      24.113  42.577  18.611  0.00  0.00     0.045 A 
HETATM   50  C   UNK     0      23.188  43.204  17.788  0.00  0.00     0.057 A 
HETATM   51  C   UNK     0      22.206  44.018  18.336  0.00  0.00     0.102 A 
HETATM   52  C   UNK     0      22.146  44.211  19.708  0.00  0.00     0.132 A 
HETATM   53  C   UNK     0      23.067  43.585  20.533  0.00  0.00     0.102 A 
HETATM   54  C   UNK     0      24.046  42.770  19.984  0.00  0.00     0.057 A 
BRANCH  51  55
HETATM   55  O   UNK     0      21.302  44.634  17.529  0.00  0.00    -0.358 OA
HETATM   56  H   UNK     0      20.351  44.772  17.848  0.00  0.00     0.217 HD
ENDBRANCH  51  55
BRANCH  52  57
HETATM   57  O   UNK     0      21.184  45.009  20.247  0.00  0.00    -0.356 OA
HETATM   58  H   UNK     0      20.738  44.748  21.117  0.00  0.00     0.218 HD
ENDBRANCH  52  57
BRANCH  53  59
HETATM   59  O   UNK     0      23.012  43.776  21.880  0.00  0.00    -0.358 OA
HETATM   60  H   UNK     0      22.485  44.552  22.260  0.00  0.00     0.217 HD
ENDBRANCH  53  59
ENDBRANCH  47  49
ENDBRANCH  46  47
ENDBRANCH  22  46
BRANCH  34  61
HETATM   61  O   UNK     0      19.232  36.119  16.290  0.00  0.00    -0.361 OA
HETATM   62  H   UNK     0      18.381  36.630  16.090  0.00  0.00     0.217 HD
ENDBRANCH  34  61
BRANCH  37  63
HETATM   63  O   UNK     0      19.547  33.528  17.100  0.00  0.00    -0.356 OA
HETATM   64  H   UNK     0      20.058  33.520  16.227  0.00  0.00     0.218 HD
ENDBRANCH  37  63
BRANCH  38  65
HETATM   65  O   UNK     0      20.211  32.969  19.702  0.00  0.00    -0.358 OA
HETATM   66  H   UNK     0      19.406  32.448  20.027  0.00  0.00     0.217 HD
ENDBRANCH  38  65
BRANCH  39  67
HETATM   67  O   UNK     0      17.363  38.119  18.916  0.00  0.00    -0.357 OA
HETATM   68  H   UNK     0      17.370  37.107  18.912  0.00  0.00     0.217 HD
ENDBRANCH  39  67
BRANCH  41  69
HETATM   69  O   UNK     0      16.600  40.508  17.848  0.00  0.00    -0.356 OA
HETATM   70  H   UNK     0      16.463  41.504  17.969  0.00  0.00     0.218 HD
ENDBRANCH  41  69
BRANCH  42  71
HETATM   71  O   UNK     0      18.308  41.908  16.210  0.00  0.00    -0.304 OA
BRANCH  71  72
HETATM   72  C   UNK     0      18.441  42.169  14.872  0.00  0.00     0.120 A 
HETATM   73  C   UNK     0      17.504  41.673  13.979  0.00  0.00     0.005 A 
HETATM   74  C   UNK     0      17.629  41.935  12.625  0.00  0.00     0.051 A 
HETATM   75  C   UNK     0      18.692  42.691  12.158  0.00  0.00     0.102 A 
HETATM   76  C   UNK     0      19.631  43.188  13.049  0.00  0.00     0.135 A 
HETATM   77  C   UNK     0      19.506  42.928  14.405  0.00  0.00     0.136 A 
BRANCH  73  78
HETATM   78  C   UNK     0      16.345  40.850  14.482  0.00  0.00     0.205 C 
BRANCH  78  79
HETATM   79  O   UNK     0      15.561  41.634  15.368  0.00  0.00    -0.396 OA
HETATM   80  H   UNK     0      14.587  41.812  15.158  0.00  0.00     0.209 HD
ENDBRANCH  78  79
ENDBRANCH  73  78
BRANCH  75  81
HETATM   81  O   UNK     0      18.813  42.944  10.827  0.00  0.00    -0.358 OA
HETATM   82  H   UNK     0      18.790  42.180  10.163  0.00  0.00     0.217 HD
ENDBRANCH  75  81
BRANCH  76  83
HETATM   83  O   UNK     0      20.676  43.929  12.594  0.00  0.00    -0.356 OA
HETATM   84  H   UNK     0      21.572  43.491  12.429  0.00  0.00     0.218 HD
ENDBRANCH  76  83
BRANCH  77  85
HETATM   85  O   UNK     0      20.432  43.419  15.275  0.00  0.00    -0.356 OA
HETATM   86  H   UNK     0      20.698  44.394  15.233  0.00  0.00     0.218 HD
ENDBRANCH  77  85
ENDBRANCH  71  72
ENDBRANCH  42  71
ENDBRANCH  19  20
ENDBRANCH  18  19
ENDBRANCH  16  18
ENDBRANCH  12  16
BRANCH  14  87
HETATM   87  O   UNK     0      20.060  37.463  25.197  0.00  0.00    -0.358 OA
HETATM   88  H   UNK     0      19.478  37.322  26.013  0.00  0.00     0.217 HD
ENDBRANCH  14  87
BRANCH  15  89
HETATM   89  O   UNK     0      18.488  35.257  24.747  0.00  0.00    -0.356 OA
HETATM   90  H   UNK     0      18.295  35.250  25.741  0.00  0.00     0.218 HD
ENDBRANCH  15  89
ENDBRANCH   9  10
ENDBRANCH   7   9
ENDBRANCH   1   7
BRANCH   4  91
HETATM   91  O   UNK     0      22.989  28.508  22.971  0.00  0.00    -0.358 OA
HETATM   92  H   UNK     0      23.721  29.068  23.389  0.00  0.00     0.217 HD
ENDBRANCH   4  91
BRANCH   5  93
HETATM   93  O   UNK     0      18.648  28.289  21.045  0.00  0.00    -0.358 OA
HETATM   94  H   UNK     0      18.313  27.362  21.275  0.00  0.00     0.217 HD
ENDBRANCH   5  93
BRANCH   6  95
HETATM   95  O   UNK     0      21.173  27.256  21.340  0.00  0.00    -0.356 OA
HETATM   96  H   UNK     0      21.520  27.314  20.391  0.00  0.00     0.218 HD
ENDBRANCH   6  95
TORSDOF 30
ENDMDL
MODEL 6
REMARK VINA RESULT:      -8.4      5.813     12.136
REMARK  30 active torsions:
REMARK  status: ('A' for Active; 'I' for Inactive)
REMARK    1  A    between atoms: C_1  and  C_7 
REMARK    2  A    between atoms: C_4  and  O_9 
REMARK    3  A    between atoms: C_5  and  O_11 
REMARK    4  A    between atoms: C_6  and  O_10 
REMARK    5  A    between atoms: C_7  and  O_78 
REMARK    6  A    between atoms: C_12  and  C_18 
REMARK    7  A    between atoms: C_15  and  O_76 
REMARK    8  A    between atoms: C_16  and  O_78 
REMARK    9  A    between atoms: C_17  and  O_77 
REMARK   10  A    between atoms: C_18  and  O_74 
REMARK   11  A    between atoms: C_19  and  O_27 
REMARK   12  A    between atoms: C_21  and  O_25 
REMARK   13  A    between atoms: C_23  and  O_26 
REMARK   14  A    between atoms: C_28  and  O_37 
REMARK   15  A    between atoms: C_30  and  O_35 
REMARK   16  A    between atoms: C_32  and  O_36 
REMARK   17  A    between atoms: O_36  and  C_67 
REMARK   18  A    between atoms: C_39  and  O_60 
REMARK   19  A    between atoms: C_41  and  O_58 
REMARK   20  A    between atoms: C_42  and  C_45 
REMARK   21  A    between atoms: C_43  and  O_59 
REMARK   22  A    between atoms: C_45  and  O_53 
REMARK   23  A    between atoms: C_47  and  O_53 
REMARK   24  A    between atoms: C_51  and  C_54 
REMARK   25  A    between atoms: C_54  and  O_74 
REMARK   26  A    between atoms: C_64  and  O_69 
REMARK   27  A    between atoms: C_65  and  C_72 
REMARK   28  A    between atoms: C_66  and  O_70 
REMARK   29  A    between atoms: C_68  and  O_71 
REMARK   30  A    between atoms: C_72  and  O_73 
ROOT
HETATM    1  C   UNK     0      22.445  35.449  23.537  0.00  0.00     0.045 A 
HETATM    2  C   UNK     0      23.684  36.033  23.760  0.00  0.00     0.057 A 
HETATM    3  C   UNK     0      22.364  34.220  22.903  0.00  0.00     0.057 A 
HETATM    4  C   UNK     0      24.838  35.387  23.348  0.00  0.00     0.102 A 
HETATM    5  C   UNK     0      23.519  33.575  22.492  0.00  0.00     0.102 A 
HETATM    6  C   UNK     0      24.755  34.159  22.714  0.00  0.00     0.132 A 
ENDROOT
BRANCH   1   7
HETATM    7  C   UNK     0      21.223  36.131  23.975  0.00  0.00     0.298 C 
HETATM    8  O   UNK     0      20.447  35.564  24.711  0.00  0.00    -0.259 OA
BRANCH   7   9
HETATM    9  O   UNK     0      20.954  37.403  23.559  0.00  0.00    -0.272 OA
BRANCH   9  10
HETATM   10  C   UNK     0      20.948  37.723  22.231  0.00  0.00     0.116 A 
HETATM   11  C   UNK     0      19.994  37.164  21.392  0.00  0.00     0.058 A 
HETATM   12  C   UNK     0      19.975  37.486  20.044  0.00  0.00     0.045 A 
HETATM   13  C   UNK     0      20.915  38.370  19.534  0.00  0.00     0.057 A 
HETATM   14  C   UNK     0      21.873  38.927  20.369  0.00  0.00     0.102 A 
HETATM   15  C   UNK     0      21.888  38.604  21.716  0.00  0.00     0.133 A 
BRANCH  12  16
HETATM   16  C   UNK     0      18.962  36.894  19.151  0.00  0.00     0.293 C 
HETATM   17  O   UNK     0      17.909  37.464  18.978  0.00  0.00    -0.259 OA
BRANCH  16  18
HETATM   18  O   UNK     0      19.196  35.702  18.536  0.00  0.00    -0.315 OA
BRANCH  18  19
HETATM   19  C   UNK     0      19.877  34.685  19.255  0.00  0.00     0.213 C 
BRANCH  19  20
HETATM   20  C   UNK     0      19.987  33.333  18.527  0.00  0.00     0.181 C 
HETATM   21  O   UNK     0      21.051  33.428  17.545  0.00  0.00    -0.348 OA
HETATM   22  C   UNK     0      21.827  32.269  17.221  0.00  0.00     0.302 C 
HETATM   23  C   UNK     0      22.344  31.704  18.526  0.00  0.00     0.219 C 
HETATM   24  C   UNK     0      21.166  31.173  19.216  0.00  0.00     0.185 C 
HETATM   25  O   UNK     0      23.266  30.633  18.383  0.00  0.00    -0.304 OA
HETATM   26  C   UNK     0      20.226  32.255  19.636  0.00  0.00     0.194 C 
HETATM   27  O   UNK     0      21.593  30.474  20.374  0.00  0.00    -0.388 OA
HETATM   28  O   UNK     0      19.013  31.583  19.965  0.00  0.00    -0.307 OA
HETATM   29  C   UNK     0      19.090  30.402  20.675  0.00  0.00     0.291 C 
HETATM   30  C   UNK     0      20.108  30.256  21.753  0.00  0.00     0.039 A 
HETATM   31  O   UNK     0      18.313  29.504  20.450  0.00  0.00    -0.260 OA
HETATM   32  C   UNK     0      21.223  29.396  21.717  0.00  0.00     0.086 A 
HETATM   33  C   UNK     0      19.899  31.050  22.872  0.00  0.00     0.054 A 
HETATM   34  C   UNK     0      22.081  29.372  22.810  0.00  0.00     0.096 A 
HETATM   35  C   UNK     0      21.570  28.420  20.615  0.00  0.00     0.013 A 
HETATM   36  H   UNK     0      21.395  29.487  20.470  0.00  0.00     0.229 HD
HETATM   37  C   UNK     0      21.858  30.171  23.918  0.00  0.00     0.129 A 
HETATM   38  C   UNK     0      20.764  31.013  23.950  0.00  0.00     0.102 A 
HETATM   39  C   UNK     0      20.869  27.220  20.632  0.00  0.00     0.110 A 
HETATM   40  C   UNK     0      22.578  28.599  19.647  0.00  0.00     0.052 A 
HETATM   41  C   UNK     0      21.151  26.210  19.727  0.00  0.00     0.133 A 
HETATM   42  C   UNK     0      22.151  26.380  18.788  0.00  0.00     0.113 A 
HETATM   43  C   UNK     0      22.848  27.576  18.753  0.00  0.00     0.058 A 
HETATM   44  C   UNK     0      23.414  29.824  19.494  0.00  0.00     0.294 C 
HETATM   45  O   UNK     0      24.231  30.102  20.342  0.00  0.00    -0.259 OA
BRANCH  22  46
HETATM   46  O   UNK     0      22.890  32.617  16.337  0.00  0.00    -0.283 OA
BRANCH  46  47
HETATM   47  C   UNK     0      23.345  33.908  16.331  0.00  0.00     0.295 C 
HETATM   48  O   UNK     0      23.037  34.636  15.416  0.00  0.00    -0.259 OA
BRANCH  47  49
HETATM   49  C   UNK     0      24.220  34.440  17.409  0.00  0.00     0.045 A 
HETATM   50  C   UNK     0      24.059  35.731  17.895  0.00  0.00     0.057 A 
HETATM   51  C   UNK     0      24.891  36.205  18.901  0.00  0.00     0.102 A 
HETATM   52  C   UNK     0      25.887  35.393  19.422  0.00  0.00     0.132 A 
HETATM   53  C   UNK     0      26.049  34.104  18.941  0.00  0.00     0.102 A 
HETATM   54  C   UNK     0      25.215  33.631  17.937  0.00  0.00     0.057 A 
BRANCH  51  55
HETATM   55  O   UNK     0      24.735  37.469  19.375  0.00  0.00    -0.358 OA
HETATM   56  H   UNK     0      24.502  37.619  20.349  0.00  0.00     0.217 HD
ENDBRANCH  51  55
BRANCH  52  57
HETATM   57  O   UNK     0      26.703  35.857  20.409  0.00  0.00    -0.356 OA
HETATM   58  H   UNK     0      26.473  35.686  21.379  0.00  0.00     0.218 HD
ENDBRANCH  52  57
BRANCH  53  59
HETATM   59  O   UNK     0      27.029  33.307  19.450  0.00  0.00    -0.358 OA
HETATM   60  H   UNK     0      27.934  33.267  18.998  0.00  0.00     0.217 HD
ENDBRANCH  53  59
ENDBRANCH  47  49
ENDBRANCH  46  47
ENDBRANCH  22  46
BRANCH  34  61
HETATM   61  O   UNK     0      23.153  28.533  22.797  0.00  0.00    -0.361 OA
HETATM   62  H   UNK     0      23.013  27.532  22.862  0.00  0.00     0.217 HD
ENDBRANCH  34  61
BRANCH  37  63
HETATM   63  O   UNK     0      22.710  30.124  24.974  0.00  0.00    -0.356 OA
HETATM   64  H   UNK     0      22.345  30.038  25.914  0.00  0.00     0.218 HD
ENDBRANCH  37  63
BRANCH  38  65
HETATM   65  O   UNK     0      20.536  31.795  25.040  0.00  0.00    -0.358 OA
HETATM   66  H   UNK     0      20.373  32.787  24.926  0.00  0.00     0.217 HD
ENDBRANCH  38  65
BRANCH  39  67
HETATM   67  O   UNK     0      19.898  27.023  21.565  0.00  0.00    -0.357 OA
HETATM   68  H   UNK     0      20.148  26.733  22.502  0.00  0.00     0.217 HD
ENDBRANCH  39  67
BRANCH  41  69
HETATM   69  O   UNK     0      20.450  25.046  19.771  0.00  0.00    -0.356 OA
HETATM   70  H   UNK     0      20.058  24.724  20.647  0.00  0.00     0.218 HD
ENDBRANCH  41  69
BRANCH  42  71
HETATM   71  O   UNK     0      22.445  25.375  17.908  0.00  0.00    -0.304 OA
BRANCH  71  72
HETATM   72  C   UNK     0      22.188  25.474  16.567  0.00  0.00     0.120 A 
HETATM   73  C   UNK     0      23.228  25.722  15.685  0.00  0.00     0.005 A 
HETATM   74  C   UNK     0      22.976  25.822  14.327  0.00  0.00     0.051 A 
HETATM   75  C   UNK     0      21.684  25.676  13.845  0.00  0.00     0.102 A 
HETATM   76  C   UNK     0      20.643  25.429  14.727  0.00  0.00     0.135 A 
HETATM   77  C   UNK     0      20.893  25.327  16.086  0.00  0.00     0.136 A 
BRANCH  73  78
HETATM   78  C   UNK     0      24.634  25.881  16.203  0.00  0.00     0.205 C 
BRANCH  78  79
HETATM   79  O   UNK     0      25.040  24.679  16.838  0.00  0.00    -0.396 OA
HETATM   80  H   UNK     0      25.383  23.905  16.285  0.00  0.00     0.209 HD
ENDBRANCH  78  79
ENDBRANCH  73  78
BRANCH  75  81
HETATM   81  O   UNK     0      21.441  25.776  12.511  0.00  0.00    -0.358 OA
HETATM   82  H   UNK     0      21.309  24.940  11.956  0.00  0.00     0.217 HD
ENDBRANCH  75  81
BRANCH  76  83
HETATM   83  O   UNK     0      19.374  25.286  14.258  0.00  0.00    -0.356 OA
HETATM   84  H   UNK     0      19.212  24.818  13.376  0.00  0.00     0.218 HD
ENDBRANCH  76  83
BRANCH  77  85
HETATM   85  O   UNK     0      19.866  25.084  16.946  0.00  0.00    -0.356 OA
HETATM   86  H   UNK     0      19.813  24.200  17.435  0.00  0.00     0.218 HD
ENDBRANCH  77  85
ENDBRANCH  71  72
ENDBRANCH  42  71
ENDBRANCH  19  20
ENDBRANCH  18  19
ENDBRANCH  16  18
ENDBRANCH  12  16
BRANCH  14  87
HETATM   87  O   UNK     0      22.798  39.789  19.867  0.00  0.00    -0.358 OA
HETATM   88  H   UNK     0      23.706  39.868  20.307  0.00  0.00     0.217 HD
ENDBRANCH  14  87
BRANCH  15  89
HETATM   89  O   UNK     0      22.826  39.150  22.537  0.00  0.00    -0.356 OA
HETATM   90  H   UNK     0      23.604  38.589  22.860  0.00  0.00     0.218 HD
ENDBRANCH  15  89
ENDBRANCH   9  10
ENDBRANCH   7   9
ENDBRANCH   1   7
BRANCH   4  91
HETATM   91  O   UNK     0      26.053  35.958  23.565  0.00  0.00    -0.358 OA
HETATM   92  H   UNK     0      26.279  36.847  23.136  0.00  0.00     0.217 HD
ENDBRANCH   4  91
BRANCH   5  93
HETATM   93  O   UNK     0      23.440  32.370  21.864  0.00  0.00    -0.358 OA
HETATM   94  H   UNK     0      22.553  32.050  21.493  0.00  0.00     0.217 HD
ENDBRANCH   5  93
BRANCH   6  95
HETATM   95  O   UNK     0      25.889  33.526  22.308  0.00  0.00    -0.356 OA
HETATM   96  H   UNK     0      26.320  32.830  22.903  0.00  0.00     0.218 HD
ENDBRANCH   6  95
TORSDOF 30
ENDMDL
MODEL 7
REMARK VINA RESULT:      -8.4      4.193      8.247
REMARK  30 active torsions:
REMARK  status: ('A' for Active; 'I' for Inactive)
REMARK    1  A    between atoms: C_1  and  C_7 
REMARK    2  A    between atoms: C_4  and  O_9 
REMARK    3  A    between atoms: C_5  and  O_11 
REMARK    4  A    between atoms: C_6  and  O_10 
REMARK    5  A    between atoms: C_7  and  O_78 
REMARK    6  A    between atoms: C_12  and  C_18 
REMARK    7  A    between atoms: C_15  and  O_76 
REMARK    8  A    between atoms: C_16  and  O_78 
REMARK    9  A    between atoms: C_17  and  O_77 
REMARK   10  A    between atoms: C_18  and  O_74 
REMARK   11  A    between atoms: C_19  and  O_27 
REMARK   12  A    between atoms: C_21  and  O_25 
REMARK   13  A    between atoms: C_23  and  O_26 
REMARK   14  A    between atoms: C_28  and  O_37 
REMARK   15  A    between atoms: C_30  and  O_35 
REMARK   16  A    between atoms: C_32  and  O_36 
REMARK   17  A    between atoms: O_36  and  C_67 
REMARK   18  A    between atoms: C_39  and  O_60 
REMARK   19  A    between atoms: C_41  and  O_58 
REMARK   20  A    between atoms: C_42  and  C_45 
REMARK   21  A    between atoms: C_43  and  O_59 
REMARK   22  A    between atoms: C_45  and  O_53 
REMARK   23  A    between atoms: C_47  and  O_53 
REMARK   24  A    between atoms: C_51  and  C_54 
REMARK   25  A    between atoms: C_54  and  O_74 
REMARK   26  A    between atoms: C_64  and  O_69 
REMARK   27  A    between atoms: C_65  and  C_72 
REMARK   28  A    between atoms: C_66  and  O_70 
REMARK   29  A    between atoms: C_68  and  O_71 
REMARK   30  A    between atoms: C_72  and  O_73 
ROOT
HETATM    1  C   UNK     0      25.283  43.990  16.881  0.00  0.00     0.045 A 
HETATM    2  C   UNK     0      26.027  45.041  16.366  0.00  0.00     0.057 A 
HETATM    3  C   UNK     0      25.288  42.760  16.243  0.00  0.00     0.057 A 
HETATM    4  C   UNK     0      26.775  44.861  15.214  0.00  0.00     0.102 A 
HETATM    5  C   UNK     0      26.036  42.581  15.091  0.00  0.00     0.102 A 
HETATM    6  C   UNK     0      26.779  43.630  14.576  0.00  0.00     0.132 A 
ENDROOT
BRANCH   1   7
HETATM    7  C   UNK     0      24.493  44.180  18.102  0.00  0.00     0.298 C 
HETATM    8  O   UNK     0      24.314  45.295  18.536  0.00  0.00    -0.259 OA
BRANCH   7   9
HETATM    9  O   UNK     0      23.957  43.107  18.753  0.00  0.00    -0.272 OA
BRANCH   9  10
HETATM   10  C   UNK     0      22.608  42.995  18.937  0.00  0.00     0.116 A 
HETATM   11  C   UNK     0      21.848  42.263  18.037  0.00  0.00     0.058 A 
HETATM   12  C   UNK     0      20.478  42.140  18.217  0.00  0.00     0.045 A 
HETATM   13  C   UNK     0      19.869  42.753  19.303  0.00  0.00     0.057 A 
HETATM   14  C   UNK     0      20.626  43.490  20.203  0.00  0.00     0.102 A 
HETATM   15  C   UNK     0      21.995  43.610  20.020  0.00  0.00     0.133 A 
BRANCH  12  16
HETATM   16  C   UNK     0      19.668  41.362  17.262  0.00  0.00     0.293 C 
HETATM   17  O   UNK     0      19.954  41.372  16.086  0.00  0.00    -0.259 OA
BRANCH  16  18
HETATM   18  O   UNK     0      18.590  40.649  17.691  0.00  0.00    -0.315 OA
BRANCH  18  19
HETATM   19  C   UNK     0      18.270  39.434  17.031  0.00  0.00     0.213 C 
BRANCH  19  20
HETATM   20  C   UNK     0      17.907  38.263  17.962  0.00  0.00     0.181 C 
HETATM   21  O   UNK     0      17.594  37.107  17.143  0.00  0.00    -0.348 OA
HETATM   22  C   UNK     0      17.881  35.791  17.627  0.00  0.00     0.302 C 
HETATM   23  C   UNK     0      19.337  35.781  18.043  0.00  0.00     0.219 C 
HETATM   24  C   UNK     0      19.410  36.631  19.233  0.00  0.00     0.185 C 
HETATM   25  O   UNK     0      19.839  34.503  18.408  0.00  0.00    -0.304 OA
HETATM   26  C   UNK     0      19.132  38.065  18.916  0.00  0.00     0.194 C 
HETATM   27  O   UNK     0      20.714  36.537  19.782  0.00  0.00    -0.388 OA
HETATM   28  O   UNK     0      18.901  38.683  20.179  0.00  0.00    -0.307 OA
HETATM   29  C   UNK     0      19.720  38.340  21.237  0.00  0.00     0.291 C 
HETATM   30  C   UNK     0      21.171  38.108  20.998  0.00  0.00     0.039 A 
HETATM   31  O   UNK     0      19.270  38.267  22.356  0.00  0.00    -0.260 OA
HETATM   32  C   UNK     0      21.830  36.867  21.103  0.00  0.00     0.086 A 
HETATM   33  C   UNK     0      21.900  39.235  20.647  0.00  0.00     0.054 A 
HETATM   34  C   UNK     0      23.196  36.815  20.852  0.00  0.00     0.096 A 
HETATM   35  C   UNK     0      21.214  35.554  21.532  0.00  0.00     0.013 A 
HETATM   36  H   UNK     0      20.843  36.181  20.720  0.00  0.00     0.229 HD
HETATM   37  C   UNK     0      23.907  37.950  20.504  0.00  0.00     0.129 A 
HETATM   38  C   UNK     0      23.258  39.165  20.401  0.00  0.00     0.102 A 
HETATM   39  C   UNK     0      21.053  35.385  22.902  0.00  0.00     0.110 A 
HETATM   40  C   UNK     0      20.870  34.490  20.675  0.00  0.00     0.052 A 
HETATM   41  C   UNK     0      20.575  34.195  23.428  0.00  0.00     0.133 A 
HETATM   42  C   UNK     0      20.255  33.145  22.588  0.00  0.00     0.113 A 
HETATM   43  C   UNK     0      20.399  33.307  21.221  0.00  0.00     0.058 A 
HETATM   44  C   UNK     0      20.979  34.514  19.189  0.00  0.00     0.294 C 
HETATM   45  O   UNK     0      22.071  34.533  18.668  0.00  0.00    -0.259 OA
BRANCH  22  46
HETATM   46  O   UNK     0      17.614  34.823  16.616  0.00  0.00    -0.283 OA
BRANCH  46  47
HETATM   47  C   UNK     0      16.318  34.618  16.228  0.00  0.00     0.295 C 
HETATM   48  O   UNK     0      16.040  34.673  15.052  0.00  0.00    -0.259 OA
BRANCH  47  49
HETATM   49  C   UNK     0      15.235  34.341  17.208  0.00  0.00     0.045 A 
HETATM   50  C   UNK     0      15.214  33.165  17.946  0.00  0.00     0.057 A 
HETATM   51  C   UNK     0      14.189  32.930  18.854  0.00  0.00     0.102 A 
HETATM   52  C   UNK     0      13.183  33.868  19.026  0.00  0.00     0.132 A 
HETATM   53  C   UNK     0      13.201  35.043  18.293  0.00  0.00     0.102 A 
HETATM   54  C   UNK     0      14.227  35.278  17.388  0.00  0.00     0.057 A 
BRANCH  51  55
HETATM   55  O   UNK     0      14.168  31.778  19.574  0.00  0.00    -0.358 OA
HETATM   56  H   UNK     0      13.948  31.803  20.562  0.00  0.00     0.217 HD
ENDBRANCH  51  55
BRANCH  52  57
HETATM   57  O   UNK     0      12.178  33.639  19.916  0.00  0.00    -0.356 OA
HETATM   58  H   UNK     0      11.320  33.197  19.610  0.00  0.00     0.218 HD
ENDBRANCH  52  57
BRANCH  53  59
HETATM   59  O   UNK     0      12.211  35.963  18.459  0.00  0.00    -0.358 OA
HETATM   60  H   UNK     0      11.834  36.450  17.656  0.00  0.00     0.217 HD
ENDBRANCH  53  59
ENDBRANCH  47  49
ENDBRANCH  46  47
ENDBRANCH  22  46
BRANCH  34  61
HETATM   61  O   UNK     0      23.850  35.627  20.968  0.00  0.00    -0.361 OA
HETATM   62  H   UNK     0      23.981  35.040  20.153  0.00  0.00     0.217 HD
ENDBRANCH  34  61
BRANCH  37  63
HETATM   63  O   UNK     0      25.243  37.872  20.269  0.00  0.00    -0.356 OA
HETATM   64  H   UNK     0      25.656  36.992  19.989  0.00  0.00     0.218 HD
ENDBRANCH  37  63
BRANCH  38  65
HETATM   65  O   UNK     0      23.955  40.285  20.067  0.00  0.00    -0.358 OA
HETATM   66  H   UNK     0      24.276  40.416  19.116  0.00  0.00     0.217 HD
ENDBRANCH  38  65
BRANCH  39  67
HETATM   67  O   UNK     0      21.387  36.397  23.747  0.00  0.00    -0.357 OA
HETATM   68  H   UNK     0      21.972  36.212  24.552  0.00  0.00     0.217 HD
ENDBRANCH  39  67
BRANCH  41  69
HETATM   69  O   UNK     0      20.433  34.059  24.773  0.00  0.00    -0.356 OA
HETATM   70  H   UNK     0      20.570  33.155  25.208  0.00  0.00     0.218 HD
ENDBRANCH  41  69
BRANCH  42  71
HETATM   71  O   UNK     0      19.804  31.963  23.108  0.00  0.00    -0.304 OA
BRANCH  71  72
HETATM   72  C   UNK     0      20.231  30.748  22.644  0.00  0.00     0.120 A 
HETATM   73  C   UNK     0      19.440  30.035  21.756  0.00  0.00     0.005 A 
HETATM   74  C   UNK     0      19.865  28.806  21.280  0.00  0.00     0.051 A 
HETATM   75  C   UNK     0      21.081  28.283  21.691  0.00  0.00     0.102 A 
HETATM   76  C   UNK     0      21.873  28.994  22.580  0.00  0.00     0.135 A 
HETATM   77  C   UNK     0      21.451  30.225  23.056  0.00  0.00     0.136 A 
BRANCH  73  78
HETATM   78  C   UNK     0      18.117  30.600  21.305  0.00  0.00     0.205 C 
BRANCH  78  79
HETATM   79  O   UNK     0      17.212  29.536  21.056  0.00  0.00    -0.396 OA
HETATM   80  H   UNK     0      17.446  28.595  21.343  0.00  0.00     0.209 HD
ENDBRANCH  78  79
ENDBRANCH  73  78
BRANCH  75  81
HETATM   81  O   UNK     0      21.494  27.075  21.224  0.00  0.00    -0.358 OA
HETATM   82  H   UNK     0      22.464  26.800  21.319  0.00  0.00     0.217 HD
ENDBRANCH  75  81
BRANCH  76  83
HETATM   83  O   UNK     0      23.067  28.483  22.986  0.00  0.00    -0.356 OA
HETATM   84  H   UNK     0      23.783  28.271  22.304  0.00  0.00     0.218 HD
ENDBRANCH  76  83
BRANCH  77  85
HETATM   85  O   UNK     0      22.233  30.918  23.928  0.00  0.00    -0.356 OA
HETATM   86  H   UNK     0      23.189  31.142  23.682  0.00  0.00     0.218 HD
ENDBRANCH  77  85
ENDBRANCH  71  72
ENDBRANCH  42  71
ENDBRANCH  19  20
ENDBRANCH  18  19
ENDBRANCH  16  18
ENDBRANCH  12  16
BRANCH  14  87
HETATM   87  O   UNK     0      20.028  44.095  21.264  0.00  0.00    -0.358 OA
HETATM   88  H   UNK     0      19.711  45.053  21.188  0.00  0.00     0.217 HD
ENDBRANCH  14  87
BRANCH  15  89
HETATM   89  O   UNK     0      22.739  44.330  20.901  0.00  0.00    -0.356 OA
HETATM   90  H   UNK     0      23.135  43.879  21.716  0.00  0.00     0.218 HD
ENDBRANCH  15  89
ENDBRANCH   9  10
ENDBRANCH   7   9
ENDBRANCH   1   7
BRANCH   4  91
HETATM   91  O   UNK     0      27.505  45.890  14.706  0.00  0.00    -0.358 OA
HETATM   92  H   UNK     0      28.237  46.313  15.262  0.00  0.00     0.217 HD
ENDBRANCH   4  91
BRANCH   5  93
HETATM   93  O   UNK     0      26.038  41.375  14.460  0.00  0.00    -0.358 OA
HETATM   94  H   UNK     0      25.161  40.932  14.214  0.00  0.00     0.217 HD
ENDBRANCH   5  93
BRANCH   6  95
HETATM   95  O   UNK     0      27.512  43.454  13.445  0.00  0.00    -0.356 OA
HETATM   96  H   UNK     0      28.519  43.363  13.502  0.00  0.00     0.218 HD
ENDBRANCH   6  95
TORSDOF 30
ENDMDL
MODEL 8
REMARK VINA RESULT:      -8.3      4.209      7.011
REMARK  30 active torsions:
REMARK  status: ('A' for Active; 'I' for Inactive)
REMARK    1  A    between atoms: C_1  and  C_7 
REMARK    2  A    between atoms: C_4  and  O_9 
REMARK    3  A    between atoms: C_5  and  O_11 
REMARK    4  A    between atoms: C_6  and  O_10 
REMARK    5  A    between atoms: C_7  and  O_78 
REMARK    6  A    between atoms: C_12  and  C_18 
REMARK    7  A    between atoms: C_15  and  O_76 
REMARK    8  A    between atoms: C_16  and  O_78 
REMARK    9  A    between atoms: C_17  and  O_77 
REMARK   10  A    between atoms: C_18  and  O_74 
REMARK   11  A    between atoms: C_19  and  O_27 
REMARK   12  A    between atoms: C_21  and  O_25 
REMARK   13  A    between atoms: C_23  and  O_26 
REMARK   14  A    between atoms: C_28  and  O_37 
REMARK   15  A    between atoms: C_30  and  O_35 
REMARK   16  A    between atoms: C_32  and  O_36 
REMARK   17  A    between atoms: O_36  and  C_67 
REMARK   18  A    between atoms: C_39  and  O_60 
REMARK   19  A    between atoms: C_41  and  O_58 
REMARK   20  A    between atoms: C_42  and  C_45 
REMARK   21  A    between atoms: C_43  and  O_59 
REMARK   22  A    between atoms: C_45  and  O_53 
REMARK   23  A    between atoms: C_47  and  O_53 
REMARK   24  A    between atoms: C_51  and  C_54 
REMARK   25  A    between atoms: C_54  and  O_74 
REMARK   26  A    between atoms: C_64  and  O_69 
REMARK   27  A    between atoms: C_65  and  C_72 
REMARK   28  A    between atoms: C_66  and  O_70 
REMARK   29  A    between atoms: C_68  and  O_71 
REMARK   30  A    between atoms: C_72  and  O_73 
ROOT
HETATM    1  C   UNK     0      15.206  40.475  12.323  0.00  0.00     0.045 A 
HETATM    2  C   UNK     0      13.986  40.510  11.663  0.00  0.00     0.057 A 
HETATM    3  C   UNK     0      15.767  39.259  12.678  0.00  0.00     0.057 A 
HETATM    4  C   UNK     0      13.329  39.329  11.360  0.00  0.00     0.102 A 
HETATM    5  C   UNK     0      15.108  38.078  12.375  0.00  0.00     0.102 A 
HETATM    6  C   UNK     0      13.890  38.113  11.717  0.00  0.00     0.132 A 
ENDROOT
BRANCH   1   7
HETATM    7  C   UNK     0      15.904  41.726  12.641  0.00  0.00     0.298 C 
HETATM    8  O   UNK     0      15.276  42.755  12.747  0.00  0.00    -0.259 OA
BRANCH   7   9
HETATM    9  O   UNK     0      17.257  41.737  12.818  0.00  0.00    -0.272 OA
BRANCH   9  10
HETATM   10  C   UNK     0      17.822  42.369  13.889  0.00  0.00     0.116 A 
HETATM   11  C   UNK     0      17.704  41.816  15.156  0.00  0.00     0.058 A 
HETATM   12  C   UNK     0      18.278  42.447  16.249  0.00  0.00     0.045 A 
HETATM   13  C   UNK     0      18.973  43.635  16.072  0.00  0.00     0.057 A 
HETATM   14  C   UNK     0      19.088  44.193  14.807  0.00  0.00     0.102 A 
HETATM   15  C   UNK     0      18.514  43.559  13.717  0.00  0.00     0.133 A 
BRANCH  12  16
HETATM   16  C   UNK     0      18.154  41.861  17.597  0.00  0.00     0.293 C 
HETATM   17  O   UNK     0      18.632  42.439  18.548  0.00  0.00    -0.259 OA
BRANCH  16  18
HETATM   18  O   UNK     0      17.524  40.668  17.776  0.00  0.00    -0.315 OA
BRANCH  18  19
HETATM   19  C   UNK     0      18.220  39.474  17.451  0.00  0.00     0.213 C 
BRANCH  19  20
HETATM   20  C   UNK     0      17.888  38.263  18.341  0.00  0.00     0.181 C 
HETATM   21  O   UNK     0      17.539  37.146  17.483  0.00  0.00    -0.348 OA
HETATM   22  C   UNK     0      17.841  35.809  17.896  0.00  0.00     0.302 C 
HETATM   23  C   UNK     0      19.311  35.777  18.256  0.00  0.00     0.219 C 
HETATM   24  C   UNK     0      19.431  36.573  19.479  0.00  0.00     0.185 C 
HETATM   25  O   UNK     0      19.821  34.484  18.543  0.00  0.00    -0.304 OA
HETATM   26  C   UNK     0      19.147  38.020  19.238  0.00  0.00     0.194 C 
HETATM   27  O   UNK     0      20.755  36.451  19.973  0.00  0.00    -0.388 OA
HETATM   28  O   UNK     0      18.965  38.580  20.536  0.00  0.00    -0.307 OA
HETATM   29  C   UNK     0      19.823  38.189  21.545  0.00  0.00     0.291 C 
HETATM   30  C   UNK     0      21.263  37.965  21.241  0.00  0.00     0.039 A 
HETATM   31  O   UNK     0      19.415  38.066  22.676  0.00  0.00    -0.260 OA
HETATM   32  C   UNK     0      21.921  36.719  21.266  0.00  0.00     0.086 A 
HETATM   33  C   UNK     0      21.982  39.106  20.915  0.00  0.00     0.054 A 
HETATM   34  C   UNK     0      23.277  36.676  20.961  0.00  0.00     0.096 A 
HETATM   35  C   UNK     0      21.317  35.390  21.657  0.00  0.00     0.013 A 
HETATM   36  H   UNK     0      20.918  36.053  20.889  0.00  0.00     0.229 HD
HETATM   37  C   UNK     0      23.978  37.825  20.637  0.00  0.00     0.129 A 
HETATM   38  C   UNK     0      23.330  39.044  20.614  0.00  0.00     0.102 A 
HETATM   39  C   UNK     0      21.207  35.159  23.023  0.00  0.00     0.110 A 
HETATM   40  C   UNK     0      20.937  34.366  20.767  0.00  0.00     0.052 A 
HETATM   41  C   UNK     0      20.745  33.948  23.513  0.00  0.00     0.133 A 
HETATM   42  C   UNK     0      20.390  32.937  22.639  0.00  0.00     0.113 A 
HETATM   43  C   UNK     0      20.483  33.160  21.276  0.00  0.00     0.058 A 
HETATM   44  C   UNK     0      20.991  34.456  19.280  0.00  0.00     0.294 C 
HETATM   45  O   UNK     0      22.062  34.497  18.720  0.00  0.00    -0.259 OA
BRANCH  22  46
HETATM   46  O   UNK     0      17.531  34.887  16.853  0.00  0.00    -0.283 OA
BRANCH  46  47
HETATM   47  C   UNK     0      16.265  34.882  16.334  0.00  0.00     0.295 C 
HETATM   48  O   UNK     0      16.105  35.181  15.173  0.00  0.00    -0.259 OA
BRANCH  47  49
HETATM   49  C   UNK     0      15.077  34.532  17.156  0.00  0.00     0.045 A 
HETATM   50  C   UNK     0      13.931  35.315  17.135  0.00  0.00     0.057 A 
HETATM   51  C   UNK     0      12.835  34.968  17.914  0.00  0.00     0.102 A 
HETATM   52  C   UNK     0      12.882  33.841  18.719  0.00  0.00     0.132 A 
HETATM   53  C   UNK     0      14.024  33.056  18.742  0.00  0.00     0.102 A 
HETATM   54  C   UNK     0      15.117  33.402  17.961  0.00  0.00     0.057 A 
BRANCH  51  55
HETATM   55  O   UNK     0      11.714  35.737  17.894  0.00  0.00    -0.358 OA
HETATM   56  H   UNK     0      10.979  35.541  17.227  0.00  0.00     0.217 HD
ENDBRANCH  51  55
BRANCH  52  57
HETATM   57  O   UNK     0      11.808  33.499  19.484  0.00  0.00    -0.356 OA
HETATM   58  H   UNK     0      11.873  33.537  20.493  0.00  0.00     0.218 HD
ENDBRANCH  52  57
BRANCH  53  59
HETATM   59  O   UNK     0      14.072  31.950  19.535  0.00  0.00    -0.358 OA
HETATM   60  H   UNK     0      14.808  31.852  20.222  0.00  0.00     0.217 HD
ENDBRANCH  53  59
ENDBRANCH  47  49
ENDBRANCH  46  47
ENDBRANCH  22  46
BRANCH  34  61
HETATM   61  O   UNK     0      23.931  35.483  20.998  0.00  0.00    -0.361 OA
HETATM   62  H   UNK     0      23.718  34.811  21.725  0.00  0.00     0.217 HD
ENDBRANCH  34  61
BRANCH  37  63
HETATM   63  O   UNK     0      25.303  37.755  20.349  0.00  0.00    -0.356 OA
HETATM   64  H   UNK     0      25.910  37.161  20.899  0.00  0.00     0.218 HD
ENDBRANCH  37  63
BRANCH  38  65
HETATM   65  O   UNK     0      24.017  40.177  20.304  0.00  0.00    -0.358 OA
HETATM   66  H   UNK     0      24.580  40.214  19.463  0.00  0.00     0.217 HD
ENDBRANCH  38  65
BRANCH  39  67
HETATM   67  O   UNK     0      21.576  36.132  23.901  0.00  0.00    -0.357 OA
HETATM   68  H   UNK     0      20.965  36.920  24.069  0.00  0.00     0.217 HD
ENDBRANCH  39  67
BRANCH  41  69
HETATM   69  O   UNK     0      20.653  33.751  24.855  0.00  0.00    -0.356 OA
HETATM   70  H   UNK     0      20.640  32.810  25.229  0.00  0.00     0.218 HD
ENDBRANCH  41  69
BRANCH  42  71
HETATM   71  O   UNK     0      19.955  31.734  23.122  0.00  0.00    -0.304 OA
BRANCH  71  72
HETATM   72  C   UNK     0      20.347  30.540  22.578  0.00  0.00     0.120 A 
HETATM   73  C   UNK     0      19.450  29.801  21.823  0.00  0.00     0.005 A 
HETATM   74  C   UNK     0      19.839  28.594  21.267  0.00  0.00     0.051 A 
HETATM   75  C   UNK     0      21.126  28.120  21.465  0.00  0.00     0.102 A 
HETATM   76  C   UNK     0      22.025  28.856  22.221  0.00  0.00     0.135 A 
HETATM   77  C   UNK     0      21.638  30.066  22.776  0.00  0.00     0.136 A 
BRANCH  73  78
HETATM   78  C   UNK     0      18.049  30.314  21.604  0.00  0.00     0.205 C 
BRANCH  78  79
HETATM   79  O   UNK     0      17.974  30.954  20.340  0.00  0.00    -0.396 OA
HETATM   80  H   UNK     0      18.821  31.168  19.830  0.00  0.00     0.209 HD
ENDBRANCH  78  79
ENDBRANCH  73  78
BRANCH  75  81
HETATM   81  O   UNK     0      21.504  26.932  20.920  0.00  0.00    -0.358 OA
HETATM   82  H   UNK     0      20.828  26.367  20.421  0.00  0.00     0.217 HD
ENDBRANCH  75  81
BRANCH  76  83
HETATM   83  O   UNK     0      23.288  28.393  22.418  0.00  0.00    -0.356 OA
HETATM   84  H   UNK     0      23.708  27.769  21.741  0.00  0.00     0.218 HD
ENDBRANCH  76  83
BRANCH  77  85
HETATM   85  O   UNK     0      22.526  30.784  23.517  0.00  0.00    -0.356 OA
HETATM   86  H   UNK     0      22.363  31.768  23.688  0.00  0.00     0.218 HD
ENDBRANCH  77  85
ENDBRANCH  71  72
ENDBRANCH  42  71
ENDBRANCH  19  20
ENDBRANCH  18  19
ENDBRANCH  16  18
ENDBRANCH  12  16
BRANCH  14  87
HETATM   87  O   UNK     0      19.764  45.361  14.635  0.00  0.00    -0.358 OA
HETATM   88  H   UNK     0      19.503  45.991  13.888  0.00  0.00     0.217 HD
ENDBRANCH  14  87
BRANCH  15  89
HETATM   89  O   UNK     0      18.628  44.103  12.475  0.00  0.00    -0.356 OA
HETATM   90  H   UNK     0      19.538  44.182  12.039  0.00  0.00     0.218 HD
ENDBRANCH  15  89
ENDBRANCH   9  10
ENDBRANCH   7   9
ENDBRANCH   1   7
BRANCH   4  91
HETATM   91  O   UNK     0      12.132  39.360  10.715  0.00  0.00    -0.358 OA
HETATM   92  H   UNK     0      12.101  39.327   9.704  0.00  0.00     0.217 HD
ENDBRANCH   4  91
BRANCH   5  93
HETATM   93  O   UNK     0      15.655  36.884  12.729  0.00  0.00    -0.358 OA
HETATM   94  H   UNK     0      16.434  36.855  13.375  0.00  0.00     0.217 HD
ENDBRANCH   5  93
BRANCH   6  95
HETATM   95  O   UNK     0      13.243  36.954  11.421  0.00  0.00    -0.356 OA
HETATM   96  H   UNK     0      13.317  36.160  12.045  0.00  0.00     0.218 HD
ENDBRANCH   6  95
TORSDOF 30
ENDMDL
MODEL 9
REMARK VINA RESULT:      -8.2      4.158      7.121
REMARK  30 active torsions:
REMARK  status: ('A' for Active; 'I' for Inactive)
REMARK    1  A    between atoms: C_1  and  C_7 
REMARK    2  A    between atoms: C_4  and  O_9 
REMARK    3  A    between atoms: C_5  and  O_11 
REMARK    4  A    between atoms: C_6  and  O_10 
REMARK    5  A    between atoms: C_7  and  O_78 
REMARK    6  A    between atoms: C_12  and  C_18 
REMARK    7  A    between atoms: C_15  and  O_76 
REMARK    8  A    between atoms: C_16  and  O_78 
REMARK    9  A    between atoms: C_17  and  O_77 
REMARK   10  A    between atoms: C_18  and  O_74 
REMARK   11  A    between atoms: C_19  and  O_27 
REMARK   12  A    between atoms: C_21  and  O_25 
REMARK   13  A    between atoms: C_23  and  O_26 
REMARK   14  A    between atoms: C_28  and  O_37 
REMARK   15  A    between atoms: C_30  and  O_35 
REMARK   16  A    between atoms: C_32  and  O_36 
REMARK   17  A    between atoms: O_36  and  C_67 
REMARK   18  A    between atoms: C_39  and  O_60 
REMARK   19  A    between atoms: C_41  and  O_58 
REMARK   20  A    between atoms: C_42  and  C_45 
REMARK   21  A    between atoms: C_43  and  O_59 
REMARK   22  A    between atoms: C_45  and  O_53 
REMARK   23  A    between atoms: C_47  and  O_53 
REMARK   24  A    between atoms: C_51  and  C_54 
REMARK   25  A    between atoms: C_54  and  O_74 
REMARK   26  A    between atoms: C_64  and  O_69 
REMARK   27  A    between atoms: C_65  and  C_72 
REMARK   28  A    between atoms: C_66  and  O_70 
REMARK   29  A    between atoms: C_68  and  O_71 
REMARK   30  A    between atoms: C_72  and  O_73 
ROOT
HETATM    1  C   UNK     0      14.869  41.385  10.706  0.00  0.00     0.045 A 
HETATM    2  C   UNK     0      15.844  42.010   9.942  0.00  0.00     0.057 A 
HETATM    3  C   UNK     0      14.088  40.385  10.149  0.00  0.00     0.057 A 
HETATM    4  C   UNK     0      16.035  41.635   8.622  0.00  0.00     0.102 A 
HETATM    5  C   UNK     0      14.280  40.011   8.829  0.00  0.00     0.102 A 
HETATM    6  C   UNK     0      15.253  40.636   8.066  0.00  0.00     0.132 A 
ENDROOT
BRANCH   1   7
HETATM    7  C   UNK     0      14.668  41.780  12.105  0.00  0.00     0.298 C 
HETATM    8  O   UNK     0      13.694  41.389  12.707  0.00  0.00    -0.259 OA
BRANCH   7   9
HETATM    9  O   UNK     0      15.573  42.586  12.732  0.00  0.00    -0.272 OA
BRANCH   9  10
HETATM   10  C   UNK     0      16.736  42.080  13.239  0.00  0.00     0.116 A 
HETATM   11  C   UNK     0      16.725  40.862  13.903  0.00  0.00     0.058 A 
HETATM   12  C   UNK     0      17.900  40.336  14.418  0.00  0.00     0.045 A 
HETATM   13  C   UNK     0      19.090  41.034  14.267  0.00  0.00     0.057 A 
HETATM   14  C   UNK     0      19.104  42.255  13.608  0.00  0.00     0.102 A 
HETATM   15  C   UNK     0      17.927  42.776  13.094  0.00  0.00     0.133 A 
BRANCH  12  16
HETATM   16  C   UNK     0      17.891  39.041  15.123  0.00  0.00     0.293 C 
HETATM   17  O   UNK     0      17.123  38.173  14.773  0.00  0.00    -0.259 OA
BRANCH  16  18
HETATM   18  O   UNK     0      18.725  38.823  16.177  0.00  0.00    -0.315 OA
BRANCH  18  19
HETATM   19  C   UNK     0      18.283  39.172  17.480  0.00  0.00     0.213 C 
BRANCH  19  20
HETATM   20  C   UNK     0      17.908  37.982  18.382  0.00  0.00     0.181 C 
HETATM   21  O   UNK     0      17.598  36.846  17.535  0.00  0.00    -0.348 OA
HETATM   22  C   UNK     0      17.877  35.519  17.992  0.00  0.00     0.302 C 
HETATM   23  C   UNK     0      19.329  35.495  18.420  0.00  0.00     0.219 C 
HETATM   24  C   UNK     0      19.395  36.318  19.628  0.00  0.00     0.185 C 
HETATM   25  O   UNK     0      19.824  34.207  18.760  0.00  0.00    -0.304 OA
HETATM   26  C   UNK     0      19.124  37.759  19.342  0.00  0.00     0.194 C 
HETATM   27  O   UNK     0      20.694  36.207  20.185  0.00  0.00    -0.388 OA
HETATM   28  O   UNK     0      18.885  38.350  20.616  0.00  0.00    -0.307 OA
HETATM   29  C   UNK     0      19.694  37.981  21.672  0.00  0.00     0.291 C 
HETATM   30  C   UNK     0      21.147  37.749  21.440  0.00  0.00     0.039 A 
HETATM   31  O   UNK     0      19.235  37.884  22.786  0.00  0.00    -0.260 OA
HETATM   32  C   UNK     0      21.801  36.503  21.523  0.00  0.00     0.086 A 
HETATM   33  C   UNK     0      21.882  38.881  21.121  0.00  0.00     0.054 A 
HETATM   34  C   UNK     0      23.169  36.452  21.282  0.00  0.00     0.096 A 
HETATM   35  C   UNK     0      21.176  35.184  21.917  0.00  0.00     0.013 A 
HETATM   36  H   UNK     0      20.814  35.830  21.116  0.00  0.00     0.229 HD
HETATM   37  C   UNK     0      23.887  37.593  20.965  0.00  0.00     0.129 A 
HETATM   38  C   UNK     0      23.242  38.811  20.884  0.00  0.00     0.102 A 
HETATM   39  C   UNK     0      21.004  34.985  23.282  0.00  0.00     0.110 A 
HETATM   40  C   UNK     0      20.836  34.140  21.034  0.00  0.00     0.052 A 
HETATM   41  C   UNK     0      20.518  33.785  23.778  0.00  0.00     0.133 A 
HETATM   42  C   UNK     0      20.201  32.755  22.912  0.00  0.00     0.113 A 
HETATM   43  C   UNK     0      20.357  32.946  21.550  0.00  0.00     0.058 A 
HETATM   44  C   UNK     0      20.958  34.196  19.550  0.00  0.00     0.294 C 
HETATM   45  O   UNK     0      22.054  34.223  19.038  0.00  0.00    -0.259 OA
BRANCH  22  46
HETATM   46  O   UNK     0      17.614  34.574  16.958  0.00  0.00    -0.283 OA
BRANCH  46  47
HETATM   47  C   UNK     0      16.344  34.482  16.457  0.00  0.00     0.295 C 
HETATM   48  O   UNK     0      16.175  34.573  15.262  0.00  0.00    -0.259 OA
BRANCH  47  49
HETATM   49  C   UNK     0      15.162  34.289  17.337  0.00  0.00     0.045 A 
HETATM   50  C   UNK     0      14.174  35.259  17.439  0.00  0.00     0.057 A 
HETATM   51  C   UNK     0      13.080  35.055  18.271  0.00  0.00     0.102 A 
HETATM   52  C   UNK     0      12.971  33.883  19.003  0.00  0.00     0.132 A 
HETATM   53  C   UNK     0      13.954  32.912  18.902  0.00  0.00     0.102 A 
HETATM   54  C   UNK     0      15.045  33.116  18.069  0.00  0.00     0.057 A 
BRANCH  51  55
HETATM   55  O   UNK     0      12.114  36.006  18.372  0.00  0.00    -0.358 OA
HETATM   56  H   UNK     0      11.632  36.327  17.542  0.00  0.00     0.217 HD
ENDBRANCH  51  55
BRANCH  52  57
HETATM   57  O   UNK     0      11.899  33.681  19.818  0.00  0.00    -0.356 OA
HETATM   58  H   UNK     0      11.946  33.950  20.793  0.00  0.00     0.218 HD
ENDBRANCH  52  57
BRANCH  53  59
HETATM   59  O   UNK     0      13.850  31.762  19.624  0.00  0.00    -0.358 OA
HETATM   60  H   UNK     0      13.531  31.794  20.583  0.00  0.00     0.217 HD
ENDBRANCH  53  59
ENDBRANCH  47  49
ENDBRANCH  46  47
ENDBRANCH  22  46
BRANCH  34  61
HETATM   61  O   UNK     0      23.818  35.259  21.376  0.00  0.00    -0.361 OA
HETATM   62  H   UNK     0      24.788  35.187  21.097  0.00  0.00     0.217 HD
ENDBRANCH  34  61
BRANCH  37  63
HETATM   63  O   UNK     0      25.223  37.515  20.739  0.00  0.00    -0.356 OA
HETATM   64  H   UNK     0      25.718  38.308  20.353  0.00  0.00     0.218 HD
ENDBRANCH  37  63
BRANCH  38  65
HETATM   65  O   UNK     0      23.946  39.936  20.580  0.00  0.00    -0.358 OA
HETATM   66  H   UNK     0      23.685  40.494  19.777  0.00  0.00     0.217 HD
ENDBRANCH  38  65
BRANCH  39  67
HETATM   67  O   UNK     0      21.335  35.977  24.152  0.00  0.00    -0.357 OA
HETATM   68  H   UNK     0      20.977  36.913  24.012  0.00  0.00     0.217 HD
ENDBRANCH  39  67
BRANCH  41  69
HETATM   69  O   UNK     0      20.364  33.619  25.118  0.00  0.00    -0.356 OA
HETATM   70  H   UNK     0      21.050  34.000  25.758  0.00  0.00     0.218 HD
ENDBRANCH  41  69
BRANCH  42  71
HETATM   71  O   UNK     0      19.742  31.564  23.401  0.00  0.00    -0.304 OA
BRANCH  71  72
HETATM   72  C   UNK     0      20.023  30.366  22.799  0.00  0.00     0.120 A 
HETATM   73  C   UNK     0      21.236  29.742  23.044  0.00  0.00     0.005 A 
HETATM   74  C   UNK     0      21.526  28.530  22.441  0.00  0.00     0.051 A 
HETATM   75  C   UNK     0      20.607  27.938  21.589  0.00  0.00     0.102 A 
HETATM   76  C   UNK     0      19.393  28.562  21.342  0.00  0.00     0.135 A 
HETATM   77  C   UNK     0      19.100  29.774  21.946  0.00  0.00     0.136 A 
BRANCH  73  78
HETATM   78  C   UNK     0      22.239  30.381  23.970  0.00  0.00     0.205 C 
BRANCH  78  79
HETATM   79  O   UNK     0      21.607  30.702  25.199  0.00  0.00    -0.396 OA
HETATM   80  H   UNK     0      20.915  30.077  25.591  0.00  0.00     0.209 HD
ENDBRANCH  78  79
ENDBRANCH  73  78
BRANCH  75  81
HETATM   81  O   UNK     0      20.897  26.748  20.996  0.00  0.00    -0.358 OA
HETATM   82  H   UNK     0      21.323  26.005  21.536  0.00  0.00     0.217 HD
ENDBRANCH  75  81
BRANCH  76  83
HETATM   83  O   UNK     0      18.489  27.984  20.506  0.00  0.00    -0.356 OA
HETATM   84  H   UNK     0      18.097  28.516  19.741  0.00  0.00     0.218 HD
ENDBRANCH  76  83
BRANCH  77  85
HETATM   85  O   UNK     0      17.907  30.381  21.700  0.00  0.00    -0.356 OA
HETATM   86  H   UNK     0      17.746  31.329  22.015  0.00  0.00     0.218 HD
ENDBRANCH  77  85
ENDBRANCH  71  72
ENDBRANCH  42  71
ENDBRANCH  19  20
ENDBRANCH  18  19
ENDBRANCH  16  18
ENDBRANCH  12  16
BRANCH  14  87
HETATM   87  O   UNK     0      20.269  42.941  13.466  0.00  0.00    -0.358 OA
HETATM   88  H   UNK     0      20.853  42.784  12.654  0.00  0.00     0.217 HD
ENDBRANCH  14  87
BRANCH  15  89
HETATM   89  O   UNK     0      17.938  43.972  12.445  0.00  0.00    -0.356 OA
HETATM   90  H   UNK     0      17.795  44.830  12.964  0.00  0.00     0.218 HD
ENDBRANCH  15  89
ENDBRANCH   9  10
ENDBRANCH   7   9
ENDBRANCH   1   7
BRANCH   4  91
HETATM   91  O   UNK     0      16.989  42.247   7.870  0.00  0.00    -0.358 OA
HETATM   92  H   UNK     0      17.872  41.784   7.698  0.00  0.00     0.217 HD
ENDBRANCH   4  91
BRANCH   5  93
HETATM   93  O   UNK     0      13.510  39.033   8.279  0.00  0.00    -0.358 OA
HETATM   94  H   UNK     0      12.554  38.908   8.590  0.00  0.00     0.217 HD
ENDBRANCH   5  93
BRANCH   6  95
HETATM   95  O   UNK     0      15.440  40.269   6.770  0.00  0.00    -0.356 OA
HETATM   96  H   UNK     0      16.121  39.557   6.539  0.00  0.00     0.218 HD
ENDBRANCH   6  95
TORSDOF 30
ENDMDL
MODEL 10
REMARK VINA RESULT:      -8.1     12.325     19.967
REMARK  30 active torsions:
REMARK  status: ('A' for Active; 'I' for Inactive)
REMARK    1  A    between atoms: C_1  and  C_7 
REMARK    2  A    between atoms: C_4  and  O_9 
REMARK    3  A    between atoms: C_5  and  O_11 
REMARK    4  A    between atoms: C_6  and  O_10 
REMARK    5  A    between atoms: C_7  and  O_78 
REMARK    6  A    between atoms: C_12  and  C_18 
REMARK    7  A    between atoms: C_15  and  O_76 
REMARK    8  A    between atoms: C_16  and  O_78 
REMARK    9  A    between atoms: C_17  and  O_77 
REMARK   10  A    between atoms: C_18  and  O_74 
REMARK   11  A    between atoms: C_19  and  O_27 
REMARK   12  A    between atoms: C_21  and  O_25 
REMARK   13  A    between atoms: C_23  and  O_26 
REMARK   14  A    between atoms: C_28  and  O_37 
REMARK   15  A    between atoms: C_30  and  O_35 
REMARK   16  A    between atoms: C_32  and  O_36 
REMARK   17  A    between atoms: O_36  and  C_67 
REMARK   18  A    between atoms: C_39  and  O_60 
REMARK   19  A    between atoms: C_41  and  O_58 
REMARK   20  A    between atoms: C_42  and  C_45 
REMARK   21  A    between atoms: C_43  and  O_59 
REMARK   22  A    between atoms: C_45  and  O_53 
REMARK   23  A    between atoms: C_47  and  O_53 
REMARK   24  A    between atoms: C_51  and  C_54 
REMARK   25  A    between atoms: C_54  and  O_74 
REMARK   26  A    between atoms: C_64  and  O_69 
REMARK   27  A    between atoms: C_65  and  C_72 
REMARK   28  A    between atoms: C_66  and  O_70 
REMARK   29  A    between atoms: C_68  and  O_71 
REMARK   30  A    between atoms: C_72  and  O_73 
ROOT
HETATM    1  C   UNK     0       3.485  28.942  10.633  0.00  0.00     0.045 A 
HETATM    2  C   UNK     0       3.761  30.285  10.425  0.00  0.00     0.057 A 
HETATM    3  C   UNK     0       4.329  27.973  10.114  0.00  0.00     0.057 A 
HETATM    4  C   UNK     0       4.880  30.658   9.698  0.00  0.00     0.102 A 
HETATM    5  C   UNK     0       5.447  28.347   9.386  0.00  0.00     0.102 A 
HETATM    6  C   UNK     0       5.722  29.688   9.179  0.00  0.00     0.132 A 
ENDROOT
BRANCH   1   7
HETATM    7  C   UNK     0       2.301  28.547  11.405  0.00  0.00     0.298 C 
HETATM    8  O   UNK     0       2.436  27.963  12.456  0.00  0.00    -0.259 OA
BRANCH   7   9
HETATM    9  O   UNK     0       1.049  28.834  10.945  0.00  0.00    -0.272 OA
BRANCH   9  10
HETATM   10  C   UNK     0       0.211  29.653  11.647  0.00  0.00     0.116 A 
HETATM   11  C   UNK     0       0.735  30.704  12.387  0.00  0.00     0.058 A 
HETATM   12  C   UNK     0      -0.106  31.544  13.100  0.00  0.00     0.045 A 
HETATM   13  C   UNK     0      -1.478  31.331  13.071  0.00  0.00     0.057 A 
HETATM   14  C   UNK     0      -2.004  30.279  12.336  0.00  0.00     0.102 A 
HETATM   15  C   UNK     0      -1.160  29.442  11.624  0.00  0.00     0.133 A 
BRANCH  12  16
HETATM   16  C   UNK     0       0.448  32.661  13.887  0.00  0.00     0.293 C 
HETATM   17  O   UNK     0       0.356  32.647  15.094  0.00  0.00    -0.259 OA
BRANCH  16  18
HETATM   18  O   UNK     0       1.043  33.715  13.266  0.00  0.00    -0.315 OA
BRANCH  18  19
HETATM   19  C   UNK     0       1.544  34.781  14.059  0.00  0.00     0.213 C 
BRANCH  19  20
HETATM   20  C   UNK     0       3.078  34.853  14.160  0.00  0.00     0.181 C 
HETATM   21  O   UNK     0       3.630  33.617  13.635  0.00  0.00    -0.348 OA
HETATM   22  C   UNK     0       4.903  33.627  12.980  0.00  0.00     0.302 C 
HETATM   23  C   UNK     0       4.839  34.692  11.906  0.00  0.00     0.219 C 
HETATM   24  C   UNK     0       4.788  35.967  12.621  0.00  0.00     0.185 C 
HETATM   25  O   UNK     0       5.971  34.735  11.049  0.00  0.00    -0.304 OA
HETATM   26  C   UNK     0       3.510  36.137  13.377  0.00  0.00     0.194 C 
HETATM   27  O   UNK     0       4.897  37.023  11.681  0.00  0.00    -0.388 OA
HETATM   28  O   UNK     0       3.750  37.223  14.268  0.00  0.00    -0.307 OA
HETATM   29  C   UNK     0       4.439  38.321  13.793  0.00  0.00     0.291 C 
HETATM   30  C   UNK     0       4.197  38.796  12.402  0.00  0.00     0.039 A 
HETATM   31  O   UNK     0       5.205  38.916  14.514  0.00  0.00    -0.260 OA
HETATM   32  C   UNK     0       5.125  38.737  11.344  0.00  0.00     0.086 A 
HETATM   33  C   UNK     0       2.941  39.340  12.175  0.00  0.00     0.054 A 
HETATM   34  C   UNK     0       4.748  39.229  10.100  0.00  0.00     0.096 A 
HETATM   35  C   UNK     0       6.550  38.239  11.424  0.00  0.00     0.013 A 
HETATM   36  H   UNK     0       5.673  37.669  11.734  0.00  0.00     0.229 HD
HETATM   37  C   UNK     0       3.490  39.768   9.891  0.00  0.00     0.129 A 
HETATM   38  C   UNK     0       2.583  39.825  10.930  0.00  0.00     0.102 A 
HETATM   39  C   UNK     0       7.472  39.138  11.945  0.00  0.00     0.110 A 
HETATM   40  C   UNK     0       7.014  36.995  10.951  0.00  0.00     0.052 A 
HETATM   41  C   UNK     0       8.823  38.835  11.997  0.00  0.00     0.133 A 
HETATM   42  C   UNK     0       9.279  37.621  11.518  0.00  0.00     0.113 A 
HETATM   43  C   UNK     0       8.369  36.712  11.006  0.00  0.00     0.058 A 
HETATM   44  C   UNK     0       6.156  35.924  10.368  0.00  0.00     0.294 C 
HETATM   45  O   UNK     0       5.630  36.096   9.292  0.00  0.00    -0.259 OA
BRANCH  22  46
HETATM   46  O   UNK     0       5.188  32.342  12.435  0.00  0.00    -0.283 OA
BRANCH  46  47
HETATM   47  C   UNK     0       6.381  31.746  12.743  0.00  0.00     0.295 C 
HETATM   48  O   UNK     0       6.376  30.645  13.245  0.00  0.00    -0.259 OA
BRANCH  47  49
HETATM   49  C   UNK     0       7.684  32.414  12.491  0.00  0.00     0.045 A 
HETATM   50  C   UNK     0       8.286  33.206  13.460  0.00  0.00     0.057 A 
HETATM   51  C   UNK     0       9.504  33.822  13.199  0.00  0.00     0.102 A 
HETATM   52  C   UNK     0      10.122  33.651  11.970  0.00  0.00     0.132 A 
HETATM   53  C   UNK     0       9.524  32.861  11.001  0.00  0.00     0.102 A 
HETATM   54  C   UNK     0       8.309  32.244  11.264  0.00  0.00     0.057 A 
BRANCH  51  55
HETATM   55  O   UNK     0      10.092  34.598  14.148  0.00  0.00    -0.358 OA
HETATM   56  H   UNK     0      11.022  34.966  13.994  0.00  0.00     0.217 HD
ENDBRANCH  51  55
BRANCH  52  57
HETATM   57  O   UNK     0      11.315  34.254  11.713  0.00  0.00    -0.356 OA
HETATM   58  H   UNK     0      12.138  33.996  12.242  0.00  0.00     0.218 HD
ENDBRANCH  52  57
BRANCH  53  59
HETATM   59  O   UNK     0      10.128  32.696   9.792  0.00  0.00    -0.358 OA
HETATM   60  H   UNK     0      10.701  31.879   9.620  0.00  0.00     0.217 HD
ENDBRANCH  53  59
ENDBRANCH  47  49
ENDBRANCH  46  47
ENDBRANCH  22  46
BRANCH  34  61
HETATM   61  O   UNK     0       5.639  39.195   9.071  0.00  0.00    -0.361 OA
HETATM   62  H   UNK     0       5.429  39.671   8.203  0.00  0.00     0.217 HD
ENDBRANCH  34  61
BRANCH  37  63
HETATM   63  O   UNK     0       3.149  40.246   8.666  0.00  0.00    -0.356 OA
HETATM   64  H   UNK     0       2.357  40.868   8.568  0.00  0.00     0.218 HD
ENDBRANCH  37  63
BRANCH  38  65
HETATM   65  O   UNK     0       1.349  40.361  10.731  0.00  0.00    -0.358 OA
HETATM   66  H   UNK     0       0.537  39.940  11.165  0.00  0.00     0.217 HD
ENDBRANCH  38  65
BRANCH  39  67
HETATM   67  O   UNK     0       7.047  40.349  12.399  0.00  0.00    -0.357 OA
HETATM   68  H   UNK     0       6.058  40.528  12.511  0.00  0.00     0.217 HD
ENDBRANCH  39  67
BRANCH  41  69
HETATM   69  O   UNK     0       9.701  39.737  12.510  0.00  0.00    -0.356 OA
HETATM   70  H   UNK     0      10.678  39.700  12.245  0.00  0.00     0.218 HD
ENDBRANCH  41  69
BRANCH  42  71
HETATM   71  O   UNK     0      10.615  37.329  11.547  0.00  0.00    -0.304 OA
BRANCH  71  72
HETATM   72  C   UNK     0      11.502  37.860  10.650  0.00  0.00     0.120 A 
HETATM   73  C   UNK     0      11.525  37.389   9.346  0.00  0.00     0.005 A 
HETATM   74  C   UNK     0      12.418  37.922   8.431  0.00  0.00     0.051 A 
HETATM   75  C   UNK     0      13.293  38.926   8.816  0.00  0.00     0.102 A 
HETATM   76  C   UNK     0      13.273  39.397  10.120  0.00  0.00     0.135 A 
HETATM   77  C   UNK     0      12.379  38.866  11.036  0.00  0.00     0.136 A 
BRANCH  73  78
HETATM   78  C   UNK     0      10.574  36.299   8.922  0.00  0.00     0.205 C 
BRANCH  78  79
HETATM   79  O   UNK     0      11.262  35.058   8.901  0.00  0.00    -0.396 OA
HETATM   80  H   UNK     0      11.559  34.659   8.020  0.00  0.00     0.209 HD
ENDBRANCH  78  79
ENDBRANCH  73  78
BRANCH  75  81
HETATM   81  O   UNK     0      14.170  39.445   7.916  0.00  0.00    -0.358 OA
HETATM   82  H   UNK     0      15.007  38.931   7.671  0.00  0.00     0.217 HD
ENDBRANCH  75  81
BRANCH  76  83
HETATM   83  O   UNK     0      14.131  40.380  10.501  0.00  0.00    -0.356 OA
HETATM   84  H   UNK     0      13.921  40.947  11.312  0.00  0.00     0.218 HD
ENDBRANCH  76  83
BRANCH  77  85
HETATM   85  O   UNK     0      12.364  39.333  12.315  0.00  0.00    -0.356 OA
HETATM   86  H   UNK     0      12.072  40.283  12.503  0.00  0.00     0.218 HD
ENDBRANCH  77  85
ENDBRANCH  71  72
ENDBRANCH  42  71
ENDBRANCH  19  20
ENDBRANCH  18  19
ENDBRANCH  16  18
ENDBRANCH  12  16
BRANCH  14  87
HETATM   87  O   UNK     0      -3.347  30.067  12.312  0.00  0.00    -0.358 OA
HETATM   88  H   UNK     0      -3.712  29.123  12.337  0.00  0.00     0.217 HD
ENDBRANCH  14  87
BRANCH  15  89
HETATM   89  O   UNK     0      -1.674  28.411  10.900  0.00  0.00    -0.356 OA
HETATM   90  H   UNK     0      -1.916  27.542  11.360  0.00  0.00     0.218 HD
ENDBRANCH  15  89
ENDBRANCH   9  10
ENDBRANCH   7   9
ENDBRANCH   1   7
BRANCH   4  91
HETATM   91  O   UNK     0       5.152  31.974   9.492  0.00  0.00    -0.358 OA
HETATM   92  H   UNK     0       4.975  32.649  10.225  0.00  0.00     0.217 HD
ENDBRANCH   4  91
BRANCH   5  93
HETATM   93  O   UNK     0       6.273  27.396   8.871  0.00  0.00    -0.358 OA
HETATM   94  H   UNK     0       7.049  27.048   9.421  0.00  0.00     0.217 HD
ENDBRANCH   5  93
BRANCH   6  95
HETATM   95  O   UNK     0       6.820  30.054   8.464  0.00  0.00    -0.356 OA
HETATM   96  H   UNK     0       7.407  29.347   8.039  0.00  0.00     0.218 HD
ENDBRANCH   6  95
TORSDOF 30
ENDMDL
MODEL 11
REMARK VINA RESULT:      -8.1      4.437     10.341
REMARK  30 active torsions:
REMARK  status: ('A' for Active; 'I' for Inactive)
REMARK    1  A    between atoms: C_1  and  C_7 
REMARK    2  A    between atoms: C_4  and  O_9 
REMARK    3  A    between atoms: C_5  and  O_11 
REMARK    4  A    between atoms: C_6  and  O_10 
REMARK    5  A    between atoms: C_7  and  O_78 
REMARK    6  A    between atoms: C_12  and  C_18 
REMARK    7  A    between atoms: C_15  and  O_76 
REMARK    8  A    between atoms: C_16  and  O_78 
REMARK    9  A    between atoms: C_17  and  O_77 
REMARK   10  A    between atoms: C_18  and  O_74 
REMARK   11  A    between atoms: C_19  and  O_27 
REMARK   12  A    between atoms: C_21  and  O_25 
REMARK   13  A    between atoms: C_23  and  O_26 
REMARK   14  A    between atoms: C_28  and  O_37 
REMARK   15  A    between atoms: C_30  and  O_35 
REMARK   16  A    between atoms: C_32  and  O_36 
REMARK   17  A    between atoms: O_36  and  C_67 
REMARK   18  A    between atoms: C_39  and  O_60 
REMARK   19  A    between atoms: C_41  and  O_58 
REMARK   20  A    between atoms: C_42  and  C_45 
REMARK   21  A    between atoms: C_43  and  O_59 
REMARK   22  A    between atoms: C_45  and  O_53 
REMARK   23  A    between atoms: C_47  and  O_53 
REMARK   24  A    between atoms: C_51  and  C_54 
REMARK   25  A    between atoms: C_54  and  O_74 
REMARK   26  A    between atoms: C_64  and  O_69 
REMARK   27  A    between atoms: C_65  and  C_72 
REMARK   28  A    between atoms: C_66  and  O_70 
REMARK   29  A    between atoms: C_68  and  O_71 
REMARK   30  A    between atoms: C_72  and  O_73 
ROOT
HETATM    1  C   UNK     0      19.373  26.373  19.518  0.00  0.00     0.045 A 
HETATM    2  C   UNK     0      19.911  25.154  19.131  0.00  0.00     0.057 A 
HETATM    3  C   UNK     0      18.385  26.969  18.751  0.00  0.00     0.057 A 
HETATM    4  C   UNK     0      19.462  24.534  17.977  0.00  0.00     0.102 A 
HETATM    5  C   UNK     0      17.937  26.348  17.596  0.00  0.00     0.102 A 
HETATM    6  C   UNK     0      18.475  25.131  17.209  0.00  0.00     0.132 A 
ENDROOT
BRANCH   1   7
HETATM    7  C   UNK     0      19.846  27.028  20.742  0.00  0.00     0.298 C 
HETATM    8  O   UNK     0      19.239  26.881  21.778  0.00  0.00    -0.259 OA
BRANCH   7   9
HETATM    9  O   UNK     0      20.969  27.804  20.720  0.00  0.00    -0.272 OA
BRANCH   9  10
HETATM   10  C   UNK     0      20.987  29.034  21.314  0.00  0.00     0.116 A 
HETATM   11  C   UNK     0      20.174  30.047  20.827  0.00  0.00     0.058 A 
HETATM   12  C   UNK     0      20.181  31.298  21.425  0.00  0.00     0.045 A 
HETATM   13  C   UNK     0      21.007  31.534  22.516  0.00  0.00     0.057 A 
HETATM   14  C   UNK     0      21.825  30.525  23.002  0.00  0.00     0.102 A 
HETATM   15  C   UNK     0      21.814  29.276  22.402  0.00  0.00     0.133 A 
BRANCH  12  16
HETATM   16  C   UNK     0      19.318  32.376  20.910  0.00  0.00     0.293 C 
HETATM   17  O   UNK     0      18.114  32.259  20.967  0.00  0.00    -0.259 OA
BRANCH  16  18
HETATM   18  O   UNK     0      19.864  33.491  20.352  0.00  0.00    -0.315 OA
BRANCH  18  19
HETATM   19  C   UNK     0      19.547  33.806  19.005  0.00  0.00     0.213 C 
BRANCH  19  20
HETATM   20  C   UNK     0      20.212  35.083  18.460  0.00  0.00     0.181 C 
HETATM   21  O   UNK     0      19.257  36.171  18.549  0.00  0.00    -0.348 OA
HETATM   22  C   UNK     0      19.718  37.507  18.778  0.00  0.00     0.302 C 
HETATM   23  C   UNK     0      20.607  37.465  20.002  0.00  0.00     0.219 C 
HETATM   24  C   UNK     0      21.805  36.731  19.590  0.00  0.00     0.185 C 
HETATM   25  O   UNK     0      21.032  38.737  20.468  0.00  0.00    -0.304 OA
HETATM   26  C   UNK     0      21.513  35.294  19.304  0.00  0.00     0.194 C 
HETATM   27  O   UNK     0      22.761  36.796  20.636  0.00  0.00    -0.388 OA
HETATM   28  O   UNK     0      22.659  34.818  18.604  0.00  0.00    -0.307 OA
HETATM   29  C   UNK     0      23.907  35.208  19.047  0.00  0.00     0.291 C 
HETATM   30  C   UNK     0      24.166  35.324  20.510  0.00  0.00     0.039 A 
HETATM   31  O   UNK     0      24.796  35.419  18.255  0.00  0.00    -0.260 OA
HETATM   32  C   UNK     0      24.405  36.525  21.206  0.00  0.00     0.086 A 
HETATM   33  C   UNK     0      24.167  34.124  21.205  0.00  0.00     0.054 A 
HETATM   34  C   UNK     0      24.636  36.466  22.576  0.00  0.00     0.096 A 
HETATM   35  C   UNK     0      24.503  37.909  20.606  0.00  0.00     0.013 A 
HETATM   36  H   UNK     0      23.659  37.232  20.474  0.00  0.00     0.229 HD
HETATM   37  C   UNK     0      24.633  35.259  23.254  0.00  0.00     0.129 A 
HETATM   38  C   UNK     0      24.399  34.084  22.568  0.00  0.00     0.102 A 
HETATM   39  C   UNK     0      25.719  38.221  20.010  0.00  0.00     0.110 A 
HETATM   40  C   UNK     0      23.509  38.906  20.671  0.00  0.00     0.052 A 
HETATM   41  C   UNK     0      25.965  39.484  19.495  0.00  0.00     0.133 A 
HETATM   42  C   UNK     0      24.995  40.466  19.575  0.00  0.00     0.113 A 
HETATM   43  C   UNK     0      23.775  40.164  20.156  0.00  0.00     0.058 A 
HETATM   44  C   UNK     0      22.156  38.731  21.272  0.00  0.00     0.294 C 
HETATM   45  O   UNK     0      22.045  38.592  22.469  0.00  0.00    -0.259 OA
BRANCH  22  46
HETATM   46  O   UNK     0      18.612  38.387  18.957  0.00  0.00    -0.283 OA
BRANCH  46  47
HETATM   47  C   UNK     0      18.250  39.209  17.924  0.00  0.00     0.295 C 
HETATM   48  O   UNK     0      17.739  38.727  16.940  0.00  0.00    -0.259 OA
BRANCH  47  49
HETATM   49  C   UNK     0      18.478  40.677  17.968  0.00  0.00     0.045 A 
HETATM   50  C   UNK     0      18.965  41.297  19.111  0.00  0.00     0.057 A 
HETATM   51  C   UNK     0      19.168  42.671  19.127  0.00  0.00     0.102 A 
HETATM   52  C   UNK     0      18.883  43.430  18.002  0.00  0.00     0.132 A 
HETATM   53  C   UNK     0      18.398  42.815  16.859  0.00  0.00     0.102 A 
HETATM   54  C   UNK     0      18.198  41.442  16.844  0.00  0.00     0.057 A 
BRANCH  51  55
HETATM   55  O   UNK     0      19.642  43.277  20.247  0.00  0.00    -0.358 OA
HETATM   56  H   UNK     0      19.537  44.277  20.364  0.00  0.00     0.217 HD
ENDBRANCH  51  55
BRANCH  52  57
HETATM   57  O   UNK     0      19.081  44.777  18.016  0.00  0.00    -0.356 OA
HETATM   58  H   UNK     0      19.802  45.177  18.602  0.00  0.00     0.218 HD
ENDBRANCH  52  57
BRANCH  53  59
HETATM   59  O   UNK     0      18.114  43.560  15.755  0.00  0.00    -0.358 OA
HETATM   60  H   UNK     0      17.301  43.341  15.193  0.00  0.00     0.217 HD
ENDBRANCH  53  59
ENDBRANCH  47  49
ENDBRANCH  46  47
ENDBRANCH  22  46
BRANCH  34  61
HETATM   61  O   UNK     0      24.886  37.616  23.260  0.00  0.00    -0.361 OA
HETATM   62  H   UNK     0      24.980  38.492  22.761  0.00  0.00     0.217 HD
ENDBRANCH  34  61
BRANCH  37  63
HETATM   63  O   UNK     0      24.867  35.230  24.591  0.00  0.00    -0.356 OA
HETATM   64  H   UNK     0      25.329  36.009  25.042  0.00  0.00     0.218 HD
ENDBRANCH  37  63
BRANCH  38  65
HETATM   65  O   UNK     0      24.403  32.895  23.229  0.00  0.00    -0.358 OA
HETATM   66  H   UNK     0      25.149  32.230  23.071  0.00  0.00     0.217 HD
ENDBRANCH  38  65
BRANCH  39  67
HETATM   67  O   UNK     0      26.696  37.276  19.944  0.00  0.00    -0.357 OA
HETATM   68  H   UNK     0      27.618  37.524  19.607  0.00  0.00     0.217 HD
ENDBRANCH  39  67
BRANCH  41  69
HETATM   69  O   UNK     0      27.166  39.759  18.921  0.00  0.00    -0.356 OA
HETATM   70  H   UNK     0      27.842  39.019  18.780  0.00  0.00     0.218 HD
ENDBRANCH  41  69
BRANCH  42  71
HETATM   71  O   UNK     0      25.245  41.719  19.088  0.00  0.00    -0.304 OA
BRANCH  71  72
HETATM   72  C   UNK     0      24.309  42.435  18.391  0.00  0.00     0.120 A 
HETATM   73  C   UNK     0      24.155  42.223  17.030  0.00  0.00     0.005 A 
HETATM   74  C   UNK     0      23.209  42.942  16.318  0.00  0.00     0.051 A 
HETATM   75  C   UNK     0      22.415  43.877  16.964  0.00  0.00     0.102 A 
HETATM   76  C   UNK     0      22.569  44.092  18.325  0.00  0.00     0.135 A 
HETATM   77  C   UNK     0      23.513  43.372  19.039  0.00  0.00     0.136 A 
BRANCH  73  78
HETATM   78  C   UNK     0      25.015  41.207  16.323  0.00  0.00     0.205 C 
BRANCH  78  79
HETATM   79  O   UNK     0      26.383  41.522  16.531  0.00  0.00    -0.396 OA
HETATM   80  H   UNK     0      26.725  41.697  17.467  0.00  0.00     0.209 HD
ENDBRANCH  78  79
ENDBRANCH  73  78
BRANCH  75  81
HETATM   81  O   UNK     0      21.489  44.583  16.261  0.00  0.00    -0.358 OA
HETATM   82  H   UNK     0      21.773  45.387  15.715  0.00  0.00     0.217 HD
ENDBRANCH  75  81
BRANCH  76  83
HETATM   83  O   UNK     0      21.792  45.009  18.961  0.00  0.00    -0.356 OA
HETATM   84  H   UNK     0      21.121  44.708  19.655  0.00  0.00     0.218 HD
ENDBRANCH  76  83
BRANCH  77  85
HETATM   85  O   UNK     0      23.658  43.587  20.375  0.00  0.00    -0.356 OA
HETATM   86  H   UNK     0      24.580  43.731  20.768  0.00  0.00     0.218 HD
ENDBRANCH  77  85
ENDBRANCH  71  72
ENDBRANCH  42  71
ENDBRANCH  19  20
ENDBRANCH  18  19
ENDBRANCH  16  18
ENDBRANCH  12  16
BRANCH  14  87
HETATM   87  O   UNK     0      22.638  30.759  24.067  0.00  0.00    -0.358 OA
HETATM   88  H   UNK     0      22.960  29.988  24.638  0.00  0.00     0.217 HD
ENDBRANCH  14  87
BRANCH  15  89
HETATM   89  O   UNK     0      22.614  28.284  22.879  0.00  0.00    -0.356 OA
HETATM   90  H   UNK     0      22.423  27.320  22.637  0.00  0.00     0.218 HD
ENDBRANCH  15  89
ENDBRANCH   9  10
ENDBRANCH   7   9
ENDBRANCH   1   7
BRANCH   4  91
HETATM   91  O   UNK     0      19.989  23.340  17.595  0.00  0.00    -0.358 OA
HETATM   92  H   UNK     0      20.282  23.200  16.636  0.00  0.00     0.217 HD
ENDBRANCH   4  91
BRANCH   5  93
HETATM   93  O   UNK     0      16.971  26.935  16.838  0.00  0.00    -0.358 OA
HETATM   94  H   UNK     0      16.024  27.003  17.189  0.00  0.00     0.217 HD
ENDBRANCH   5  93
BRANCH   6  95
HETATM   95  O   UNK     0      18.035  24.523  16.075  0.00  0.00    -0.356 OA
HETATM   96  H   UNK     0      17.146  24.040  16.072  0.00  0.00     0.218 HD
ENDBRANCH   6  95
TORSDOF 30
ENDMDL
MODEL 12
REMARK VINA RESULT:      -7.9      5.244      9.554
REMARK  30 active torsions:
REMARK  status: ('A' for Active; 'I' for Inactive)
REMARK    1  A    between atoms: C_1  and  C_7 
REMARK    2  A    between atoms: C_4  and  O_9 
REMARK    3  A    between atoms: C_5  and  O_11 
REMARK    4  A    between atoms: C_6  and  O_10 
REMARK    5  A    between atoms: C_7  and  O_78 
REMARK    6  A    between atoms: C_12  and  C_18 
REMARK    7  A    between atoms: C_15  and  O_76 
REMARK    8  A    between atoms: C_16  and  O_78 
REMARK    9  A    between atoms: C_17  and  O_77 
REMARK   10  A    between atoms: C_18  and  O_74 
REMARK   11  A    between atoms: C_19  and  O_27 
REMARK   12  A    between atoms: C_21  and  O_25 
REMARK   13  A    between atoms: C_23  and  O_26 
REMARK   14  A    between atoms: C_28  and  O_37 
REMARK   15  A    between atoms: C_30  and  O_35 
REMARK   16  A    between atoms: C_32  and  O_36 
REMARK   17  A    between atoms: O_36  and  C_67 
REMARK   18  A    between atoms: C_39  and  O_60 
REMARK   19  A    between atoms: C_41  and  O_58 
REMARK   20  A    between atoms: C_42  and  C_45 
REMARK   21  A    between atoms: C_43  and  O_59 
REMARK   22  A    between atoms: C_45  and  O_53 
REMARK   23  A    between atoms: C_47  and  O_53 
REMARK   24  A    between atoms: C_51  and  C_54 
REMARK   25  A    between atoms: C_54  and  O_74 
REMARK   26  A    between atoms: C_64  and  O_69 
REMARK   27  A    between atoms: C_65  and  C_72 
REMARK   28  A    between atoms: C_66  and  O_70 
REMARK   29  A    between atoms: C_68  and  O_71 
REMARK   30  A    between atoms: C_72  and  O_73 
ROOT
HETATM    1  C   UNK     0      15.118  29.523  19.536  0.00  0.00     0.045 A 
HETATM    2  C   UNK     0      15.196  28.377  18.759  0.00  0.00     0.057 A 
HETATM    3  C   UNK     0      16.235  29.974  20.220  0.00  0.00     0.057 A 
HETATM    4  C   UNK     0      16.391  27.681  18.669  0.00  0.00     0.102 A 
HETATM    5  C   UNK     0      17.429  29.277  20.129  0.00  0.00     0.102 A 
HETATM    6  C   UNK     0      17.507  28.132  19.354  0.00  0.00     0.132 A 
ENDROOT
BRANCH   1   7
HETATM    7  C   UNK     0      13.853  30.261  19.629  0.00  0.00     0.298 C 
HETATM    8  O   UNK     0      13.396  30.537  20.715  0.00  0.00    -0.259 OA
BRANCH   7   9
HETATM    9  O   UNK     0      13.188  30.639  18.499  0.00  0.00    -0.272 OA
BRANCH   9  10
HETATM   10  C   UNK     0      12.904  31.952  18.254  0.00  0.00     0.116 A 
HETATM   11  C   UNK     0      13.938  32.869  18.130  0.00  0.00     0.058 A 
HETATM   12  C   UNK     0      13.662  34.204  17.876  0.00  0.00     0.045 A 
HETATM   13  C   UNK     0      12.344  34.622  17.748  0.00  0.00     0.057 A 
HETATM   14  C   UNK     0      11.308  33.708  17.877  0.00  0.00     0.102 A 
HETATM   15  C   UNK     0      11.588  32.375  18.129  0.00  0.00     0.133 A 
BRANCH  12  16
HETATM   16  C   UNK     0      14.759  35.180  17.743  0.00  0.00     0.293 C 
HETATM   17  O   UNK     0      14.808  36.132  18.489  0.00  0.00    -0.259 OA
BRANCH  16  18
HETATM   18  O   UNK     0      15.705  35.028  16.776  0.00  0.00    -0.315 OA
BRANCH  18  19
HETATM   19  C   UNK     0      16.963  34.476  17.133  0.00  0.00     0.213 C 
BRANCH  19  20
HETATM   20  C   UNK     0      18.139  35.468  17.114  0.00  0.00     0.181 C 
HETATM   21  O   UNK     0      17.602  36.814  17.038  0.00  0.00    -0.348 OA
HETATM   22  C   UNK     0      18.302  37.897  17.660  0.00  0.00     0.302 C 
HETATM   23  C   UNK     0      18.554  37.495  19.097  0.00  0.00     0.219 C 
HETATM   24  C   UNK     0      19.538  36.413  19.034  0.00  0.00     0.185 C 
HETATM   25  O   UNK     0      19.107  38.520  19.910  0.00  0.00    -0.304 OA
HETATM   26  C   UNK     0      18.977  35.179  18.404  0.00  0.00     0.194 C 
HETATM   27  O   UNK     0      19.952  36.096  20.352  0.00  0.00    -0.388 OA
HETATM   28  O   UNK     0      20.111  34.369  18.106  0.00  0.00    -0.307 OA
HETATM   29  C   UNK     0      21.121  34.285  19.043  0.00  0.00     0.291 C 
HETATM   30  C   UNK     0      20.779  34.237  20.492  0.00  0.00     0.039 A 
HETATM   31  O   UNK     0      22.275  34.213  18.690  0.00  0.00    -0.260 OA
HETATM   32  C   UNK     0      21.056  35.249  21.433  0.00  0.00     0.086 A 
HETATM   33  C   UNK     0      20.138  33.080  20.909  0.00  0.00     0.054 A 
HETATM   34  C   UNK     0      20.675  35.050  22.755  0.00  0.00     0.096 A 
HETATM   35  C   UNK     0      21.797  36.541  21.173  0.00  0.00     0.013 A 
HETATM   36  H   UNK     0      20.923  36.202  20.617  0.00  0.00     0.229 HD
HETATM   37  C   UNK     0      20.036  33.889  23.153  0.00  0.00     0.129 A 
HETATM   38  C   UNK     0      19.767  32.900  22.228  0.00  0.00     0.102 A 
HETATM   39  C   UNK     0      23.183  36.441  21.138  0.00  0.00     0.110 A 
HETATM   40  C   UNK     0      21.209  37.814  21.045  0.00  0.00     0.052 A 
HETATM   41  C   UNK     0      23.982  37.564  20.989  0.00  0.00     0.133 A 
HETATM   42  C   UNK     0      23.404  38.815  20.880  0.00  0.00     0.113 A 
HETATM   43  C   UNK     0      22.024  38.926  20.902  0.00  0.00     0.058 A 
HETATM   44  C   UNK     0      19.744  38.089  21.058  0.00  0.00     0.294 C 
HETATM   45  O   UNK     0      19.115  37.942  22.082  0.00  0.00    -0.259 OA
BRANCH  22  46
HETATM   46  O   UNK     0      17.536  39.096  17.572  0.00  0.00    -0.283 OA
BRANCH  46  47
HETATM   47  C   UNK     0      17.946  40.077  16.711  0.00  0.00     0.295 C 
HETATM   48  O   UNK     0      18.005  39.835  15.528  0.00  0.00    -0.259 OA
BRANCH  47  49
HETATM   49  C   UNK     0      18.335  41.431  17.187  0.00  0.00     0.045 A 
HETATM   50  C   UNK     0      18.235  42.541  16.360  0.00  0.00     0.057 A 
HETATM   51  C   UNK     0      18.608  43.795  16.828  0.00  0.00     0.102 A 
HETATM   52  C   UNK     0      19.082  43.943  18.122  0.00  0.00     0.132 A 
HETATM   53  C   UNK     0      19.182  42.837  18.951  0.00  0.00     0.102 A 
HETATM   54  C   UNK     0      18.807  41.586  18.483  0.00  0.00     0.057 A 
BRANCH  51  55
HETATM   55  O   UNK     0      18.512  44.881  16.016  0.00  0.00    -0.358 OA
HETATM   56  H   UNK     0      18.675  44.786  15.022  0.00  0.00     0.217 HD
ENDBRANCH  51  55
BRANCH  52  57
HETATM   57  O   UNK     0      19.448  45.171  18.582  0.00  0.00    -0.356 OA
HETATM   58  H   UNK     0      18.995  46.002  18.223  0.00  0.00     0.218 HD
ENDBRANCH  52  57
BRANCH  53  59
HETATM   59  O   UNK     0      19.651  42.980  20.221  0.00  0.00    -0.358 OA
HETATM   60  H   UNK     0      20.648  42.995  20.393  0.00  0.00     0.217 HD
ENDBRANCH  53  59
ENDBRANCH  47  49
ENDBRANCH  46  47
ENDBRANCH  22  46
BRANCH  34  61
HETATM   61  O   UNK     0      20.952  36.011  23.679  0.00  0.00    -0.361 OA
HETATM   62  H   UNK     0      20.763  35.840  24.659  0.00  0.00     0.217 HD
ENDBRANCH  34  61
BRANCH  37  63
HETATM   63  O   UNK     0      19.680  33.719  24.452  0.00  0.00    -0.356 OA
HETATM   64  H   UNK     0      18.965  33.046  24.697  0.00  0.00     0.218 HD
ENDBRANCH  37  63
BRANCH  38  65
HETATM   65  O   UNK     0      19.146  31.753  22.617  0.00  0.00    -0.358 OA
HETATM   66  H   UNK     0      18.535  31.265  21.974  0.00  0.00     0.217 HD
ENDBRANCH  38  65
BRANCH  39  67
HETATM   67  O   UNK     0      23.772  35.221  21.269  0.00  0.00    -0.357 OA
HETATM   68  H   UNK     0      24.125  34.924  22.170  0.00  0.00     0.217 HD
ENDBRANCH  39  67
BRANCH  41  69
HETATM   69  O   UNK     0      25.335  37.434  20.962  0.00  0.00    -0.356 OA
HETATM   70  H   UNK     0      25.797  37.129  20.115  0.00  0.00     0.218 HD
ENDBRANCH  41  69
BRANCH  42  71
HETATM   71  O   UNK     0      24.191  39.926  20.756  0.00  0.00    -0.304 OA
BRANCH  71  72
HETATM   72  C   UNK     0      23.768  41.057  20.110  0.00  0.00     0.120 A 
HETATM   73  C   UNK     0      23.889  41.148  18.732  0.00  0.00     0.005 A 
HETATM   74  C   UNK     0      23.462  42.287  18.072  0.00  0.00     0.051 A 
HETATM   75  C   UNK     0      22.913  43.341  18.785  0.00  0.00     0.102 A 
HETATM   76  C   UNK     0      22.792  43.253  20.164  0.00  0.00     0.135 A 
HETATM   77  C   UNK     0      23.217  42.113  20.826  0.00  0.00     0.136 A 
BRANCH  73  78
HETATM   78  C   UNK     0      24.484  40.004  17.952  0.00  0.00     0.205 C 
BRANCH  78  79
HETATM   79  O   UNK     0      23.462  39.076  17.624  0.00  0.00    -0.396 OA
HETATM   80  H   UNK     0      22.512  39.397  17.488  0.00  0.00     0.209 HD
ENDBRANCH  78  79
ENDBRANCH  73  78
BRANCH  75  81
HETATM   81  O   UNK     0      22.496  44.460  18.133  0.00  0.00    -0.358 OA
HETATM   82  H   UNK     0      21.547  44.792  18.254  0.00  0.00     0.217 HD
ENDBRANCH  75  81
BRANCH  76  83
HETATM   83  O   UNK     0      22.255  44.286  20.866  0.00  0.00    -0.356 OA
HETATM   84  H   UNK     0      22.710  45.189  20.864  0.00  0.00     0.218 HD
ENDBRANCH  76  83
BRANCH  77  85
HETATM   85  O   UNK     0      23.095  42.033  22.180  0.00  0.00    -0.356 OA
HETATM   86  H   UNK     0      23.056  41.128  22.632  0.00  0.00     0.218 HD
ENDBRANCH  77  85
ENDBRANCH  71  72
ENDBRANCH  42  71
ENDBRANCH  19  20
ENDBRANCH  18  19
ENDBRANCH  16  18
ENDBRANCH  12  16
BRANCH  14  87
HETATM   87  O   UNK     0      10.017  34.119  17.757  0.00  0.00    -0.358 OA
HETATM   88  H   UNK     0       9.674  34.456  16.866  0.00  0.00     0.217 HD
ENDBRANCH  14  87
BRANCH  15  89
HETATM   89  O   UNK     0      10.574  31.477  18.254  0.00  0.00    -0.356 OA
HETATM   90  H   UNK     0      10.549  30.850  19.048  0.00  0.00     0.218 HD
ENDBRANCH  15  89
ENDBRANCH   9  10
ENDBRANCH   7   9
ENDBRANCH   1   7
BRANCH   4  91
HETATM   91  O   UNK     0      16.469  26.556  17.909  0.00  0.00    -0.358 OA
HETATM   92  H   UNK     0      16.175  26.577  16.941  0.00  0.00     0.217 HD
ENDBRANCH   4  91
BRANCH   5  93
HETATM   93  O   UNK     0      18.526  29.715  20.806  0.00  0.00    -0.358 OA
HETATM   94  H   UNK     0      18.896  29.171  21.575  0.00  0.00     0.217 HD
ENDBRANCH   5  93
BRANCH   6  95
HETATM   95  O   UNK     0      18.680  27.448  19.266  0.00  0.00    -0.356 OA
HETATM   96  H   UNK     0      19.072  27.009  20.089  0.00  0.00     0.218 HD
ENDBRANCH   6  95
TORSDOF 30
ENDMDL
MODEL 13
REMARK VINA RESULT:      -7.9      2.533     10.562
REMARK  30 active torsions:
REMARK  status: ('A' for Active; 'I' for Inactive)
REMARK    1  A    between atoms: C_1  and  C_7 
REMARK    2  A    between atoms: C_4  and  O_9 
REMARK    3  A    between atoms: C_5  and  O_11 
REMARK    4  A    between atoms: C_6  and  O_10 
REMARK    5  A    between atoms: C_7  and  O_78 
REMARK    6  A    between atoms: C_12  and  C_18 
REMARK    7  A    between atoms: C_15  and  O_76 
REMARK    8  A    between atoms: C_16  and  O_78 
REMARK    9  A    between atoms: C_17  and  O_77 
REMARK   10  A    between atoms: C_18  and  O_74 
REMARK   11  A    between atoms: C_19  and  O_27 
REMARK   12  A    between atoms: C_21  and  O_25 
REMARK   13  A    between atoms: C_23  and  O_26 
REMARK   14  A    between atoms: C_28  and  O_37 
REMARK   15  A    between atoms: C_30  and  O_35 
REMARK   16  A    between atoms: C_32  and  O_36 
REMARK   17  A    between atoms: O_36  and  C_67 
REMARK   18  A    between atoms: C_39  and  O_60 
REMARK   19  A    between atoms: C_41  and  O_58 
REMARK   20  A    between atoms: C_42  and  C_45 
REMARK   21  A    between atoms: C_43  and  O_59 
REMARK   22  A    between atoms: C_45  and  O_53 
REMARK   23  A    between atoms: C_47  and  O_53 
REMARK   24  A    between atoms: C_51  and  C_54 
REMARK   25  A    between atoms: C_54  and  O_74 
REMARK   26  A    between atoms: C_64  and  O_69 
REMARK   27  A    between atoms: C_65  and  C_72 
REMARK   28  A    between atoms: C_66  and  O_70 
REMARK   29  A    between atoms: C_68  and  O_71 
REMARK   30  A    between atoms: C_72  and  O_73 
ROOT
HETATM    1  C   UNK     0      25.954  36.161  21.164  0.00  0.00     0.045 A 
HETATM    2  C   UNK     0      26.760  35.386  20.343  0.00  0.00     0.057 A 
HETATM    3  C   UNK     0      25.973  37.541  21.050  0.00  0.00     0.057 A 
HETATM    4  C   UNK     0      27.584  35.993  19.410  0.00  0.00     0.102 A 
HETATM    5  C   UNK     0      26.798  38.148  20.117  0.00  0.00     0.102 A 
HETATM    6  C   UNK     0      27.603  37.374  19.297  0.00  0.00     0.132 A 
ENDROOT
BRANCH   1   7
HETATM    7  C   UNK     0      25.079  35.518  22.151  0.00  0.00     0.298 C 
HETATM    8  O   UNK     0      25.332  35.609  23.330  0.00  0.00    -0.259 OA
BRANCH   7   9
HETATM    9  O   UNK     0      23.980  34.816  21.747  0.00  0.00    -0.272 OA
BRANCH   9  10
HETATM   10  C   UNK     0      22.770  34.991  22.355  0.00  0.00     0.116 A 
HETATM   11  C   UNK     0      22.071  36.175  22.171  0.00  0.00     0.058 A 
HETATM   12  C   UNK     0      20.839  36.361  22.779  0.00  0.00     0.045 A 
HETATM   13  C   UNK     0      20.306  35.357  23.576  0.00  0.00     0.057 A 
HETATM   14  C   UNK     0      21.004  34.174  23.766  0.00  0.00     0.102 A 
HETATM   15  C   UNK     0      22.235  33.991  23.155  0.00  0.00     0.133 A 
BRANCH  12  16
HETATM   16  C   UNK     0      20.094  37.619  22.585  0.00  0.00     0.293 C 
HETATM   17  O   UNK     0      19.292  37.975  23.419  0.00  0.00    -0.259 OA
BRANCH  16  18
HETATM   18  O   UNK     0      20.287  38.370  21.467  0.00  0.00    -0.315 OA
BRANCH  18  19
HETATM   19  C   UNK     0      19.311  38.325  20.437  0.00  0.00     0.213 C 
BRANCH  19  20
HETATM   20  C   UNK     0      19.868  38.418  19.005  0.00  0.00     0.181 C 
HETATM   21  O   UNK     0      18.769  38.708  18.104  0.00  0.00    -0.348 OA
HETATM   22  C   UNK     0      19.000  39.488  16.926  0.00  0.00     0.302 C 
HETATM   23  C   UNK     0      19.689  40.761  17.367  0.00  0.00     0.219 C 
HETATM   24  C   UNK     0      21.026  40.353  17.802  0.00  0.00     0.185 C 
HETATM   25  O   UNK     0      19.857  41.728  16.340  0.00  0.00    -0.304 OA
HETATM   26  C   UNK     0      20.983  39.516  19.039  0.00  0.00     0.194 C 
HETATM   27  O   UNK     0      21.792  41.515  18.072  0.00  0.00    -0.388 OA
HETATM   28  O   UNK     0      22.278  38.927  19.130  0.00  0.00    -0.307 OA
HETATM   29  C   UNK     0      23.377  39.714  18.849  0.00  0.00     0.291 C 
HETATM   30  C   UNK     0      23.391  41.140  19.280  0.00  0.00     0.039 A 
HETATM   31  O   UNK     0      24.338  39.239  18.291  0.00  0.00    -0.260 OA
HETATM   32  C   UNK     0      23.352  42.256  18.420  0.00  0.00     0.086 A 
HETATM   33  C   UNK     0      23.452  41.341  20.651  0.00  0.00     0.054 A 
HETATM   34  C   UNK     0      23.377  43.528  18.980  0.00  0.00     0.096 A 
HETATM   35  C   UNK     0      23.347  42.227  16.909  0.00  0.00     0.013 A 
HETATM   36  H   UNK     0      22.636  41.698  17.544  0.00  0.00     0.229 HD
HETATM   37  C   UNK     0      23.438  43.710  20.350  0.00  0.00     0.129 A 
HETATM   38  C   UNK     0      23.476  42.615  21.190  0.00  0.00     0.102 A 
HETATM   39  C   UNK     0      24.585  42.031  16.308  0.00  0.00     0.110 A 
HETATM   40  C   UNK     0      22.226  42.454  16.086  0.00  0.00     0.052 A 
HETATM   41  C   UNK     0      24.729  42.065  14.930  0.00  0.00     0.133 A 
HETATM   42  C   UNK     0      23.632  42.305  14.124  0.00  0.00     0.113 A 
HETATM   43  C   UNK     0      22.391  42.489  14.711  0.00  0.00     0.058 A 
HETATM   44  C   UNK     0      20.835  42.677  16.572  0.00  0.00     0.294 C 
HETATM   45  O   UNK     0      20.563  43.697  17.164  0.00  0.00    -0.259 OA
BRANCH  22  46
HETATM   46  O   UNK     0      17.768  39.755  16.261  0.00  0.00    -0.283 OA
BRANCH  46  47
HETATM   47  C   UNK     0      17.618  39.348  14.964  0.00  0.00     0.295 C 
HETATM   48  O   UNK     0      18.490  38.684  14.451  0.00  0.00    -0.259 OA
BRANCH  47  49
HETATM   49  C   UNK     0      16.422  39.706  14.158  0.00  0.00     0.045 A 
HETATM   50  C   UNK     0      15.745  40.901  14.365  0.00  0.00     0.057 A 
HETATM   51  C   UNK     0      14.628  41.211  13.600  0.00  0.00     0.102 A 
HETATM   52  C   UNK     0      14.182  40.329  12.628  0.00  0.00     0.132 A 
HETATM   53  C   UNK     0      14.855  39.136  12.418  0.00  0.00     0.102 A 
HETATM   54  C   UNK     0      15.973  38.828  13.182  0.00  0.00     0.057 A 
BRANCH  51  55
HETATM   55  O   UNK     0      13.966  42.380  13.804  0.00  0.00    -0.358 OA
HETATM   56  H   UNK     0      13.559  42.875  13.020  0.00  0.00     0.217 HD
ENDBRANCH  51  55
BRANCH  52  57
HETATM   57  O   UNK     0      13.087  40.631  11.878  0.00  0.00    -0.356 OA
HETATM   58  H   UNK     0      13.196  40.902  10.909  0.00  0.00     0.218 HD
ENDBRANCH  52  57
BRANCH  53  59
HETATM   59  O   UNK     0      14.416  38.266  11.467  0.00  0.00    -0.358 OA
HETATM   60  H   UNK     0      14.779  37.322  11.438  0.00  0.00     0.217 HD
ENDBRANCH  53  59
ENDBRANCH  47  49
ENDBRANCH  46  47
ENDBRANCH  22  46
BRANCH  34  61
HETATM   61  O   UNK     0      23.358  44.616  18.161  0.00  0.00    -0.361 OA
HETATM   62  H   UNK     0      22.477  45.054  17.922  0.00  0.00     0.217 HD
ENDBRANCH  34  61
BRANCH  37  63
HETATM   63  O   UNK     0      23.466  44.965  20.870  0.00  0.00    -0.356 OA
HETATM   64  H   UNK     0      24.061  45.171  21.662  0.00  0.00     0.218 HD
ENDBRANCH  37  63
BRANCH  38  65
HETATM   65  O   UNK     0      23.544  42.789  22.537  0.00  0.00    -0.358 OA
HETATM   66  H   UNK     0      23.338  43.694  22.942  0.00  0.00     0.217 HD
ENDBRANCH  38  65
BRANCH  39  67
HETATM   67  O   UNK     0      25.683  41.818  17.084  0.00  0.00    -0.357 OA
HETATM   68  H   UNK     0      25.743  42.242  18.001  0.00  0.00     0.217 HD
ENDBRANCH  39  67
BRANCH  41  69
HETATM   69  O   UNK     0      25.954  41.873  14.372  0.00  0.00    -0.356 OA
HETATM   70  H   UNK     0      26.037  41.701  13.378  0.00  0.00     0.218 HD
ENDBRANCH  41  69
BRANCH  42  71
HETATM   71  O   UNK     0      23.777  42.361  12.766  0.00  0.00    -0.304 OA
BRANCH  71  72
HETATM   72  C   UNK     0      22.809  41.916  11.905  0.00  0.00     0.120 A 
HETATM   73  C   UNK     0      21.996  42.831  11.254  0.00  0.00     0.005 A 
HETATM   74  C   UNK     0      21.016  42.389  10.381  0.00  0.00     0.051 A 
HETATM   75  C   UNK     0      20.844  41.032  10.156  0.00  0.00     0.102 A 
HETATM   76  C   UNK     0      21.656  40.116  10.807  0.00  0.00     0.135 A 
HETATM   77  C   UNK     0      22.638  40.556  11.680  0.00  0.00     0.136 A 
BRANCH  73  78
HETATM   78  C   UNK     0      22.180  44.308  11.494  0.00  0.00     0.205 C 
BRANCH  78  79
HETATM   79  O   UNK     0      23.489  44.689  11.102  0.00  0.00    -0.396 OA
HETATM   80  H   UNK     0      23.884  45.558  11.436  0.00  0.00     0.209 HD
ENDBRANCH  78  79
ENDBRANCH  73  78
BRANCH  75  81
HETATM   81  O   UNK     0      19.879  40.602   9.299  0.00  0.00    -0.358 OA
HETATM   82  H   UNK     0      19.798  41.018   8.380  0.00  0.00     0.217 HD
ENDBRANCH  75  81
BRANCH  76  83
HETATM   83  O   UNK     0      21.489  38.784  10.590  0.00  0.00    -0.356 OA
HETATM   84  H   UNK     0      20.672  38.312  10.954  0.00  0.00     0.218 HD
ENDBRANCH  76  83
BRANCH  77  85
HETATM   85  O   UNK     0      23.432  39.651  12.316  0.00  0.00    -0.356 OA
HETATM   86  H   UNK     0      24.373  39.482  11.986  0.00  0.00     0.218 HD
ENDBRANCH  77  85
ENDBRANCH  71  72
ENDBRANCH  42  71
ENDBRANCH  19  20
ENDBRANCH  18  19
ENDBRANCH  16  18
ENDBRANCH  12  16
BRANCH  14  87
HETATM   87  O   UNK     0      20.484  33.192  24.550  0.00  0.00    -0.358 OA
HETATM   88  H   UNK     0      21.097  32.618  25.115  0.00  0.00     0.217 HD
ENDBRANCH  14  87
BRANCH  15  89
HETATM   89  O   UNK     0      22.921  32.830  23.338  0.00  0.00    -0.356 OA
HETATM   90  H   UNK     0      23.466  32.693  24.179  0.00  0.00     0.218 HD
ENDBRANCH  15  89
ENDBRANCH   9  10
ENDBRANCH   7   9
ENDBRANCH   1   7
BRANCH   4  91
HETATM   91  O   UNK     0      28.376  35.236  18.604  0.00  0.00    -0.358 OA
HETATM   92  H   UNK     0      29.241  34.852  18.961  0.00  0.00     0.217 HD
ENDBRANCH   4  91
BRANCH   5  93
HETATM   93  O   UNK     0      26.822  39.504  20.008  0.00  0.00    -0.358 OA
HETATM   94  H   UNK     0      26.385  40.076  20.720  0.00  0.00     0.217 HD
ENDBRANCH   5  93
BRANCH   6  95
HETATM   95  O   UNK     0      28.414  37.970  18.382  0.00  0.00    -0.356 OA
HETATM   96  H   UNK     0      28.194  38.896  18.038  0.00  0.00     0.218 HD
ENDBRANCH   6  95
TORSDOF 30
ENDMDL
MODEL 14
REMARK VINA RESULT:      -7.9     13.376     20.198
REMARK  30 active torsions:
REMARK  status: ('A' for Active; 'I' for Inactive)
REMARK    1  A    between atoms: C_1  and  C_7 
REMARK    2  A    between atoms: C_4  and  O_9 
REMARK    3  A    between atoms: C_5  and  O_11 
REMARK    4  A    between atoms: C_6  and  O_10 
REMARK    5  A    between atoms: C_7  and  O_78 
REMARK    6  A    between atoms: C_12  and  C_18 
REMARK    7  A    between atoms: C_15  and  O_76 
REMARK    8  A    between atoms: C_16  and  O_78 
REMARK    9  A    between atoms: C_17  and  O_77 
REMARK   10  A    between atoms: C_18  and  O_74 
REMARK   11  A    between atoms: C_19  and  O_27 
REMARK   12  A    between atoms: C_21  and  O_25 
REMARK   13  A    between atoms: C_23  and  O_26 
REMARK   14  A    between atoms: C_28  and  O_37 
REMARK   15  A    between atoms: C_30  and  O_35 
REMARK   16  A    between atoms: C_32  and  O_36 
REMARK   17  A    between atoms: O_36  and  C_67 
REMARK   18  A    between atoms: C_39  and  O_60 
REMARK   19  A    between atoms: C_41  and  O_58 
REMARK   20  A    between atoms: C_42  and  C_45 
REMARK   21  A    between atoms: C_43  and  O_59 
REMARK   22  A    between atoms: C_45  and  O_53 
REMARK   23  A    between atoms: C_47  and  O_53 
REMARK   24  A    between atoms: C_51  and  C_54 
REMARK   25  A    between atoms: C_54  and  O_74 
REMARK   26  A    between atoms: C_64  and  O_69 
REMARK   27  A    between atoms: C_65  and  C_72 
REMARK   28  A    between atoms: C_66  and  O_70 
REMARK   29  A    between atoms: C_68  and  O_71 
REMARK   30  A    between atoms: C_72  and  O_73 
ROOT
HETATM    1  C   UNK     0       3.655  29.385  10.510  0.00  0.00     0.045 A 
HETATM    2  C   UNK     0       3.824  30.724  10.189  0.00  0.00     0.057 A 
HETATM    3  C   UNK     0       4.561  28.443  10.050  0.00  0.00     0.057 A 
HETATM    4  C   UNK     0       4.898  31.119   9.408  0.00  0.00     0.102 A 
HETATM    5  C   UNK     0       5.635  28.839   9.269  0.00  0.00     0.102 A 
HETATM    6  C   UNK     0       5.803  30.176   8.948  0.00  0.00     0.132 A 
ENDROOT
BRANCH   1   7
HETATM    7  C   UNK     0       2.519  28.967  11.338  0.00  0.00     0.298 C 
HETATM    8  O   UNK     0       2.715  28.483  12.429  0.00  0.00    -0.259 OA
BRANCH   7   9
HETATM    9  O   UNK     0       1.240  29.120  10.886  0.00  0.00    -0.272 OA
BRANCH   9  10
HETATM   10  C   UNK     0       0.320  29.832  11.602  0.00  0.00     0.116 A 
HETATM   11  C   UNK     0       0.719  30.956  12.311  0.00  0.00     0.058 A 
HETATM   12  C   UNK     0      -0.208  31.688  13.038  0.00  0.00     0.045 A 
HETATM   13  C   UNK     0      -1.538  31.293  13.053  0.00  0.00     0.057 A 
HETATM   14  C   UNK     0      -1.939  30.167  12.349  0.00  0.00     0.102 A 
HETATM   15  C   UNK     0      -1.010  29.438  11.623  0.00  0.00     0.133 A 
BRANCH  12  16
HETATM   16  C   UNK     0       0.213  32.882  13.793  0.00  0.00     0.293 C 
HETATM   17  O   UNK     0      -0.122  33.010  14.949  0.00  0.00    -0.259 OA
BRANCH  16  18
HETATM   18  O   UNK     0       0.960  33.851  13.193  0.00  0.00    -0.315 OA
BRANCH  18  19
HETATM   19  C   UNK     0       1.479  34.904  13.992  0.00  0.00     0.213 C 
BRANCH  19  20
HETATM   20  C   UNK     0       3.011  34.914  14.141  0.00  0.00     0.181 C 
HETATM   21  O   UNK     0       3.526  33.644  13.663  0.00  0.00    -0.348 OA
HETATM   22  C   UNK     0       4.818  33.585  13.050  0.00  0.00     0.302 C 
HETATM   23  C   UNK     0       4.834  34.625  11.950  0.00  0.00     0.219 C 
HETATM   24  C   UNK     0       4.814  35.919  12.635  0.00  0.00     0.185 C 
HETATM   25  O   UNK     0       5.993  34.601  11.130  0.00  0.00    -0.304 OA
HETATM   26  C   UNK     0       3.521  36.160  13.344  0.00  0.00     0.194 C 
HETATM   27  O   UNK     0       4.998  36.946  11.675  0.00  0.00    -0.388 OA
HETATM   28  O   UNK     0       3.779  37.255  14.218  0.00  0.00    -0.307 OA
HETATM   29  C   UNK     0       4.529  38.312  13.741  0.00  0.00     0.291 C 
HETATM   30  C   UNK     0       4.352  38.764  12.333  0.00  0.00     0.039 A 
HETATM   31  O   UNK     0       5.296  38.892  14.473  0.00  0.00    -0.260 OA
HETATM   32  C   UNK     0       5.310  38.640  11.307  0.00  0.00     0.086 A 
HETATM   33  C   UNK     0       3.128  39.354  12.052  0.00  0.00     0.054 A 
HETATM   34  C   UNK     0       4.993  39.118  10.041  0.00  0.00     0.096 A 
HETATM   35  C   UNK     0       6.709  38.085  11.445  0.00  0.00     0.013 A 
HETATM   36  H   UNK     0       5.799  37.560  11.739  0.00  0.00     0.229 HD
HETATM   37  C   UNK     0       3.767  39.704   9.778  0.00  0.00     0.129 A 
HETATM   38  C   UNK     0       2.831  39.824  10.786  0.00  0.00     0.102 A 
HETATM   39  C   UNK     0       7.652  38.958  11.976  0.00  0.00     0.110 A 
HETATM   40  C   UNK     0       7.134  36.812  11.016  0.00  0.00     0.052 A 
HETATM   41  C   UNK     0       8.986  38.599  12.079  0.00  0.00     0.133 A 
HETATM   42  C   UNK     0       9.405  37.356  11.642  0.00  0.00     0.113 A 
HETATM   43  C   UNK     0       8.473  36.474  11.122  0.00  0.00     0.058 A 
HETATM   44  C   UNK     0       6.251  35.765  10.430  0.00  0.00     0.294 C 
HETATM   45  O   UNK     0       5.767  35.932   9.333  0.00  0.00    -0.259 OA
BRANCH  22  46
HETATM   46  O   UNK     0       5.065  32.276  12.543  0.00  0.00    -0.283 OA
BRANCH  46  47
HETATM   47  C   UNK     0       6.050  31.522  13.121  0.00  0.00     0.295 C 
HETATM   48  O   UNK     0       6.014  31.322  14.314  0.00  0.00    -0.259 OA
BRANCH  47  49
HETATM   49  C   UNK     0       7.171  30.950  12.331  0.00  0.00     0.045 A 
HETATM   50  C   UNK     0       7.981  31.756  11.543  0.00  0.00     0.057 A 
HETATM   51  C   UNK     0       9.022  31.197  10.812  0.00  0.00     0.102 A 
HETATM   52  C   UNK     0       9.255  29.832  10.865  0.00  0.00     0.132 A 
HETATM   53  C   UNK     0       8.450  29.024  11.652  0.00  0.00     0.102 A 
HETATM   54  C   UNK     0       7.412  29.584  12.383  0.00  0.00     0.057 A 
BRANCH  51  55
HETATM   55  O   UNK     0       9.813  31.987  10.039  0.00  0.00    -0.358 OA
HETATM   56  H   UNK     0       9.620  32.082   9.050  0.00  0.00     0.217 HD
ENDBRANCH  51  55
BRANCH  52  57
HETATM   57  O   UNK     0      10.275  29.282  10.149  0.00  0.00    -0.356 OA
HETATM   58  H   UNK     0      10.624  29.750   9.323  0.00  0.00     0.218 HD
ENDBRANCH  52  57
BRANCH  53  59
HETATM   59  O   UNK     0       8.675  27.682  11.702  0.00  0.00    -0.358 OA
HETATM   60  H   UNK     0       8.516  27.174  12.563  0.00  0.00     0.217 HD
ENDBRANCH  53  59
ENDBRANCH  47  49
ENDBRANCH  46  47
ENDBRANCH  22  46
BRANCH  34  61
HETATM   61  O   UNK     0       5.915  39.022   9.043  0.00  0.00    -0.361 OA
HETATM   62  H   UNK     0       6.287  38.117   8.783  0.00  0.00     0.217 HD
ENDBRANCH  34  61
BRANCH  37  63
HETATM   63  O   UNK     0       3.487  40.167   8.533  0.00  0.00    -0.356 OA
HETATM   64  H   UNK     0       3.720  39.609   7.721  0.00  0.00     0.218 HD
ENDBRANCH  37  63
BRANCH  38  65
HETATM   65  O   UNK     0       1.628  40.406  10.534  0.00  0.00    -0.358 OA
HETATM   66  H   UNK     0       1.036  40.048   9.795  0.00  0.00     0.217 HD
ENDBRANCH  38  65
BRANCH  39  67
HETATM   67  O   UNK     0       7.264  40.195  12.389  0.00  0.00    -0.357 OA
HETATM   68  H   UNK     0       7.759  41.015  12.062  0.00  0.00     0.217 HD
ENDBRANCH  39  67
BRANCH  41  69
HETATM   69  O   UNK     0       9.885  39.476  12.600  0.00  0.00    -0.356 OA
HETATM   70  H   UNK     0      10.249  40.227  12.028  0.00  0.00     0.218 HD
ENDBRANCH  41  69
BRANCH  42  71
HETATM   71  O   UNK     0      10.725  37.009  11.722  0.00  0.00    -0.304 OA
BRANCH  71  72
HETATM   72  C   UNK     0      11.401  36.444  10.674  0.00  0.00     0.120 A 
HETATM   73  C   UNK     0      11.927  37.253   9.680  0.00  0.00     0.005 A 
HETATM   74  C   UNK     0      12.613  36.690   8.617  0.00  0.00     0.051 A 
HETATM   75  C   UNK     0      12.774  35.315   8.542  0.00  0.00     0.102 A 
HETATM   76  C   UNK     0      12.247  34.504   9.535  0.00  0.00     0.135 A 
HETATM   77  C   UNK     0      11.562  35.066  10.601  0.00  0.00     0.136 A 
BRANCH  73  78
HETATM   78  C   UNK     0      11.756  38.749   9.756  0.00  0.00     0.205 C 
BRANCH  78  79
HETATM   79  O   UNK     0      12.343  39.229  10.956  0.00  0.00    -0.396 OA
HETATM   80  H   UNK     0      11.838  39.884  11.539  0.00  0.00     0.209 HD
ENDBRANCH  78  79
ENDBRANCH  73  78
BRANCH  75  81
HETATM   81  O   UNK     0      13.447  34.765   7.496  0.00  0.00    -0.358 OA
HETATM   82  H   UNK     0      13.758  33.803   7.544  0.00  0.00     0.217 HD
ENDBRANCH  75  81
BRANCH  76  83
HETATM   83  O   UNK     0      12.402  33.155   9.465  0.00  0.00    -0.356 OA
HETATM   84  H   UNK     0      12.132  32.658   8.626  0.00  0.00     0.218 HD
ENDBRANCH  76  83
BRANCH  77  85
HETATM   85  O   UNK     0      11.047  34.263  11.572  0.00  0.00    -0.356 OA
HETATM   86  H   UNK     0      11.330  34.389  12.536  0.00  0.00     0.218 HD
ENDBRANCH  77  85
ENDBRANCH  71  72
ENDBRANCH  42  71
ENDBRANCH  19  20
ENDBRANCH  18  19
ENDBRANCH  16  18
ENDBRANCH  12  16
BRANCH  14  87
HETATM   87  O   UNK     0      -3.242  29.777  12.368  0.00  0.00    -0.358 OA
HETATM   88  H   UNK     0      -3.965  30.442  12.611  0.00  0.00     0.217 HD
ENDBRANCH  14  87
BRANCH  15  89
HETATM   89  O   UNK     0      -1.401  28.335  10.929  0.00  0.00    -0.356 OA
HETATM   90  H   UNK     0      -2.142  28.405  10.243  0.00  0.00     0.218 HD
ENDBRANCH  15  89
ENDBRANCH   9  10
ENDBRANCH   7   9
ENDBRANCH   1   7
BRANCH   4  91
HETATM   91  O   UNK     0       5.065  32.431   9.091  0.00  0.00    -0.358 OA
HETATM   92  H   UNK     0       4.326  33.095   9.279  0.00  0.00     0.217 HD
ENDBRANCH   4  91
BRANCH   5  93
HETATM   93  O   UNK     0       6.523  27.914   8.812  0.00  0.00    -0.358 OA
HETATM   94  H   UNK     0       7.501  27.984   9.064  0.00  0.00     0.217 HD
ENDBRANCH   5  93
BRANCH   6  95
HETATM   95  O   UNK     0       6.857  30.564   8.181  0.00  0.00    -0.356 OA
HETATM   96  H   UNK     0       7.112  31.542   8.128  0.00  0.00     0.218 HD
ENDBRANCH   6  95
TORSDOF 30
ENDMDL
MODEL 15
REMARK VINA RESULT:      -7.9      4.173      8.615
REMARK  30 active torsions:
REMARK  status: ('A' for Active; 'I' for Inactive)
REMARK    1  A    between atoms: C_1  and  C_7 
REMARK    2  A    between atoms: C_4  and  O_9 
REMARK    3  A    between atoms: C_5  and  O_11 
REMARK    4  A    between atoms: C_6  and  O_10 
REMARK    5  A    between atoms: C_7  and  O_78 
REMARK    6  A    between atoms: C_12  and  C_18 
REMARK    7  A    between atoms: C_15  and  O_76 
REMARK    8  A    between atoms: C_16  and  O_78 
REMARK    9  A    between atoms: C_17  and  O_77 
REMARK   10  A    between atoms: C_18  and  O_74 
REMARK   11  A    between atoms: C_19  and  O_27 
REMARK   12  A    between atoms: C_21  and  O_25 
REMARK   13  A    between atoms: C_23  and  O_26 
REMARK   14  A    between atoms: C_28  and  O_37 
REMARK   15  A    between atoms: C_30  and  O_35 
REMARK   16  A    between atoms: C_32  and  O_36 
REMARK   17  A    between atoms: O_36  and  C_67 
REMARK   18  A    between atoms: C_39  and  O_60 
REMARK   19  A    between atoms: C_41  and  O_58 
REMARK   20  A    between atoms: C_42  and  C_45 
REMARK   21  A    between atoms: C_43  and  O_59 
REMARK   22  A    between atoms: C_45  and  O_53 
REMARK   23  A    between atoms: C_47  and  O_53 
REMARK   24  A    between atoms: C_51  and  C_54 
REMARK   25  A    between atoms: C_54  and  O_74 
REMARK   26  A    between atoms: C_64  and  O_69 
REMARK   27  A    between atoms: C_65  and  C_72 
REMARK   28  A    between atoms: C_66  and  O_70 
REMARK   29  A    between atoms: C_68  and  O_71 
REMARK   30  A    between atoms: C_72  and  O_73 
ROOT
HETATM    1  C   UNK     0      25.451  41.239  17.521  0.00  0.00     0.045 A 
HETATM    2  C   UNK     0      25.124  40.496  16.396  0.00  0.00     0.057 A 
HETATM    3  C   UNK     0      26.364  40.743  18.437  0.00  0.00     0.057 A 
HETATM    4  C   UNK     0      25.710  39.259  16.189  0.00  0.00     0.102 A 
HETATM    5  C   UNK     0      26.950  39.505  18.229  0.00  0.00     0.102 A 
HETATM    6  C   UNK     0      26.623  38.763  17.106  0.00  0.00     0.132 A 
ENDROOT
BRANCH   1   7
HETATM    7  C   UNK     0      24.831  42.551  17.739  0.00  0.00     0.298 C 
HETATM    8  O   UNK     0      24.918  43.407  16.888  0.00  0.00    -0.259 OA
BRANCH   7   9
HETATM    9  O   UNK     0      24.157  42.813  18.897  0.00  0.00    -0.272 OA
BRANCH   9  10
HETATM   10  C   UNK     0      22.804  42.994  18.899  0.00  0.00     0.116 A 
HETATM   11  C   UNK     0      21.986  42.083  18.245  0.00  0.00     0.058 A 
HETATM   12  C   UNK     0      20.610  42.254  18.244  0.00  0.00     0.045 A 
HETATM   13  C   UNK     0      20.051  43.342  18.901  0.00  0.00     0.057 A 
HETATM   14  C   UNK     0      20.866  44.257  19.551  0.00  0.00     0.102 A 
HETATM   15  C   UNK     0      22.241  44.082  19.551  0.00  0.00     0.133 A 
BRANCH  12  16
HETATM   16  C   UNK     0      19.739  41.287  17.551  0.00  0.00     0.293 C 
HETATM   17  O   UNK     0      19.804  41.179  16.347  0.00  0.00    -0.259 OA
BRANCH  16  18
HETATM   18  O   UNK     0      18.851  40.530  18.252  0.00  0.00    -0.315 OA
BRANCH  18  19
HETATM   19  C   UNK     0      18.134  39.513  17.570  0.00  0.00     0.213 C 
BRANCH  19  20
HETATM   20  C   UNK     0      17.797  38.273  18.417  0.00  0.00     0.181 C 
HETATM   21  O   UNK     0      17.449  37.186  17.520  0.00  0.00    -0.348 OA
HETATM   22  C   UNK     0      17.747  35.836  17.888  0.00  0.00     0.302 C 
HETATM   23  C   UNK     0      19.216  35.789  18.251  0.00  0.00     0.219 C 
HETATM   24  C   UNK     0      19.334  36.542  19.501  0.00  0.00     0.185 C 
HETATM   25  O   UNK     0      19.723  34.485  18.496  0.00  0.00    -0.304 OA
HETATM   26  C   UNK     0      19.052  37.997  19.309  0.00  0.00     0.194 C 
HETATM   27  O   UNK     0      20.655  36.401  19.995  0.00  0.00    -0.388 OA
HETATM   28  O   UNK     0      18.868  38.513  20.625  0.00  0.00    -0.307 OA
HETATM   29  C   UNK     0      19.721  38.086  21.622  0.00  0.00     0.291 C 
HETATM   30  C   UNK     0      21.163  37.869  21.315  0.00  0.00     0.039 A 
HETATM   31  O   UNK     0      19.310  37.925  22.747  0.00  0.00    -0.260 OA
HETATM   32  C   UNK     0      21.819  36.622  21.299  0.00  0.00     0.086 A 
HETATM   33  C   UNK     0      21.885  39.019  21.031  0.00  0.00     0.054 A 
HETATM   34  C   UNK     0      23.175  36.587  20.998  0.00  0.00     0.096 A 
HETATM   35  C   UNK     0      21.210  35.282  21.643  0.00  0.00     0.013 A 
HETATM   36  H   UNK     0      20.815  35.972  20.897  0.00  0.00     0.229 HD
HETATM   37  C   UNK     0      23.879  37.745  20.716  0.00  0.00     0.129 A 
HETATM   38  C   UNK     0      23.233  38.965  20.733  0.00  0.00     0.102 A 
HETATM   39  C   UNK     0      21.096  35.004  23.001  0.00  0.00     0.110 A 
HETATM   40  C   UNK     0      20.832  34.289  20.718  0.00  0.00     0.052 A 
HETATM   41  C   UNK     0      20.631  33.778  23.447  0.00  0.00     0.133 A 
HETATM   42  C   UNK     0      20.276  32.799  22.539  0.00  0.00     0.113 A 
HETATM   43  C   UNK     0      20.373  33.068  21.184  0.00  0.00     0.058 A 
HETATM   44  C   UNK     0      20.890  34.431  19.235  0.00  0.00     0.294 C 
HETATM   45  O   UNK     0      21.963  34.489  18.679  0.00  0.00    -0.259 OA
BRANCH  22  46
HETATM   46  O   UNK     0      17.439  34.951  16.814  0.00  0.00    -0.283 OA
BRANCH  46  47
HETATM   47  C   UNK     0      16.132  34.801  16.438  0.00  0.00     0.295 C 
HETATM   48  O   UNK     0      15.763  35.278  15.389  0.00  0.00    -0.259 OA
BRANCH  47  49
HETATM   49  C   UNK     0      15.145  34.082  17.285  0.00  0.00     0.045 A 
HETATM   50  C   UNK     0      13.806  34.446  17.298  0.00  0.00     0.057 A 
HETATM   51  C   UNK     0      12.904  33.759  18.101  0.00  0.00     0.102 A 
HETATM   52  C   UNK     0      13.338  32.708  18.894  0.00  0.00     0.132 A 
HETATM   53  C   UNK     0      14.674  32.341  18.883  0.00  0.00     0.102 A 
HETATM   54  C   UNK     0      15.573  33.027  18.078  0.00  0.00     0.057 A 
BRANCH  51  55
HETATM   55  O   UNK     0      11.593  34.118  18.115  0.00  0.00    -0.358 OA
HETATM   56  H   UNK     0      11.010  33.870  18.904  0.00  0.00     0.217 HD
ENDBRANCH  51  55
BRANCH  52  57
HETATM   57  O   UNK     0      12.455  32.034  19.682  0.00  0.00    -0.356 OA
HETATM   58  H   UNK     0      12.414  32.225  20.675  0.00  0.00     0.218 HD
ENDBRANCH  52  57
BRANCH  53  59
HETATM   59  O   UNK     0      15.102  31.311  19.664  0.00  0.00    -0.358 OA
HETATM   60  H   UNK     0      16.041  31.320  20.043  0.00  0.00     0.217 HD
ENDBRANCH  53  59
ENDBRANCH  47  49
ENDBRANCH  46  47
ENDBRANCH  22  46
BRANCH  34  61
HETATM   61  O   UNK     0      23.826  35.392  20.996  0.00  0.00    -0.361 OA
HETATM   62  H   UNK     0      24.043  34.932  21.871  0.00  0.00     0.217 HD
ENDBRANCH  34  61
BRANCH  37  63
HETATM   63  O   UNK     0      25.205  37.682  20.429  0.00  0.00    -0.356 OA
HETATM   64  H   UNK     0      25.597  38.280  19.712  0.00  0.00     0.218 HD
ENDBRANCH  37  63
BRANCH  38  65
HETATM   65  O   UNK     0      23.924  40.107  20.464  0.00  0.00    -0.358 OA
HETATM   66  H   UNK     0      24.533  40.152  19.657  0.00  0.00     0.217 HD
ENDBRANCH  38  65
BRANCH  39  67
HETATM   67  O   UNK     0      21.464  35.946  23.912  0.00  0.00    -0.357 OA
HETATM   68  H   UNK     0      21.347  36.928  23.700  0.00  0.00     0.217 HD
ENDBRANCH  39  67
BRANCH  41  69
HETATM   69  O   UNK     0      20.534  33.535  24.782  0.00  0.00    -0.356 OA
HETATM   70  H   UNK     0      20.820  32.639  25.155  0.00  0.00     0.218 HD
ENDBRANCH  41  69
BRANCH  42  71
HETATM   71  O   UNK     0      19.837  31.580  22.978  0.00  0.00    -0.304 OA
BRANCH  71  72
HETATM   72  C   UNK     0      20.283  30.402  22.441  0.00  0.00     0.120 A 
HETATM   73  C   UNK     0      19.413  29.607  21.711  0.00  0.00     0.005 A 
HETATM   74  C   UNK     0      19.856  28.416  21.163  0.00  0.00     0.051 A 
HETATM   75  C   UNK     0      21.170  28.013  21.342  0.00  0.00     0.102 A 
HETATM   76  C   UNK     0      22.041  28.806  22.072  0.00  0.00     0.135 A 
HETATM   77  C   UNK     0      21.600  30.000  22.620  0.00  0.00     0.136 A 
BRANCH  73  78
HETATM   78  C   UNK     0      17.983  30.042  21.512  0.00  0.00     0.205 C 
BRANCH  78  79
HETATM   79  O   UNK     0      17.921  30.990  20.459  0.00  0.00    -0.396 OA
HETATM   80  H   UNK     0      18.592  30.950  19.703  0.00  0.00     0.209 HD
ENDBRANCH  78  79
ENDBRANCH  73  78
BRANCH  75  81
HETATM   81  O   UNK     0      21.601  26.841  20.803  0.00  0.00    -0.358 OA
HETATM   82  H   UNK     0      21.159  25.969  21.069  0.00  0.00     0.217 HD
ENDBRANCH  75  81
BRANCH  76  83
HETATM   83  O   UNK     0      23.331  28.413  22.251  0.00  0.00    -0.356 OA
HETATM   84  H   UNK     0      23.891  28.833  22.981  0.00  0.00     0.218 HD
ENDBRANCH  76  83
BRANCH  77  85
HETATM   85  O   UNK     0      22.462  30.774  23.336  0.00  0.00    -0.356 OA
HETATM   86  H   UNK     0      22.185  31.137  24.239  0.00  0.00     0.218 HD
ENDBRANCH  77  85
ENDBRANCH  71  72
ENDBRANCH  42  71
ENDBRANCH  19  20
ENDBRANCH  18  19
ENDBRANCH  16  18
ENDBRANCH  12  16
BRANCH  14  87
HETATM   87  O   UNK     0      20.319  45.325  20.190  0.00  0.00    -0.358 OA
HETATM   88  H   UNK     0      19.318  45.371  20.334  0.00  0.00     0.217 HD
ENDBRANCH  14  87
BRANCH  15  89
HETATM   89  O   UNK     0      23.042  44.977  20.190  0.00  0.00    -0.356 OA
HETATM   90  H   UNK     0      23.430  44.751  21.097  0.00  0.00     0.218 HD
ENDBRANCH  15  89
ENDBRANCH   9  10
ENDBRANCH   7   9
ENDBRANCH   1   7
BRANCH   4  91
HETATM   91  O   UNK     0      25.391  38.528  15.087  0.00  0.00    -0.358 OA
HETATM   92  H   UNK     0      26.115  38.042  14.575  0.00  0.00     0.217 HD
ENDBRANCH   4  91
BRANCH   5  93
HETATM   93  O   UNK     0      27.843  39.013  19.132  0.00  0.00    -0.358 OA
HETATM   94  H   UNK     0      28.547  38.350  18.835  0.00  0.00     0.217 HD
ENDBRANCH   5  93
BRANCH   6  95
HETATM   95  O   UNK     0      27.198  37.547  16.903  0.00  0.00    -0.356 OA
HETATM   96  H   UNK     0      27.078  37.072  16.018  0.00  0.00     0.218 HD
ENDBRANCH   6  95
TORSDOF 30
ENDMDL
MODEL 16
REMARK VINA RESULT:      -7.8      3.664     11.889
REMARK  30 active torsions:
REMARK  status: ('A' for Active; 'I' for Inactive)
REMARK    1  A    between atoms: C_1  and  C_7 
REMARK    2  A    between atoms: C_4  and  O_9 
REMARK    3  A    between atoms: C_5  and  O_11 
REMARK    4  A    between atoms: C_6  and  O_10 
REMARK    5  A    between atoms: C_7  and  O_78 
REMARK    6  A    between atoms: C_12  and  C_18 
REMARK    7  A    between atoms: C_15  and  O_76 
REMARK    8  A    between atoms: C_16  and  O_78 
REMARK    9  A    between atoms: C_17  and  O_77 
REMARK   10  A    between atoms: C_18  and  O_74 
REMARK   11  A    between atoms: C_19  and  O_27 
REMARK   12  A    between atoms: C_21  and  O_25 
REMARK   13  A    between atoms: C_23  and  O_26 
REMARK   14  A    between atoms: C_28  and  O_37 
REMARK   15  A    between atoms: C_30  and  O_35 
REMARK   16  A    between atoms: C_32  and  O_36 
REMARK   17  A    between atoms: O_36  and  C_67 
REMARK   18  A    between atoms: C_39  and  O_60 
REMARK   19  A    between atoms: C_41  and  O_58 
REMARK   20  A    between atoms: C_42  and  C_45 
REMARK   21  A    between atoms: C_43  and  O_59 
REMARK   22  A    between atoms: C_45  and  O_53 
REMARK   23  A    between atoms: C_47  and  O_53 
REMARK   24  A    between atoms: C_51  and  C_54 
REMARK   25  A    between atoms: C_54  and  O_74 
REMARK   26  A    between atoms: C_64  and  O_69 
REMARK   27  A    between atoms: C_65  and  C_72 
REMARK   28  A    between atoms: C_66  and  O_70 
REMARK   29  A    between atoms: C_68  and  O_71 
REMARK   30  A    between atoms: C_72  and  O_73 
ROOT
HETATM    1  C   UNK     0      21.169  31.958  22.072  0.00  0.00     0.045 A 
HETATM    2  C   UNK     0      20.307  32.452  21.104  0.00  0.00     0.057 A 
HETATM    3  C   UNK     0      20.753  30.940  22.915  0.00  0.00     0.057 A 
HETATM    4  C   UNK     0      19.030  31.928  20.980  0.00  0.00     0.102 A 
HETATM    5  C   UNK     0      19.476  30.417  22.791  0.00  0.00     0.102 A 
HETATM    6  C   UNK     0      18.615  30.911  21.825  0.00  0.00     0.132 A 
ENDROOT
BRANCH   1   7
HETATM    7  C   UNK     0      22.521  32.512  22.201  0.00  0.00     0.298 C 
HETATM    8  O   UNK     0      23.356  32.264  21.360  0.00  0.00    -0.259 OA
BRANCH   7   9
HETATM    9  O   UNK     0      22.845  33.305  23.263  0.00  0.00    -0.272 OA
BRANCH   9  10
HETATM   10  C   UNK     0      23.007  34.653  23.112  0.00  0.00     0.116 A 
HETATM   11  C   UNK     0      21.914  35.447  22.797  0.00  0.00     0.058 A 
HETATM   12  C   UNK     0      22.066  36.817  22.647  0.00  0.00     0.045 A 
HETATM   13  C   UNK     0      23.317  37.393  22.812  0.00  0.00     0.057 A 
HETATM   14  C   UNK     0      24.413  36.601  23.123  0.00  0.00     0.102 A 
HETATM   15  C   UNK     0      24.258  35.232  23.274  0.00  0.00     0.133 A 
BRANCH  12  16
HETATM   16  C   UNK     0      20.905  37.663  22.312  0.00  0.00     0.293 C 
HETATM   17  O   UNK     0      19.959  37.709  23.065  0.00  0.00    -0.259 OA
BRANCH  16  18
HETATM   18  O   UNK     0      20.883  38.377  21.153  0.00  0.00    -0.315 OA
BRANCH  18  19
HETATM   19  C   UNK     0      19.688  38.397  20.387  0.00  0.00     0.213 C 
BRANCH  19  20
HETATM   20  C   UNK     0      19.886  38.252  18.867  0.00  0.00     0.181 C 
HETATM   21  O   UNK     0      18.769  37.496  18.330  0.00  0.00    -0.348 OA
HETATM   22  C   UNK     0      18.303  37.760  17.003  0.00  0.00     0.302 C 
HETATM   23  C   UNK     0      18.043  39.248  16.912  0.00  0.00     0.219 C 
HETATM   24  C   UNK     0      19.362  39.880  16.967  0.00  0.00     0.185 C 
HETATM   25  O   UNK     0      17.425  39.668  15.704  0.00  0.00    -0.304 OA
HETATM   26  C   UNK     0      20.014  39.705  18.300  0.00  0.00     0.194 C 
HETATM   27  O   UNK     0      19.214  41.268  16.718  0.00  0.00    -0.388 OA
HETATM   28  O   UNK     0      21.380  40.054  18.092  0.00  0.00    -0.307 OA
HETATM   29  C   UNK     0      21.663  41.154  17.308  0.00  0.00     0.291 C 
HETATM   30  C   UNK     0      20.796  42.362  17.394  0.00  0.00     0.039 A 
HETATM   31  O   UNK     0      22.631  41.152  16.584  0.00  0.00    -0.260 OA
HETATM   32  C   UNK     0      19.945  42.834  16.375  0.00  0.00     0.086 A 
HETATM   33  C   UNK     0      20.865  43.054  18.594  0.00  0.00     0.054 A 
HETATM   34  C   UNK     0      19.200  43.984  16.609  0.00  0.00     0.096 A 
HETATM   35  C   UNK     0      19.789  42.248  14.990  0.00  0.00     0.013 A 
HETATM   36  H   UNK     0      19.669  41.689  15.919  0.00  0.00     0.229 HD
HETATM   37  C   UNK     0      19.282  44.661  17.813  0.00  0.00     0.129 A 
HETATM   38  C   UNK     0      20.117  44.196  18.809  0.00  0.00     0.102 A 
HETATM   39  C   UNK     0      20.780  42.592  14.078  0.00  0.00     0.110 A 
HETATM   40  C   UNK     0      18.706  41.463  14.546  0.00  0.00     0.052 A 
HETATM   41  C   UNK     0      20.710  42.188  12.754  0.00  0.00     0.133 A 
HETATM   42  C   UNK     0      19.639  41.432  12.316  0.00  0.00     0.113 A 
HETATM   43  C   UNK     0      18.652  41.072  13.218  0.00  0.00     0.058 A 
HETATM   44  C   UNK     0      17.570  41.008  15.397  0.00  0.00     0.294 C 
HETATM   45  O   UNK     0      16.769  41.815  15.811  0.00  0.00    -0.259 OA
BRANCH  22  46
HETATM   46  O   UNK     0      17.128  37.000  16.731  0.00  0.00    -0.283 OA
BRANCH  46  47
HETATM   47  C   UNK     0      17.129  35.661  17.016  0.00  0.00     0.295 C 
HETATM   48  O   UNK     0      18.147  35.027  16.858  0.00  0.00    -0.259 OA
BRANCH  47  49
HETATM   49  C   UNK     0      15.913  34.958  17.502  0.00  0.00     0.045 A 
HETATM   50  C   UNK     0      14.772  35.660  17.867  0.00  0.00     0.057 A 
HETATM   51  C   UNK     0      13.649  34.979  18.320  0.00  0.00     0.102 A 
HETATM   52  C   UNK     0      13.664  33.596  18.411  0.00  0.00     0.132 A 
HETATM   53  C   UNK     0      14.800  32.892  18.047  0.00  0.00     0.102 A 
HETATM   54  C   UNK     0      15.920  33.573  17.592  0.00  0.00     0.057 A 
BRANCH  51  55
HETATM   55  O   UNK     0      12.534  35.667  18.679  0.00  0.00    -0.358 OA
HETATM   56  H   UNK     0      12.618  36.526  19.208  0.00  0.00     0.217 HD
ENDBRANCH  51  55
BRANCH  52  57
HETATM   57  O   UNK     0      12.564  32.926  18.855  0.00  0.00    -0.356 OA
HETATM   58  H   UNK     0      12.406  32.814  19.848  0.00  0.00     0.218 HD
ENDBRANCH  52  57
BRANCH  53  59
HETATM   59  O   UNK     0      14.817  31.533  18.140  0.00  0.00    -0.358 OA
HETATM   60  H   UNK     0      15.571  31.069  18.629  0.00  0.00     0.217 HD
ENDBRANCH  53  59
ENDBRANCH  47  49
ENDBRANCH  46  47
ENDBRANCH  22  46
BRANCH  34  61
HETATM   61  O   UNK     0      18.387  44.462  15.627  0.00  0.00    -0.361 OA
HETATM   62  H   UNK     0      18.561  44.216  14.661  0.00  0.00     0.217 HD
ENDBRANCH  34  61
BRANCH  37  63
HETATM   63  O   UNK     0      18.547  45.785  18.013  0.00  0.00    -0.356 OA
HETATM   64  H   UNK     0      17.570  45.713  18.266  0.00  0.00     0.218 HD
ENDBRANCH  37  63
BRANCH  38  65
HETATM   65  O   UNK     0      20.206  44.864  19.991  0.00  0.00    -0.358 OA
HETATM   66  H   UNK     0      20.021  44.381  20.861  0.00  0.00     0.217 HD
ENDBRANCH  38  65
BRANCH  39  67
HETATM   67  O   UNK     0      21.830  43.357  14.483  0.00  0.00    -0.357 OA
HETATM   68  H   UNK     0      22.776  43.076  14.259  0.00  0.00     0.217 HD
ENDBRANCH  39  67
BRANCH  41  69
HETATM   69  O   UNK     0      21.693  42.544  11.884  0.00  0.00    -0.356 OA
HETATM   70  H   UNK     0      22.663  42.376  12.120  0.00  0.00     0.218 HD
ENDBRANCH  41  69
BRANCH  42  71
HETATM   71  O   UNK     0      19.558  41.051  11.005  0.00  0.00    -0.304 OA
BRANCH  71  72
HETATM   72  C   UNK     0      18.389  41.110  10.294  0.00  0.00     0.120 A 
HETATM   73  C   UNK     0      18.005  42.303   9.700  0.00  0.00     0.005 A 
HETATM   74  C   UNK     0      16.826  42.371   8.978  0.00  0.00     0.051 A 
HETATM   75  C   UNK     0      16.024  41.247   8.848  0.00  0.00     0.102 A 
HETATM   76  C   UNK     0      16.405  40.054   9.442  0.00  0.00     0.135 A 
HETATM   77  C   UNK     0      17.586  39.984  10.164  0.00  0.00     0.136 A 
BRANCH  73  78
HETATM   78  C   UNK     0      18.875  43.527   9.838  0.00  0.00     0.205 C 
BRANCH  78  79
HETATM   79  O   UNK     0      20.141  43.273   9.252  0.00  0.00    -0.396 OA
HETATM   80  H   UNK     0      20.411  42.326   9.022  0.00  0.00     0.209 HD
ENDBRANCH  78  79
ENDBRANCH  73  78
BRANCH  75  81
HETATM   81  O   UNK     0      14.865  41.319   8.140  0.00  0.00    -0.358 OA
HETATM   82  H   UNK     0      14.839  41.821   7.261  0.00  0.00     0.217 HD
ENDBRANCH  75  81
BRANCH  76  83
HETATM   83  O   UNK     0      15.620  38.951   9.317  0.00  0.00    -0.356 OA
HETATM   84  H   UNK     0      15.250  38.499  10.142  0.00  0.00     0.218 HD
ENDBRANCH  76  83
BRANCH  77  85
HETATM   85  O   UNK     0      17.955  38.809  10.744  0.00  0.00    -0.356 OA
HETATM   86  H   UNK     0      18.934  38.606  10.898  0.00  0.00     0.218 HD
ENDBRANCH  77  85
ENDBRANCH  71  72
ENDBRANCH  42  71
ENDBRANCH  19  20
ENDBRANCH  18  19
ENDBRANCH  16  18
ENDBRANCH  12  16
BRANCH  14  87
HETATM   87  O   UNK     0      25.641  37.165  23.280  0.00  0.00    -0.358 OA
HETATM   88  H   UNK     0      26.459  36.578  23.381  0.00  0.00     0.217 HD
ENDBRANCH  14  87
BRANCH  15  89
HETATM   89  O   UNK     0      25.330  34.454  23.580  0.00  0.00    -0.356 OA
HETATM   90  H   UNK     0      25.194  33.485  23.837  0.00  0.00     0.218 HD
ENDBRANCH  15  89
ENDBRANCH   9  10
ENDBRANCH   7   9
ENDBRANCH   1   7
BRANCH   4  91
HETATM   91  O   UNK     0      18.183  32.411  20.033  0.00  0.00    -0.358 OA
HETATM   92  H   UNK     0      17.972  33.400  19.999  0.00  0.00     0.217 HD
ENDBRANCH   4  91
BRANCH   5  93
HETATM   93  O   UNK     0      19.065  29.422  23.622  0.00  0.00    -0.358 OA
HETATM   94  H   UNK     0      19.528  29.281  24.511  0.00  0.00     0.217 HD
ENDBRANCH   5  93
BRANCH   6  95
HETATM   95  O   UNK     0      17.362  30.397  21.704  0.00  0.00    -0.356 OA
HETATM   96  H   UNK     0      17.060  29.649  22.316  0.00  0.00     0.218 HD
ENDBRANCH   6  95
TORSDOF 30
ENDMDL
MODEL 17
REMARK VINA RESULT:      -7.8      2.711     10.177
REMARK  30 active torsions:
REMARK  status: ('A' for Active; 'I' for Inactive)
REMARK    1  A    between atoms: C_1  and  C_7 
REMARK    2  A    between atoms: C_4  and  O_9 
REMARK    3  A    between atoms: C_5  and  O_11 
REMARK    4  A    between atoms: C_6  and  O_10 
REMARK    5  A    between atoms: C_7  and  O_78 
REMARK    6  A    between atoms: C_12  and  C_18 
REMARK    7  A    between atoms: C_15  and  O_76 
REMARK    8  A    between atoms: C_16  and  O_78 
REMARK    9  A    between atoms: C_17  and  O_77 
REMARK   10  A    between atoms: C_18  and  O_74 
REMARK   11  A    between atoms: C_19  and  O_27 
REMARK   12  A    between atoms: C_21  and  O_25 
REMARK   13  A    between atoms: C_23  and  O_26 
REMARK   14  A    between atoms: C_28  and  O_37 
REMARK   15  A    between atoms: C_30  and  O_35 
REMARK   16  A    between atoms: C_32  and  O_36 
REMARK   17  A    between atoms: O_36  and  C_67 
REMARK   18  A    between atoms: C_39  and  O_60 
REMARK   19  A    between atoms: C_41  and  O_58 
REMARK   20  A    between atoms: C_42  and  C_45 
REMARK   21  A    between atoms: C_43  and  O_59 
REMARK   22  A    between atoms: C_45  and  O_53 
REMARK   23  A    between atoms: C_47  and  O_53 
REMARK   24  A    between atoms: C_51  and  C_54 
REMARK   25  A    between atoms: C_54  and  O_74 
REMARK   26  A    between atoms: C_64  and  O_69 
REMARK   27  A    between atoms: C_65  and  C_72 
REMARK   28  A    between atoms: C_66  and  O_70 
REMARK   29  A    between atoms: C_68  and  O_71 
REMARK   30  A    between atoms: C_72  and  O_73 
ROOT
HETATM    1  C   UNK     0      25.414  35.501  22.054  0.00  0.00     0.045 A 
HETATM    2  C   UNK     0      24.716  36.699  22.031  0.00  0.00     0.057 A 
HETATM    3  C   UNK     0      26.314  35.204  21.043  0.00  0.00     0.057 A 
HETATM    4  C   UNK     0      24.919  37.599  20.997  0.00  0.00     0.102 A 
HETATM    5  C   UNK     0      26.515  36.104  20.009  0.00  0.00     0.102 A 
HETATM    6  C   UNK     0      25.818  37.300  19.986  0.00  0.00     0.132 A 
ENDROOT
BRANCH   1   7
HETATM    7  C   UNK     0      25.202  34.549  23.151  0.00  0.00     0.298 C 
HETATM    8  O   UNK     0      25.632  34.796  24.254  0.00  0.00    -0.259 OA
BRANCH   7   9
HETATM    9  O   UNK     0      24.521  33.386  22.934  0.00  0.00    -0.272 OA
BRANCH   9  10
HETATM   10  C   UNK     0      23.226  33.398  22.500  0.00  0.00     0.116 A 
HETATM   11  C   UNK     0      22.300  34.226  23.118  0.00  0.00     0.058 A 
HETATM   12  C   UNK     0      20.984  34.248  22.683  0.00  0.00     0.045 A 
HETATM   13  C   UNK     0      20.594  33.439  21.625  0.00  0.00     0.057 A 
HETATM   14  C   UNK     0      21.517  32.606  21.008  0.00  0.00     0.102 A 
HETATM   15  C   UNK     0      22.832  32.587  21.445  0.00  0.00     0.133 A 
BRANCH  12  16
HETATM   16  C   UNK     0      19.997  35.127  23.338  0.00  0.00     0.293 C 
HETATM   17  O   UNK     0      19.445  34.759  24.350  0.00  0.00    -0.259 OA
BRANCH  16  18
HETATM   18  O   UNK     0      19.690  36.341  22.802  0.00  0.00    -0.315 OA
BRANCH  18  19
HETATM   19  C   UNK     0      20.695  37.044  22.087  0.00  0.00     0.213 C 
BRANCH  19  20
HETATM   20  C   UNK     0      20.174  38.142  21.142  0.00  0.00     0.181 C 
HETATM   21  O   UNK     0      21.151  39.214  21.102  0.00  0.00    -0.348 OA
HETATM   22  C   UNK     0      21.317  39.981  19.905  0.00  0.00     0.302 C 
HETATM   23  C   UNK     0      21.545  38.999  18.777  0.00  0.00     0.219 C 
HETATM   24  C   UNK     0      20.267  38.311  18.593  0.00  0.00     0.185 C 
HETATM   25  O   UNK     0      21.885  39.595  17.533  0.00  0.00    -0.304 OA
HETATM   26  C   UNK     0      19.920  37.448  19.762  0.00  0.00     0.194 C 
HETATM   27  O   UNK     0      20.351  37.491  17.439  0.00  0.00    -0.388 OA
HETATM   28  O   UNK     0      18.540  37.135  19.593  0.00  0.00    -0.307 OA
HETATM   29  C   UNK     0      18.089  36.821  18.327  0.00  0.00     0.291 C 
HETATM   30  C   UNK     0      18.949  36.012  17.419  0.00  0.00     0.039 A 
HETATM   31  O   UNK     0      16.987  37.167  17.970  0.00  0.00    -0.260 OA
HETATM   32  C   UNK     0      19.557  36.478  16.236  0.00  0.00     0.086 A 
HETATM   33  C   UNK     0      19.137  34.693  17.805  0.00  0.00     0.054 A 
HETATM   34  C   UNK     0      20.330  35.594  15.493  0.00  0.00     0.096 A 
HETATM   35  C   UNK     0      19.412  37.856  15.633  0.00  0.00     0.013 A 
HETATM   36  H   UNK     0      19.732  37.655  16.656  0.00  0.00     0.229 HD
HETATM   37  C   UNK     0      20.508  34.281  15.893  0.00  0.00     0.129 A 
HETATM   38  C   UNK     0      19.910  33.828  17.053  0.00  0.00     0.102 A 
HETATM   39  C   UNK     0      18.246  38.075  14.908  0.00  0.00     0.110 A 
HETATM   40  C   UNK     0      20.377  38.882  15.684  0.00  0.00     0.052 A 
HETATM   41  C   UNK     0      18.029  39.268  14.237  0.00  0.00     0.133 A 
HETATM   42  C   UNK     0      18.984  40.267  14.274  0.00  0.00     0.113 A 
HETATM   43  C   UNK     0      20.144  40.066  15.003  0.00  0.00     0.058 A 
HETATM   44  C   UNK     0      21.672  38.807  16.418  0.00  0.00     0.294 C 
HETATM   45  O   UNK     0      22.540  38.059  16.028  0.00  0.00    -0.259 OA
BRANCH  22  46
HETATM   46  O   UNK     0      22.410  40.887  20.047  0.00  0.00    -0.283 OA
BRANCH  46  47
HETATM   47  C   UNK     0      22.154  42.231  20.054  0.00  0.00     0.295 C 
HETATM   48  O   UNK     0      21.165  42.639  20.619  0.00  0.00    -0.259 OA
BRANCH  47  49
HETATM   49  C   UNK     0      23.046  43.206  19.374  0.00  0.00     0.045 A 
HETATM   50  C   UNK     0      23.354  44.428  19.958  0.00  0.00     0.057 A 
HETATM   51  C   UNK     0      24.189  45.323  19.301  0.00  0.00     0.102 A 
HETATM   52  C   UNK     0      24.717  45.002  18.060  0.00  0.00     0.132 A 
HETATM   53  C   UNK     0      24.413  43.783  17.475  0.00  0.00     0.102 A 
HETATM   54  C   UNK     0      23.580  42.888  18.134  0.00  0.00     0.057 A 
BRANCH  51  55
HETATM   55  O   UNK     0      24.489  46.520  19.872  0.00  0.00    -0.358 OA
HETATM   56  H   UNK     0      25.010  47.213  19.349  0.00  0.00     0.217 HD
ENDBRANCH  51  55
BRANCH  52  57
HETATM   57  O   UNK     0      25.536  45.878  17.415  0.00  0.00    -0.356 OA
HETATM   58  H   UNK     0      26.050  45.582  16.595  0.00  0.00     0.218 HD
ENDBRANCH  52  57
BRANCH  53  59
HETATM   59  O   UNK     0      24.928  43.467  16.255  0.00  0.00    -0.358 OA
HETATM   60  H   UNK     0      25.214  44.203  15.622  0.00  0.00     0.217 HD
ENDBRANCH  53  59
ENDBRANCH  47  49
ENDBRANCH  46  47
ENDBRANCH  22  46
BRANCH  34  61
HETATM   61  O   UNK     0      20.910  36.024  14.339  0.00  0.00    -0.361 OA
HETATM   62  H   UNK     0      20.713  35.551  13.466  0.00  0.00     0.217 HD
ENDBRANCH  34  61
BRANCH  37  63
HETATM   63  O   UNK     0      21.264  33.437  15.145  0.00  0.00    -0.356 OA
HETATM   64  H   UNK     0      20.883  33.031  14.300  0.00  0.00     0.218 HD
ENDBRANCH  37  63
BRANCH  38  65
HETATM   65  O   UNK     0      20.075  32.536  17.446  0.00  0.00    -0.358 OA
HETATM   66  H   UNK     0      20.751  32.307  18.164  0.00  0.00     0.217 HD
ENDBRANCH  38  65
BRANCH  39  67
HETATM   67  O   UNK     0      17.305  37.094  14.838  0.00  0.00    -0.357 OA
HETATM   68  H   UNK     0      17.424  36.240  15.368  0.00  0.00     0.217 HD
ENDBRANCH  39  67
BRANCH  41  69
HETATM   69  O   UNK     0      16.881  39.450  13.533  0.00  0.00    -0.356 OA
HETATM   70  H   UNK     0      15.989  39.452  14.012  0.00  0.00     0.218 HD
ENDBRANCH  41  69
BRANCH  42  71
HETATM   71  O   UNK     0      18.781  41.436  13.594  0.00  0.00    -0.304 OA
BRANCH  71  72
HETATM   72  C   UNK     0      19.077  42.659  14.133  0.00  0.00     0.120 A 
HETATM   73  C   UNK     0      20.021  43.469  13.522  0.00  0.00     0.005 A 
HETATM   74  C   UNK     0      20.324  44.709  14.059  0.00  0.00     0.051 A 
HETATM   75  C   UNK     0      19.686  45.143  15.210  0.00  0.00     0.102 A 
HETATM   76  C   UNK     0      18.741  44.334  15.823  0.00  0.00     0.135 A 
HETATM   77  C   UNK     0      18.436  43.094  15.286  0.00  0.00     0.136 A 
BRANCH  73  78
HETATM   78  C   UNK     0      20.718  43.001  12.269  0.00  0.00     0.205 C 
BRANCH  78  79
HETATM   79  O   UNK     0      21.663  41.997  12.604  0.00  0.00    -0.396 OA
HETATM   80  H   UNK     0      22.228  41.573  11.880  0.00  0.00     0.209 HD
ENDBRANCH  78  79
ENDBRANCH  73  78
BRANCH  75  81
HETATM   81  O   UNK     0      19.988  46.361  15.736  0.00  0.00    -0.358 OA
HETATM   82  H   UNK     0      20.605  46.988  15.237  0.00  0.00     0.217 HD
ENDBRANCH  75  81
BRANCH  76  83
HETATM   83  O   UNK     0      18.114  44.758  16.953  0.00  0.00    -0.356 OA
HETATM   84  H   UNK     0      17.106  44.703  17.022  0.00  0.00     0.218 HD
ENDBRANCH  76  83
BRANCH  77  85
HETATM   85  O   UNK     0      17.507  42.305  15.893  0.00  0.00    -0.356 OA
HETATM   86  H   UNK     0      17.713  41.876  16.786  0.00  0.00     0.218 HD
ENDBRANCH  77  85
ENDBRANCH  71  72
ENDBRANCH  42  71
ENDBRANCH  19  20
ENDBRANCH  18  19
ENDBRANCH  16  18
ENDBRANCH  12  16
BRANCH  14  87
HETATM   87  O   UNK     0      21.134  31.809  19.975  0.00  0.00    -0.358 OA
HETATM   88  H   UNK     0      20.802  32.222  19.113  0.00  0.00     0.217 HD
ENDBRANCH  14  87
BRANCH  15  89
HETATM   89  O   UNK     0      23.739  31.773  20.841  0.00  0.00    -0.356 OA
HETATM   90  H   UNK     0      24.249  31.091  21.387  0.00  0.00     0.218 HD
ENDBRANCH  15  89
ENDBRANCH   9  10
ENDBRANCH   7   9
ENDBRANCH   1   7
BRANCH   4  91
HETATM   91  O   UNK     0      24.235  38.774  20.971  0.00  0.00    -0.358 OA
HETATM   92  H   UNK     0      24.062  39.240  20.090  0.00  0.00     0.217 HD
ENDBRANCH   4  91
BRANCH   5  93
HETATM   93  O   UNK     0      27.395  35.810  19.013  0.00  0.00    -0.358 OA
HETATM   94  H   UNK     0      27.615  34.845  18.801  0.00  0.00     0.217 HD
ENDBRANCH   5  93
BRANCH   6  95
HETATM   95  O   UNK     0      26.016  38.183  18.970  0.00  0.00    -0.356 OA
HETATM   96  H   UNK     0      25.252  38.763  18.648  0.00  0.00     0.218 HD
ENDBRANCH   6  95
TORSDOF 30
ENDMDL
MODEL 18
REMARK VINA RESULT:      -7.8      2.221     11.122
REMARK  30 active torsions:
REMARK  status: ('A' for Active; 'I' for Inactive)
REMARK    1  A    between atoms: C_1  and  C_7 
REMARK    2  A    between atoms: C_4  and  O_9 
REMARK    3  A    between atoms: C_5  and  O_11 
REMARK    4  A    between atoms: C_6  and  O_10 
REMARK    5  A    between atoms: C_7  and  O_78 
REMARK    6  A    between atoms: C_12  and  C_18 
REMARK    7  A    between atoms: C_15  and  O_76 
REMARK    8  A    between atoms: C_16  and  O_78 
REMARK    9  A    between atoms: C_17  and  O_77 
REMARK   10  A    between atoms: C_18  and  O_74 
REMARK   11  A    between atoms: C_19  and  O_27 
REMARK   12  A    between atoms: C_21  and  O_25 
REMARK   13  A    between atoms: C_23  and  O_26 
REMARK   14  A    between atoms: C_28  and  O_37 
REMARK   15  A    between atoms: C_30  and  O_35 
REMARK   16  A    between atoms: C_32  and  O_36 
REMARK   17  A    between atoms: O_36  and  C_67 
REMARK   18  A    between atoms: C_39  and  O_60 
REMARK   19  A    between atoms: C_41  and  O_58 
REMARK   20  A    between atoms: C_42  and  C_45 
REMARK   21  A    between atoms: C_43  and  O_59 
REMARK   22  A    between atoms: C_45  and  O_53 
REMARK   23  A    between atoms: C_47  and  O_53 
REMARK   24  A    between atoms: C_51  and  C_54 
REMARK   25  A    between atoms: C_54  and  O_74 
REMARK   26  A    between atoms: C_64  and  O_69 
REMARK   27  A    between atoms: C_65  and  C_72 
REMARK   28  A    between atoms: C_66  and  O_70 
REMARK   29  A    between atoms: C_68  and  O_71 
REMARK   30  A    between atoms: C_72  and  O_73 
ROOT
HETATM    1  C   UNK     0      25.844  36.556  21.022  0.00  0.00     0.045 A 
HETATM    2  C   UNK     0      26.817  35.883  20.295  0.00  0.00     0.057 A 
HETATM    3  C   UNK     0      25.697  37.926  20.879  0.00  0.00     0.057 A 
HETATM    4  C   UNK     0      27.640  36.583  19.428  0.00  0.00     0.102 A 
HETATM    5  C   UNK     0      26.522  38.624  20.013  0.00  0.00     0.102 A 
HETATM    6  C   UNK     0      27.493  37.953  19.288  0.00  0.00     0.132 A 
ENDROOT
BRANCH   1   7
HETATM    7  C   UNK     0      24.970  35.815  21.938  0.00  0.00     0.298 C 
HETATM    8  O   UNK     0      25.229  35.778  23.119  0.00  0.00    -0.259 OA
BRANCH   7   9
HETATM    9  O   UNK     0      23.866  35.167  21.466  0.00  0.00    -0.272 OA
BRANCH   9  10
HETATM   10  C   UNK     0      22.629  35.407  21.993  0.00  0.00     0.116 A 
HETATM   11  C   UNK     0      21.836  36.413  21.458  0.00  0.00     0.058 A 
HETATM   12  C   UNK     0      20.577  36.663  21.982  0.00  0.00     0.045 A 
HETATM   13  C   UNK     0      20.110  35.903  23.045  0.00  0.00     0.057 A 
HETATM   14  C   UNK     0      20.902  34.900  23.585  0.00  0.00     0.102 A 
HETATM   15  C   UNK     0      22.160  34.652  23.058  0.00  0.00     0.133 A 
BRANCH  12  16
HETATM   16  C   UNK     0      19.733  37.732  21.415  0.00  0.00     0.293 C 
HETATM   17  O   UNK     0      18.811  38.173  22.062  0.00  0.00    -0.259 OA
BRANCH  16  18
HETATM   18  O   UNK     0      19.973  38.210  20.163  0.00  0.00    -0.315 OA
BRANCH  18  19
HETATM   19  C   UNK     0      18.999  37.994  19.153  0.00  0.00     0.213 C 
BRANCH  19  20
HETATM   20  C   UNK     0      19.460  38.327  17.722  0.00  0.00     0.181 C 
HETATM   21  O   UNK     0      18.338  38.128  16.823  0.00  0.00    -0.348 OA
HETATM   22  C   UNK     0      18.212  38.942  15.652  0.00  0.00     0.302 C 
HETATM   23  C   UNK     0      18.294  40.384  16.104  0.00  0.00     0.219 C 
HETATM   24  C   UNK     0      19.679  40.581  16.536  0.00  0.00     0.185 C 
HETATM   25  O   UNK     0      18.031  41.339  15.086  0.00  0.00    -0.304 OA
HETATM   26  C   UNK     0      20.001  39.795  17.766  0.00  0.00     0.194 C 
HETATM   27  O   UNK     0      19.878  41.956  16.816  0.00  0.00    -0.388 OA
HETATM   28  O   UNK     0      21.423  39.813  17.853  0.00  0.00    -0.307 OA
HETATM   29  C   UNK     0      22.081  40.996  17.579  0.00  0.00     0.291 C 
HETATM   30  C   UNK     0      21.488  42.288  18.023  0.00  0.00     0.039 A 
HETATM   31  O   UNK     0      23.151  40.980  17.018  0.00  0.00    -0.260 OA
HETATM   32  C   UNK     0      20.975  43.288  17.172  0.00  0.00     0.086 A 
HETATM   33  C   UNK     0      21.462  42.485  19.395  0.00  0.00     0.054 A 
HETATM   34  C   UNK     0      20.458  44.445  17.743  0.00  0.00     0.096 A 
HETATM   35  C   UNK     0      20.978  43.272  15.661  0.00  0.00     0.013 A 
HETATM   36  H   UNK     0      20.562  42.485  16.291  0.00  0.00     0.229 HD
HETATM   37  C   UNK     0      20.439  44.625  19.115  0.00  0.00     0.129 A 
HETATM   38  C   UNK     0      20.943  43.643  19.945  0.00  0.00     0.102 A 
HETATM   39  C   UNK     0      22.180  43.627  15.059  0.00  0.00     0.110 A 
HETATM   40  C   UNK     0      19.865  43.007  14.839  0.00  0.00     0.052 A 
HETATM   41  C   UNK     0      22.292  43.730  13.682  0.00  0.00     0.133 A 
HETATM   42  C   UNK     0      21.194  43.486  12.877  0.00  0.00     0.113 A 
HETATM   43  C   UNK     0      19.995  43.120  13.465  0.00  0.00     0.058 A 
HETATM   44  C   UNK     0      18.513  42.612  15.327  0.00  0.00     0.294 C 
HETATM   45  O   UNK     0      17.833  43.414  15.927  0.00  0.00    -0.259 OA
BRANCH  22  46
HETATM   46  O   UNK     0      16.981  38.665  14.988  0.00  0.00    -0.283 OA
BRANCH  46  47
HETATM   47  C   UNK     0      16.951  38.687  13.620  0.00  0.00     0.295 C 
HETATM   48  O   UNK     0      17.623  37.892  13.005  0.00  0.00    -0.259 OA
BRANCH  47  49
HETATM   49  C   UNK     0      16.128  39.667  12.865  0.00  0.00     0.045 A 
HETATM   50  C   UNK     0      15.231  40.506  13.514  0.00  0.00     0.057 A 
HETATM   51  C   UNK     0      14.472  41.412  12.785  0.00  0.00     0.102 A 
HETATM   52  C   UNK     0      14.604  41.481  11.407  0.00  0.00     0.132 A 
HETATM   53  C   UNK     0      15.498  40.647  10.756  0.00  0.00     0.102 A 
HETATM   54  C   UNK     0      16.258  39.744  11.486  0.00  0.00     0.057 A 
BRANCH  51  55
HETATM   55  O   UNK     0      13.593  42.232  13.420  0.00  0.00    -0.358 OA
HETATM   56  H   UNK     0      12.983  41.860  14.137  0.00  0.00     0.217 HD
ENDBRANCH  51  55
BRANCH  52  57
HETATM   57  O   UNK     0      13.860  42.369  10.690  0.00  0.00    -0.356 OA
HETATM   58  H   UNK     0      14.197  42.711   9.800  0.00  0.00     0.218 HD
ENDBRANCH  52  57
BRANCH  53  59
HETATM   59  O   UNK     0      15.626  40.711   9.402  0.00  0.00    -0.358 OA
HETATM   60  H   UNK     0      14.893  41.131   8.844  0.00  0.00     0.217 HD
ENDBRANCH  53  59
ENDBRANCH  47  49
ENDBRANCH  46  47
ENDBRANCH  22  46
BRANCH  34  61
HETATM   61  O   UNK     0      19.975  45.428  16.934  0.00  0.00    -0.361 OA
HETATM   62  H   UNK     0      19.145  45.263  16.377  0.00  0.00     0.217 HD
ENDBRANCH  34  61
BRANCH  37  63
HETATM   63  O   UNK     0      19.932  45.768  19.645  0.00  0.00    -0.356 OA
HETATM   64  H   UNK     0      20.301  46.665  19.359  0.00  0.00     0.218 HD
ENDBRANCH  37  63
BRANCH  38  65
HETATM   65  O   UNK     0      20.934  43.819  21.294  0.00  0.00    -0.358 OA
HETATM   66  H   UNK     0      20.102  44.167  21.754  0.00  0.00     0.217 HD
ENDBRANCH  38  65
BRANCH  39  67
HETATM   67  O   UNK     0      23.266  43.896  15.834  0.00  0.00    -0.357 OA
HETATM   68  H   UNK     0      24.087  44.321  15.424  0.00  0.00     0.217 HD
ENDBRANCH  39  67
BRANCH  41  69
HETATM   69  O   UNK     0      23.480  44.083  13.123  0.00  0.00    -0.356 OA
HETATM   70  H   UNK     0      24.223  43.401  13.042  0.00  0.00     0.218 HD
ENDBRANCH  41  69
BRANCH  42  71
HETATM   71  O   UNK     0      21.297  43.610  11.519  0.00  0.00    -0.304 OA
BRANCH  71  72
HETATM   72  C   UNK     0      20.588  42.820  10.655  0.00  0.00     0.120 A 
HETATM   73  C   UNK     0      21.064  41.559  10.329  0.00  0.00     0.005 A 
HETATM   74  C   UNK     0      20.353  40.753   9.457  0.00  0.00     0.051 A 
HETATM   75  C   UNK     0      19.163  41.203   8.905  0.00  0.00     0.102 A 
HETATM   76  C   UNK     0      18.686  42.464   9.229  0.00  0.00     0.135 A 
HETATM   77  C   UNK     0      19.396  43.272  10.103  0.00  0.00     0.136 A 
BRANCH  73  78
HETATM   78  C   UNK     0      22.357  41.064  10.927  0.00  0.00     0.205 C 
BRANCH  78  79
HETATM   79  O   UNK     0      23.377  42.024  10.702  0.00  0.00    -0.396 OA
HETATM   80  H   UNK     0      23.432  42.505   9.814  0.00  0.00     0.209 HD
ENDBRANCH  78  79
ENDBRANCH  73  78
BRANCH  75  81
HETATM   81  O   UNK     0      18.468  40.409   8.047  0.00  0.00    -0.358 OA
HETATM   82  H   UNK     0      18.630  40.479   7.050  0.00  0.00     0.217 HD
ENDBRANCH  75  81
BRANCH  76  83
HETATM   83  O   UNK     0      17.521  42.909   8.688  0.00  0.00    -0.356 OA
HETATM   84  H   UNK     0      17.518  43.328   7.768  0.00  0.00     0.218 HD
ENDBRANCH  76  83
BRANCH  77  85
HETATM   85  O   UNK     0      18.922  44.509  10.417  0.00  0.00    -0.356 OA
HETATM   86  H   UNK     0      19.452  45.114  11.031  0.00  0.00     0.218 HD
ENDBRANCH  77  85
ENDBRANCH  71  72
ENDBRANCH  42  71
ENDBRANCH  19  20
ENDBRANCH  18  19
ENDBRANCH  16  18
ENDBRANCH  12  16
BRANCH  14  87
HETATM   87  O   UNK     0      20.446  34.159  24.630  0.00  0.00    -0.358 OA
HETATM   88  H   UNK     0      19.955  33.291  24.459  0.00  0.00     0.217 HD
ENDBRANCH  14  87
BRANCH  15  89
HETATM   89  O   UNK     0      22.937  33.668  23.585  0.00  0.00    -0.356 OA
HETATM   90  H   UNK     0      23.128  32.832  23.047  0.00  0.00     0.218 HD
ENDBRANCH  15  89
ENDBRANCH   9  10
ENDBRANCH   7   9
ENDBRANCH   1   7
BRANCH   4  91
HETATM   91  O   UNK     0      28.595  35.926  18.716  0.00  0.00    -0.358 OA
HETATM   92  H   UNK     0      28.332  35.181  18.085  0.00  0.00     0.217 HD
ENDBRANCH   4  91
BRANCH   5  93
HETATM   93  O   UNK     0      26.383  39.971  19.876  0.00  0.00    -0.358 OA
HETATM   94  H   UNK     0      26.430  40.394  18.958  0.00  0.00     0.217 HD
ENDBRANCH   5  93
BRANCH   6  95
HETATM   95  O   UNK     0      28.303  38.639  18.438  0.00  0.00    -0.356 OA
HETATM   96  H   UNK     0      28.171  38.560  17.438  0.00  0.00     0.218 HD
ENDBRANCH   6  95
TORSDOF 30
ENDMDL
MODEL 19
REMARK VINA RESULT:      -7.8     12.936     20.136
REMARK  30 active torsions:
REMARK  status: ('A' for Active; 'I' for Inactive)
REMARK    1  A    between atoms: C_1  and  C_7 
REMARK    2  A    between atoms: C_4  and  O_9 
REMARK    3  A    between atoms: C_5  and  O_11 
REMARK    4  A    between atoms: C_6  and  O_10 
REMARK    5  A    between atoms: C_7  and  O_78 
REMARK    6  A    between atoms: C_12  and  C_18 
REMARK    7  A    between atoms: C_15  and  O_76 
REMARK    8  A    between atoms: C_16  and  O_78 
REMARK    9  A    between atoms: C_17  and  O_77 
REMARK   10  A    between atoms: C_18  and  O_74 
REMARK   11  A    between atoms: C_19  and  O_27 
REMARK   12  A    between atoms: C_21  and  O_25 
REMARK   13  A    between atoms: C_23  and  O_26 
REMARK   14  A    between atoms: C_28  and  O_37 
REMARK   15  A    between atoms: C_30  and  O_35 
REMARK   16  A    between atoms: C_32  and  O_36 
REMARK   17  A    between atoms: O_36  and  C_67 
REMARK   18  A    between atoms: C_39  and  O_60 
REMARK   19  A    between atoms: C_41  and  O_58 
REMARK   20  A    between atoms: C_42  and  C_45 
REMARK   21  A    between atoms: C_43  and  O_59 
REMARK   22  A    between atoms: C_45  and  O_53 
REMARK   23  A    between atoms: C_47  and  O_53 
REMARK   24  A    between atoms: C_51  and  C_54 
REMARK   25  A    between atoms: C_54  and  O_74 
REMARK   26  A    between atoms: C_64  and  O_69 
REMARK   27  A    between atoms: C_65  and  C_72 
REMARK   28  A    between atoms: C_66  and  O_70 
REMARK   29  A    between atoms: C_68  and  O_71 
REMARK   30  A    between atoms: C_72  and  O_73 
ROOT
HETATM    1  C   UNK     0       2.168  29.123  11.354  0.00  0.00     0.045 A 
HETATM    2  C   UNK     0       2.722  30.388  11.223  0.00  0.00     0.057 A 
HETATM    3  C   UNK     0       2.878  28.009  10.935  0.00  0.00     0.057 A 
HETATM    4  C   UNK     0       3.984  30.538  10.672  0.00  0.00     0.102 A 
HETATM    5  C   UNK     0       4.140  28.161  10.383  0.00  0.00     0.102 A 
HETATM    6  C   UNK     0       4.692  29.424  10.252  0.00  0.00     0.132 A 
ENDROOT
BRANCH   1   7
HETATM    7  C   UNK     0       0.832  28.964  11.940  0.00  0.00     0.298 C 
HETATM    8  O   UNK     0       0.637  28.104  12.768  0.00  0.00    -0.259 OA
BRANCH   7   9
HETATM    9  O   UNK     0      -0.192  29.780  11.556  0.00  0.00    -0.272 OA
BRANCH   9  10
HETATM   10  C   UNK     0      -0.866  30.542  12.467  0.00  0.00     0.116 A 
HETATM   11  C   UNK     0      -0.252  31.656  13.022  0.00  0.00     0.058 A 
HETATM   12  C   UNK     0      -0.929  32.439  13.944  0.00  0.00     0.045 A 
HETATM   13  C   UNK     0      -2.225  32.104  14.313  0.00  0.00     0.057 A 
HETATM   14  C   UNK     0      -2.839  30.988  13.764  0.00  0.00     0.102 A 
HETATM   15  C   UNK     0      -2.160  30.208  12.841  0.00  0.00     0.133 A 
BRANCH  12  16
HETATM   16  C   UNK     0      -0.279  33.624  14.535  0.00  0.00     0.293 C 
HETATM   17  O   UNK     0      -0.502  33.917  15.688  0.00  0.00    -0.259 OA
BRANCH  16  18
HETATM   18  O   UNK     0       0.553  34.399  13.787  0.00  0.00    -0.315 OA
BRANCH  18  19
HETATM   19  C   UNK     0       1.096  35.575  14.370  0.00  0.00     0.213 C 
BRANCH  19  20
HETATM   20  C   UNK     0       2.623  35.558  14.569  0.00  0.00     0.181 C 
HETATM   21  O   UNK     0       3.108  34.223  14.273  0.00  0.00    -0.348 OA
HETATM   22  C   UNK     0       4.415  34.047  13.717  0.00  0.00     0.302 C 
HETATM   23  C   UNK     0       4.500  34.937  12.495  0.00  0.00     0.219 C 
HETATM   24  C   UNK     0       4.504  36.308  13.009  0.00  0.00     0.185 C 
HETATM   25  O   UNK     0       5.682  34.773  11.725  0.00  0.00    -0.304 OA
HETATM   26  C   UNK     0       3.199  36.676  13.637  0.00  0.00     0.194 C 
HETATM   27  O   UNK     0       4.751  37.197  11.933  0.00  0.00    -0.388 OA
HETATM   28  O   UNK     0       3.467  37.866  14.373  0.00  0.00    -0.307 OA
HETATM   29  C   UNK     0       4.266  38.830  13.792  0.00  0.00     0.291 C 
HETATM   30  C   UNK     0       4.147  39.103  12.332  0.00  0.00     0.039 A 
HETATM   31  O   UNK     0       5.031  39.476  14.469  0.00  0.00    -0.260 OA
HETATM   32  C   UNK     0       5.131  38.820  11.363  0.00  0.00     0.086 A 
HETATM   33  C   UNK     0       2.954  39.689  11.937  0.00  0.00     0.054 A 
HETATM   34  C   UNK     0       4.869  39.141  10.036  0.00  0.00     0.096 A 
HETATM   35  C   UNK     0       6.506  38.246  11.618  0.00  0.00     0.013 A 
HETATM   36  H   UNK     0       5.570  37.790  11.945  0.00  0.00     0.229 HD
HETATM   37  C   UNK     0       3.672  39.725   9.660  0.00  0.00     0.129 A 
HETATM   38  C   UNK     0       2.711  40.001  10.612  0.00  0.00     0.102 A 
HETATM   39  C   UNK     0       7.461  39.150  12.066  0.00  0.00     0.110 A 
HETATM   40  C   UNK     0       6.900  36.916  11.369  0.00  0.00     0.052 A 
HETATM   41  C   UNK     0       8.779  38.768  12.259  0.00  0.00     0.133 A 
HETATM   42  C   UNK     0       9.168  37.467  11.998  0.00  0.00     0.113 A 
HETATM   43  C   UNK     0       8.223  36.554  11.563  0.00  0.00     0.058 A 
HETATM   44  C   UNK     0       5.999  35.829  10.891  0.00  0.00     0.294 C 
HETATM   45  O   UNK     0       5.554  35.869   9.767  0.00  0.00    -0.259 OA
BRANCH  22  46
HETATM   46  O   UNK     0       4.633  32.677  13.390  0.00  0.00    -0.283 OA
BRANCH  46  47
HETATM   47  C   UNK     0       5.809  32.089  13.768  0.00  0.00     0.295 C 
HETATM   48  O   UNK     0       6.104  31.011  13.304  0.00  0.00    -0.259 OA
BRANCH  47  49
HETATM   49  C   UNK     0       6.732  32.727  14.743  0.00  0.00     0.045 A 
HETATM   50  C   UNK     0       7.734  33.593  14.326  0.00  0.00     0.057 A 
HETATM   51  C   UNK     0       8.585  34.174  15.257  0.00  0.00     0.102 A 
HETATM   52  C   UNK     0       8.439  33.891  16.606  0.00  0.00     0.132 A 
HETATM   53  C   UNK     0       7.439  33.028  17.026  0.00  0.00     0.102 A 
HETATM   54  C   UNK     0       6.589  32.450  16.095  0.00  0.00     0.057 A 
BRANCH  51  55
HETATM   55  O   UNK     0       9.567  35.020  14.848  0.00  0.00    -0.358 OA
HETATM   56  H   UNK     0      10.516  34.683  14.749  0.00  0.00     0.217 HD
ENDBRANCH  51  55
BRANCH  52  57
HETATM   57  O   UNK     0       9.273  34.460  17.521  0.00  0.00    -0.356 OA
HETATM   58  H   UNK     0      10.141  34.884  17.220  0.00  0.00     0.218 HD
ENDBRANCH  52  57
BRANCH  53  59
HETATM   59  O   UNK     0       7.297  32.746  18.351  0.00  0.00    -0.358 OA
HETATM   60  H   UNK     0       7.060  31.807  18.646  0.00  0.00     0.217 HD
ENDBRANCH  53  59
ENDBRANCH  47  49
ENDBRANCH  46  47
ENDBRANCH  22  46
BRANCH  34  61
HETATM   61  O   UNK     0       5.816  38.890   9.091  0.00  0.00    -0.361 OA
HETATM   62  H   UNK     0       6.625  38.327   9.322  0.00  0.00     0.217 HD
ENDBRANCH  34  61
BRANCH  37  63
HETATM   63  O   UNK     0       3.444  40.032   8.357  0.00  0.00    -0.356 OA
HETATM   64  H   UNK     0       2.900  39.406   7.777  0.00  0.00     0.218 HD
ENDBRANCH  37  63
BRANCH  38  65
HETATM   65  O   UNK     0       1.536  40.582  10.247  0.00  0.00    -0.358 OA
HETATM   66  H   UNK     0       1.287  40.652   9.269  0.00  0.00     0.217 HD
ENDBRANCH  38  65
BRANCH  39  67
HETATM   67  O   UNK     0       7.104  40.442  12.304  0.00  0.00    -0.357 OA
HETATM   68  H   UNK     0       7.162  41.128  11.563  0.00  0.00     0.217 HD
ENDBRANCH  39  67
BRANCH  41  69
HETATM   69  O   UNK     0       9.691  39.677  12.694  0.00  0.00    -0.356 OA
HETATM   70  H   UNK     0      10.392  39.406  13.373  0.00  0.00     0.218 HD
ENDBRANCH  41  69
BRANCH  42  71
HETATM   71  O   UNK     0      10.473  37.094  12.166  0.00  0.00    -0.304 OA
BRANCH  71  72
HETATM   72  C   UNK     0      11.167  36.400  11.212  0.00  0.00     0.120 A 
HETATM   73  C   UNK     0      11.781  37.085  10.175  0.00  0.00     0.005 A 
HETATM   74  C   UNK     0      12.486  36.390   9.206  0.00  0.00     0.051 A 
HETATM   75  C   UNK     0      12.579  35.009   9.270  0.00  0.00     0.102 A 
HETATM   76  C   UNK     0      11.965  34.322  10.306  0.00  0.00     0.135 A 
HETATM   77  C   UNK     0      11.260  35.015  11.277  0.00  0.00     0.136 A 
BRANCH  73  78
HETATM   78  C   UNK     0      11.683  38.587  10.102  0.00  0.00     0.205 C 
BRANCH  78  79
HETATM   79  O   UNK     0      12.244  39.153  11.276  0.00  0.00    -0.396 OA
HETATM   80  H   UNK     0      11.645  39.419  12.046  0.00  0.00     0.209 HD
ENDBRANCH  78  79
ENDBRANCH  73  78
BRANCH  75  81
HETATM   81  O   UNK     0      13.271  34.330   8.315  0.00  0.00    -0.358 OA
HETATM   82  H   UNK     0      12.905  34.267   7.373  0.00  0.00     0.217 HD
ENDBRANCH  75  81
BRANCH  76  83
HETATM   83  O   UNK     0      12.054  32.967  10.370  0.00  0.00    -0.356 OA
HETATM   84  H   UNK     0      12.314  32.438   9.548  0.00  0.00     0.218 HD
ENDBRANCH  76  83
BRANCH  77  85
HETATM   85  O   UNK     0      10.660  34.335  12.291  0.00  0.00    -0.356 OA
HETATM   86  H   UNK     0      10.847  34.590  13.253  0.00  0.00     0.218 HD
ENDBRANCH  77  85
ENDBRANCH  71  72
ENDBRANCH  42  71
ENDBRANCH  19  20
ENDBRANCH  18  19
ENDBRANCH  16  18
ENDBRANCH  12  16
BRANCH  14  87
HETATM   87  O   UNK     0      -4.106  30.657  14.130  0.00  0.00    -0.358 OA
HETATM   88  H   UNK     0      -4.869  31.297  13.948  0.00  0.00     0.217 HD
ENDBRANCH  14  87
BRANCH  15  89
HETATM   89  O   UNK     0      -2.761  29.115  12.300  0.00  0.00    -0.356 OA
HETATM   90  H   UNK     0      -3.689  28.846  12.602  0.00  0.00     0.218 HD
ENDBRANCH  15  89
ENDBRANCH   9  10
ENDBRANCH   7   9
ENDBRANCH   1   7
BRANCH   4  91
HETATM   91  O   UNK     0       4.528  31.777  10.542  0.00  0.00    -0.358 OA
HETATM   92  H   UNK     0       5.490  31.939  10.813  0.00  0.00     0.217 HD
ENDBRANCH   4  91
BRANCH   5  93
HETATM   93  O   UNK     0       4.836  27.068   9.966  0.00  0.00    -0.358 OA
HETATM   94  H   UNK     0       4.369  26.344   9.434  0.00  0.00     0.217 HD
ENDBRANCH   5  93
BRANCH   6  95
HETATM   95  O   UNK     0       5.931  29.571   9.710  0.00  0.00    -0.356 OA
HETATM   96  H   UNK     0       6.754  29.461  10.289  0.00  0.00     0.218 HD
ENDBRANCH   6  95
TORSDOF 30
ENDMDL
MODEL 20
REMARK VINA RESULT:      -7.8      9.809     15.843
REMARK  30 active torsions:
REMARK  status: ('A' for Active; 'I' for Inactive)
REMARK    1  A    between atoms: C_1  and  C_7 
REMARK    2  A    between atoms: C_4  and  O_9 
REMARK    3  A    between atoms: C_5  and  O_11 
REMARK    4  A    between atoms: C_6  and  O_10 
REMARK    5  A    between atoms: C_7  and  O_78 
REMARK    6  A    between atoms: C_12  and  C_18 
REMARK    7  A    between atoms: C_15  and  O_76 
REMARK    8  A    between atoms: C_16  and  O_78 
REMARK    9  A    between atoms: C_17  and  O_77 
REMARK   10  A    between atoms: C_18  and  O_74 
REMARK   11  A    between atoms: C_19  and  O_27 
REMARK   12  A    between atoms: C_21  and  O_25 
REMARK   13  A    between atoms: C_23  and  O_26 
REMARK   14  A    between atoms: C_28  and  O_37 
REMARK   15  A    between atoms: C_30  and  O_35 
REMARK   16  A    between atoms: C_32  and  O_36 
REMARK   17  A    between atoms: O_36  and  C_67 
REMARK   18  A    between atoms: C_39  and  O_60 
REMARK   19  A    between atoms: C_41  and  O_58 
REMARK   20  A    between atoms: C_42  and  C_45 
REMARK   21  A    between atoms: C_43  and  O_59 
REMARK   22  A    between atoms: C_45  and  O_53 
REMARK   23  A    between atoms: C_47  and  O_53 
REMARK   24  A    between atoms: C_51  and  C_54 
REMARK   25  A    between atoms: C_54  and  O_74 
REMARK   26  A    between atoms: C_64  and  O_69 
REMARK   27  A    between atoms: C_65  and  C_72 
REMARK   28  A    between atoms: C_66  and  O_70 
REMARK   29  A    between atoms: C_68  and  O_71 
REMARK   30  A    between atoms: C_72  and  O_73 
ROOT
HETATM    1  C   UNK     0       6.999  37.777  10.420  0.00  0.00     0.045 A 
HETATM    2  C   UNK     0       5.768  38.305  10.058  0.00  0.00     0.057 A 
HETATM    3  C   UNK     0       7.864  38.517  11.209  0.00  0.00     0.057 A 
HETATM    4  C   UNK     0       5.405  39.572  10.485  0.00  0.00     0.102 A 
HETATM    5  C   UNK     0       7.501  39.784  11.635  0.00  0.00     0.102 A 
HETATM    6  C   UNK     0       6.273  40.312  11.273  0.00  0.00     0.132 A 
ENDROOT
BRANCH   1   7
HETATM    7  C   UNK     0       7.381  36.434   9.970  0.00  0.00     0.298 C 
HETATM    8  O   UNK     0       8.044  35.724  10.691  0.00  0.00    -0.259 OA
BRANCH   7   9
HETATM    9  O   UNK     0       6.994  35.980   8.743  0.00  0.00    -0.272 OA
BRANCH   9  10
HETATM   10  C   UNK     0       6.874  34.643   8.492  0.00  0.00     0.116 A 
HETATM   11  C   UNK     0       7.836  33.996   7.729  0.00  0.00     0.058 A 
HETATM   12  C   UNK     0       7.726  32.638   7.471  0.00  0.00     0.045 A 
HETATM   13  C   UNK     0       6.649  31.926   7.981  0.00  0.00     0.057 A 
HETATM   14  C   UNK     0       5.683  32.570   8.740  0.00  0.00     0.102 A 
HETATM   15  C   UNK     0       5.797  33.928   8.996  0.00  0.00     0.133 A 
BRANCH  12  16
HETATM   16  C   UNK     0       8.746  31.948   6.661  0.00  0.00     0.293 C 
HETATM   17  O   UNK     0       8.406  31.120   5.847  0.00  0.00    -0.259 OA
BRANCH  16  18
HETATM   18  O   UNK     0      10.068  32.223   6.835  0.00  0.00    -0.315 OA
BRANCH  18  19
HETATM   19  C   UNK     0      10.811  32.725   5.734  0.00  0.00     0.213 C 
BRANCH  19  20
HETATM   20  C   UNK     0      11.259  34.192   5.865  0.00  0.00     0.181 C 
HETATM   21  O   UNK     0      11.151  34.581   7.259  0.00  0.00    -0.348 OA
HETATM   22  C   UNK     0      12.062  35.541   7.803  0.00  0.00     0.302 C 
HETATM   23  C   UNK     0      13.460  35.055   7.483  0.00  0.00     0.219 C 
HETATM   24  C   UNK     0      13.602  35.199   6.034  0.00  0.00     0.185 C 
HETATM   25  O   UNK     0      14.501  35.811   8.085  0.00  0.00    -0.304 OA
HETATM   26  C   UNK     0      12.711  34.262   5.286  0.00  0.00     0.194 C 
HETATM   27  O   UNK     0      14.946  34.922   5.677  0.00  0.00    -0.388 OA
HETATM   28  O   UNK     0      12.704  34.748   3.947  0.00  0.00    -0.307 OA
HETATM   29  C   UNK     0      13.897  35.175   3.398  0.00  0.00     0.291 C 
HETATM   30  C   UNK     0      15.154  34.439   3.708  0.00  0.00     0.039 A 
HETATM   31  O   UNK     0      13.916  36.117   2.641  0.00  0.00    -0.260 OA
HETATM   32  C   UNK     0      16.229  34.938   4.470  0.00  0.00     0.086 A 
HETATM   33  C   UNK     0      15.235  33.159   3.178  0.00  0.00     0.054 A 
HETATM   34  C   UNK     0      17.340  34.125   4.666  0.00  0.00     0.096 A 
HETATM   35  C   UNK     0      16.342  36.322   5.068  0.00  0.00     0.013 A 
HETATM   36  H   UNK     0      15.510  35.637   5.236  0.00  0.00     0.229 HD
HETATM   37  C   UNK     0      17.403  32.851   4.130  0.00  0.00     0.129 A 
HETATM   38  C   UNK     0      16.348  32.365   3.383  0.00  0.00     0.102 A 
HETATM   39  C   UNK     0      16.732  37.326   4.189  0.00  0.00     0.110 A 
HETATM   40  C   UNK     0      16.161  36.647   6.427  0.00  0.00     0.052 A 
HETATM   41  C   UNK     0      16.950  38.621   4.629  0.00  0.00     0.133 A 
HETATM   42  C   UNK     0      16.789  38.936   5.966  0.00  0.00     0.113 A 
HETATM   43  C   UNK     0      16.389  37.947   6.849  0.00  0.00     0.058 A 
HETATM   44  C   UNK     0      15.743  35.690   7.491  0.00  0.00     0.294 C 
HETATM   45  O   UNK     0      16.500  34.812   7.839  0.00  0.00    -0.259 OA
BRANCH  22  46
HETATM   46  O   UNK     0      11.858  35.676   9.207  0.00  0.00    -0.283 OA
BRANCH  46  47
HETATM   47  C   UNK     0      11.678  36.928   9.729  0.00  0.00     0.295 C 
HETATM   48  O   UNK     0      10.688  37.555   9.428  0.00  0.00    -0.259 OA
BRANCH  47  49
HETATM   49  C   UNK     0      12.670  37.550  10.645  0.00  0.00     0.045 A 
HETATM   50  C   UNK     0      12.496  38.841  11.126  0.00  0.00     0.057 A 
HETATM   51  C   UNK     0      13.439  39.400  11.979  0.00  0.00     0.102 A 
HETATM   52  C   UNK     0      14.558  38.673  12.353  0.00  0.00     0.132 A 
HETATM   53  C   UNK     0      14.735  37.384  11.876  0.00  0.00     0.102 A 
HETATM   54  C   UNK     0      13.791  36.825  11.026  0.00  0.00     0.057 A 
BRANCH  51  55
HETATM   55  O   UNK     0      13.269  40.665  12.447  0.00  0.00    -0.358 OA
HETATM   56  H   UNK     0      13.813  40.989  13.237  0.00  0.00     0.217 HD
ENDBRANCH  51  55
BRANCH  52  57
HETATM   57  O   UNK     0      15.484  39.220  13.189  0.00  0.00    -0.356 OA
HETATM   58  H   UNK     0      15.724  40.199  13.108  0.00  0.00     0.218 HD
ENDBRANCH  52  57
BRANCH  53  59
HETATM   59  O   UNK     0      15.836  36.669  12.240  0.00  0.00    -0.358 OA
HETATM   60  H   UNK     0      16.647  36.649  11.636  0.00  0.00     0.217 HD
ENDBRANCH  53  59
ENDBRANCH  47  49
ENDBRANCH  46  47
ENDBRANCH  22  46
BRANCH  34  61
HETATM   61  O   UNK     0      18.394  34.600   5.386  0.00  0.00    -0.361 OA
HETATM   62  H   UNK     0      18.720  35.547   5.241  0.00  0.00     0.217 HD
ENDBRANCH  34  61
BRANCH  37  63
HETATM   63  O   UNK     0      18.502  32.080   4.333  0.00  0.00    -0.356 OA
HETATM   64  H   UNK     0      18.720  31.744   5.262  0.00  0.00     0.218 HD
ENDBRANCH  37  63
BRANCH  38  65
HETATM   65  O   UNK     0      16.409  31.116   2.848  0.00  0.00    -0.358 OA
HETATM   66  H   UNK     0      17.245  30.557   2.960  0.00  0.00     0.217 HD
ENDBRANCH  38  65
BRANCH  39  67
HETATM   67  O   UNK     0      16.920  37.031   2.874  0.00  0.00    -0.357 OA
HETATM   68  H   UNK     0      16.187  37.220   2.203  0.00  0.00     0.217 HD
ENDBRANCH  39  67
BRANCH  41  69
HETATM   69  O   UNK     0      17.335  39.581   3.746  0.00  0.00    -0.356 OA
HETATM   70  H   UNK     0      17.227  40.559   3.983  0.00  0.00     0.218 HD
ENDBRANCH  41  69
BRANCH  42  71
HETATM   71  O   UNK     0      17.027  40.209   6.405  0.00  0.00    -0.304 OA
BRANCH  71  72
HETATM   72  C   UNK     0      16.825  40.586   7.706  0.00  0.00     0.120 A 
HETATM   73  C   UNK     0      17.890  40.588   8.593  0.00  0.00     0.005 A 
HETATM   74  C   UNK     0      17.695  40.970   9.910  0.00  0.00     0.051 A 
HETATM   75  C   UNK     0      16.434  41.350  10.345  0.00  0.00     0.102 A 
HETATM   76  C   UNK     0      15.368  41.347   9.459  0.00  0.00     0.135 A 
HETATM   77  C   UNK     0      15.562  40.967   8.141  0.00  0.00     0.136 A 
BRANCH  73  78
HETATM   78  C   UNK     0      19.262  40.177   8.125  0.00  0.00     0.205 C 
BRANCH  78  79
HETATM   79  O   UNK     0      19.608  40.924   6.969  0.00  0.00    -0.396 OA
HETATM   80  H   UNK     0      19.116  41.782   6.755  0.00  0.00     0.209 HD
ENDBRANCH  78  79
ENDBRANCH  73  78
BRANCH  75  81
HETATM   81  O   UNK     0      16.247  41.722  11.640  0.00  0.00    -0.358 OA
HETATM   82  H   UNK     0      15.309  41.863  11.995  0.00  0.00     0.217 HD
ENDBRANCH  75  81
BRANCH  76  83
HETATM   83  O   UNK     0      14.131  41.718   9.884  0.00  0.00    -0.356 OA
HETATM   84  H   UNK     0      13.571  41.077  10.431  0.00  0.00     0.218 HD
ENDBRANCH  76  83
BRANCH  77  85
HETATM   85  O   UNK     0      14.510  40.967   7.276  0.00  0.00    -0.356 OA
HETATM   86  H   UNK     0      14.640  41.276   6.321  0.00  0.00     0.218 HD
ENDBRANCH  77  85
ENDBRANCH  71  72
ENDBRANCH  42  71
ENDBRANCH  19  20
ENDBRANCH  18  19
ENDBRANCH  16  18
ENDBRANCH  12  16
BRANCH  14  87
HETATM   87  O   UNK     0       4.625  31.873   9.234  0.00  0.00    -0.358 OA
HETATM   88  H   UNK     0       3.718  31.950   8.792  0.00  0.00     0.217 HD
ENDBRANCH  14  87
BRANCH  15  89
HETATM   89  O   UNK     0       4.853  34.562   9.742  0.00  0.00    -0.356 OA
HETATM   90  H   UNK     0       4.242  34.026  10.346  0.00  0.00     0.218 HD
ENDBRANCH  15  89
ENDBRANCH   9  10
ENDBRANCH   7   9
ENDBRANCH   1   7
BRANCH   4  91
HETATM   91  O   UNK     0       4.200  40.093  10.130  0.00  0.00    -0.358 OA
HETATM   92  H   UNK     0       3.472  40.200  10.824  0.00  0.00     0.217 HD
ENDBRANCH   4  91
BRANCH   5  93
HETATM   93  O   UNK     0       8.353  40.514  12.405  0.00  0.00    -0.358 OA
HETATM   94  H   UNK     0       9.103  40.054  12.905  0.00  0.00     0.217 HD
ENDBRANCH   5  93
BRANCH   6  95
HETATM   95  O   UNK     0       5.917  41.556  11.690  0.00  0.00    -0.356 OA
HETATM   96  H   UNK     0       5.034  41.698  12.163  0.00  0.00     0.218 HD
ENDBRANCH   6  95
TORSDOF 30
ENDMDL
