REMARK VINA RESULT:     -10.5      1.269      2.150
REMARK  26 active torsions:
REMARK  status: ('A' for Active; 'I' for Inactive)
REMARK    1  A    between atoms: C_1  and  C_7 
REMARK    2  A    between atoms: C_4  and  O_9 
REMARK    3  A    between atoms: C_5  and  O_11 
REMARK    4  A    between atoms: C_6  and  O_10 
REMARK    5  A    between atoms: C_12  and  C_18 
REMARK    6  A    between atoms: C_15  and  O_76 
REMARK    7  A    between atoms: C_18  and  O_74 
REMARK    8  A    between atoms: C_21  and  O_25 
REMARK    9  A    between atoms: C_23  and  O_26 
REMARK   10  A    between atoms: C_30  and  O_35 
REMARK   11  A    between atoms: C_32  and  O_36 
REMARK   12  A    between atoms: O_36  and  C_67 
REMARK   13  A    between atoms: C_39  and  O_60 
REMARK   14  A    between atoms: C_41  and  O_58 
REMARK   15  A    between atoms: C_42  and  C_45 
REMARK   16  A    between atoms: C_43  and  O_59 
REMARK   17  A    between atoms: C_45  and  O_53 
REMARK   18  A    between atoms: C_47  and  O_53 
REMARK   19  A    between atoms: C_50  and  O_55 
REMARK   20  A    between atoms: C_51  and  C_54 
REMARK   21  A    between atoms: C_54  and  O_74 
REMARK   22  A    between atoms: C_64  and  O_69 
REMARK   23  A    between atoms: C_65  and  C_72 
REMARK   24  A    between atoms: C_66  and  O_70 
REMARK   25  A    between atoms: C_68  and  O_71 
REMARK   26  A    between atoms: C_72  and  O_73 
ROOT
HETATM    1  C   UNK     0      27.622  37.623  19.395  0.00  0.00     0.026 A 
HETATM    2  C   UNK     0      26.512  38.486  19.381  0.00  0.00     0.006 A 
HETATM    3  C   UNK     0      28.798  37.850  18.706  0.00  0.00     0.111 A 
HETATM    4  C   UNK     0      26.668  39.603  18.508  0.00  0.00     0.054 A 
HETATM    5  C   UNK     0      28.928  38.968  17.924  0.00  0.00     0.100 A 
HETATM    6  C   UNK     0      27.855  39.819  17.820  0.00  0.00     0.058 A 
HETATM    7  O   UNK     0      27.560  36.472  20.108  0.00  0.00     0.000 OA
HETATM    8  C   UNK     0      25.898  37.013  21.252  0.00  0.00     0.026 A 
HETATM    9  C   UNK     0      25.339  37.930  20.358  0.00  0.00     0.006 A 
HETATM   10  C   UNK     0      25.170  36.243  22.119  0.00  0.00     0.111 A 
HETATM   11  C   UNK     0      23.921  38.118  20.505  0.00  0.00     0.054 A 
HETATM   12  C   UNK     0      23.812  36.354  22.182  0.00  0.00     0.111 A 
HETATM   13  C   UNK     0      23.194  37.313  21.396  0.00  0.00     0.058 A 
HETATM   14  C   UNK     0      23.034  39.088  19.806  0.00  0.00     0.294 C 
HETATM   15  O   UNK     0      27.242  36.848  21.285  0.00  0.00     0.000 OA
HETATM   16  O   UNK     0      22.864  38.985  18.613  0.00  0.00    -0.259 OA
HETATM   17  C   UNK     0      22.192  42.605  20.404  0.00  0.00     0.302 C 
HETATM   18  C   UNK     0      22.718  41.319  19.811  0.00  0.00     0.219 C 
HETATM   19  O   UNK     0      22.803  43.738  19.674  0.00  0.00    -0.348 OA
HETATM   20  C   UNK     0      24.101  41.459  19.830  0.00  0.00     0.184 C 
HETATM   21  C   UNK     0      24.068  43.661  18.900  0.00  0.00     0.181 C 
HETATM   22  C   UNK     0      24.439  42.191  18.652  0.00  0.00     0.194 C 
HETATM   23  O   UNK     0      25.803  41.958  18.400  0.00  0.00    -0.307 OA
HETATM   24  O   UNK     0      22.396  40.129  20.505  0.00  0.00    -0.304 OA
HETATM   25  C   UNK     0      25.690  40.599  18.153  0.00  0.00     0.294 C 
HETATM   26  O   UNK     0      24.673  40.216  17.625  0.00  0.00    -0.259 OA
HETATM   27  H   UNK     0      28.348  35.838  20.114  0.00  0.00     0.000 HD
HETATM   28  H   UNK     0      27.655  36.184  21.927  0.00  0.00     0.000 HD
ENDROOT
BRANCH  21  29
HETATM   29  C   UNK     0      23.888  44.355  17.527  0.00  0.00     0.213 C 
BRANCH  29  30
HETATM   30  O   UNK     0      23.008  43.734  16.590  0.00  0.00    -0.315 OA
BRANCH  30  31
HETATM   31  C   UNK     0      23.469  43.400  15.349  0.00  0.00     0.293 C 
HETATM   32  O   UNK     0      24.582  42.939  15.241  0.00  0.00    -0.259 OA
BRANCH  31  33
HETATM   33  C   UNK     0      22.634  43.549  14.128  0.00  0.00     0.044 A 
HETATM   34  C   UNK     0      23.193  44.179  13.028  0.00  0.00     0.055 A 
HETATM   35  C   UNK     0      22.455  44.359  11.871  0.00  0.00     0.080 A 
HETATM   36  C   UNK     0      21.151  43.905  11.808  0.00  0.00     0.047 A 
HETATM   37  C   UNK     0      20.572  43.268  12.899  0.00  0.00     0.091 A 
HETATM   38  O   UNK     0      20.433  44.086  10.667  0.00  0.00     0.000 OA
HETATM   39  C   UNK     0      21.319  43.092  14.063  0.00  0.00     0.056 A 
HETATM   40  O   UNK     0      19.272  42.828  12.821  0.00  0.00    -0.306 OA
HETATM   41  C   UNK     0      18.539  43.028  11.680  0.00  0.00     0.121 A 
HETATM   42  O   UNK     0      19.043  43.624  10.757  0.00  0.00     0.000 OA
HETATM   43  H   UNK     0      19.477  43.757  10.613  0.00  0.00     0.000 HD
BRANCH  35  44
HETATM   44  O   UNK     0      23.007  44.987  10.798  0.00  0.00    -0.360 OA
HETATM   45  H   UNK     0      22.652  44.804   9.867  0.00  0.00     0.217 HD
ENDBRANCH  35  44
BRANCH  41  46
HETATM   46  C   UNK     0      17.157  42.537  11.527  0.00  0.00     0.006 A 
HETATM   47  C   UNK     0      16.714  42.166  10.267  0.00  0.00     0.054 A 
HETATM   48  C   UNK     0      15.425  41.688  10.091  0.00  0.00     0.102 A 
HETATM   49  C   UNK     0      14.575  41.582  11.180  0.00  0.00     0.132 A 
HETATM   50  C   UNK     0      15.014  41.956  12.442  0.00  0.00     0.102 A 
HETATM   51  C   UNK     0      16.306  42.431  12.618  0.00  0.00     0.054 A 
BRANCH  48  52
HETATM   52  O   UNK     0      14.996  41.323   8.854  0.00  0.00    -0.358 OA
HETATM   53  H   UNK     0      14.542  40.429   8.719  0.00  0.00     0.217 HD
ENDBRANCH  48  52
BRANCH  49  54
HETATM   54  O   UNK     0      13.311  41.111  11.008  0.00  0.00    -0.356 OA
HETATM   55  H   UNK     0      12.994  40.835  10.087  0.00  0.00     0.218 HD
ENDBRANCH  49  54
BRANCH  50  56
HETATM   56  O   UNK     0      14.176  41.853  13.509  0.00  0.00    -0.358 OA
HETATM   57  H   UNK     0      14.445  42.240  14.404  0.00  0.00     0.217 HD
ENDBRANCH  50  56
ENDBRANCH  41  46
ENDBRANCH  31  33
ENDBRANCH  30  31
ENDBRANCH  29  30
ENDBRANCH  21  29
BRANCH  17  58
HETATM   58  O   UNK     0      20.781  42.654  20.281  0.00  0.00    -0.283 OA
BRANCH  58  59
HETATM   59  C   UNK     0      20.147  43.830  20.034  0.00  0.00     0.295 C 
HETATM   60  O   UNK     0      19.982  44.633  20.925  0.00  0.00    -0.259 OA
BRANCH  59  61
HETATM   61  C   UNK     0      19.657  44.116  18.678  0.00  0.00     0.045 A 
HETATM   62  C   UNK     0      19.252  43.075  17.859  0.00  0.00     0.057 A 
HETATM   63  C   UNK     0      18.782  43.337  16.582  0.00  0.00     0.102 A 
HETATM   64  C   UNK     0      18.722  44.643  16.123  0.00  0.00     0.132 A 
HETATM   65  C   UNK     0      19.128  45.686  16.942  0.00  0.00     0.102 A 
HETATM   66  C   UNK     0      19.594  45.423  18.221  0.00  0.00     0.057 A 
BRANCH  63  67
HETATM   67  O   UNK     0      18.380  42.314  15.782  0.00  0.00    -0.358 OA
HETATM   68  H   UNK     0      17.399  42.199  15.562  0.00  0.00     0.217 HD
ENDBRANCH  63  67
BRANCH  64  69
HETATM   69  O   UNK     0      18.267  44.903  14.867  0.00  0.00    -0.356 OA
HETATM   70  H   UNK     0      17.975  45.839  14.617  0.00  0.00     0.218 HD
ENDBRANCH  64  69
BRANCH  65  71
HETATM   71  O   UNK     0      19.067  46.966  16.491  0.00  0.00    -0.358 OA
HETATM   72  H   UNK     0      19.887  47.401  16.091  0.00  0.00     0.217 HD
ENDBRANCH  65  71
ENDBRANCH  59  61
ENDBRANCH  58  59
ENDBRANCH  17  58
BRANCH  20  73
HETATM   73  O   UNK     0      24.732  40.188  19.825  0.00  0.00    -0.390 OA
HETATM   74  H   UNK     0      24.610  39.558  20.608  0.00  0.00     0.210 HD
ENDBRANCH  20  73
BRANCH   5  75
HETATM   75  O   UNK     0      30.083  39.214  17.250  0.00  0.00    -0.358 OA
HETATM   76  H   UNK     0      30.418  40.164  17.151  0.00  0.00     0.217 HD
ENDBRANCH   5  75
BRANCH   3  77
HETATM   77  O   UNK     0      29.825  36.965  18.802  0.00  0.00    -0.357 OA
HETATM   78  H   UNK     0      30.569  37.124  19.468  0.00  0.00     0.217 HD
ENDBRANCH   3  77
BRANCH  12  79
HETATM   79  O   UNK     0      23.237  35.456  23.042  0.00  0.00    -0.304 OA
BRANCH  79  80
HETATM   80  C   UNK     0      22.186  34.617  23.280  0.00  0.00     0.129 A 
HETATM   81  C   UNK     0      20.911  35.002  23.677  0.00  0.00     0.077 A 
HETATM   82  C   UNK     0      19.947  34.032  23.918  0.00  0.00     0.060 A 
HETATM   83  C   UNK     0      20.242  32.686  23.763  0.00  0.00     0.102 A 
HETATM   84  C   UNK     0      21.508  32.304  23.358  0.00  0.00     0.135 A 
HETATM   85  C   UNK     0      22.469  33.267  23.118  0.00  0.00     0.137 A 
BRANCH  81  86
HETATM   86  C   UNK     0      20.558  36.413  23.846  0.00  0.00     0.179 C 
HETATM   87  O   UNK     0      19.571  36.863  23.311  0.00  0.00    -0.646 OA
BRANCH  86  88
HETATM   88  O   UNK     0      21.350  37.215  24.609  0.00  0.00    -0.773 OA
HETATM   89  H   UNK     0      22.062  36.807  25.200  0.00  0.00     0.167 HD
ENDBRANCH  86  88
ENDBRANCH  81  86
BRANCH  83  90
HETATM   90  O   UNK     0      19.295  31.740  24.007  0.00  0.00    -0.358 OA
HETATM   91  H   UNK     0      18.443  31.727  23.461  0.00  0.00     0.217 HD
ENDBRANCH  83  90
BRANCH  84  92
HETATM   92  O   UNK     0      21.811  30.987  23.197  0.00  0.00    -0.356 OA
HETATM   93  H   UNK     0      21.069  30.303  23.125  0.00  0.00     0.218 HD
ENDBRANCH  84  92
BRANCH  85  94
HETATM   94  O   UNK     0      23.713  32.889  22.718  0.00  0.00    -0.356 OA
HETATM   95  H   UNK     0      24.066  31.972  22.963  0.00  0.00     0.218 HD
ENDBRANCH  85  94
ENDBRANCH  79  80
ENDBRANCH  12  79
BRANCH  10  96
HETATM   96  O   UNK     0      25.802  35.341  22.916  0.00  0.00    -0.357 OA
HETATM   97  H   UNK     0      25.414  34.415  23.041  0.00  0.00     0.217 HD
ENDBRANCH  10  96
TORSDOF 26
