REMARK VINA RESULT:     -10.7      1.986      3.280
REMARK  26 active torsions:
REMARK  status: ('A' for Active; 'I' for Inactive)
REMARK    1  A    between atoms: C_1  and  C_7 
REMARK    2  A    between atoms: C_4  and  O_9 
REMARK    3  A    between atoms: C_5  and  O_11 
REMARK    4  A    between atoms: C_6  and  O_10 
REMARK    5  A    between atoms: C_12  and  C_18 
REMARK    6  A    between atoms: C_15  and  O_76 
REMARK    7  A    between atoms: C_18  and  O_74 
REMARK    8  A    between atoms: C_21  and  O_25 
REMARK    9  A    between atoms: C_23  and  O_26 
REMARK   10  A    between atoms: C_30  and  O_35 
REMARK   11  A    between atoms: C_32  and  O_36 
REMARK   12  A    between atoms: O_36  and  C_67 
REMARK   13  A    between atoms: C_39  and  O_60 
REMARK   14  A    between atoms: C_41  and  O_58 
REMARK   15  A    between atoms: C_42  and  C_45 
REMARK   16  A    between atoms: C_43  and  O_59 
REMARK   17  A    between atoms: C_45  and  O_53 
REMARK   18  A    between atoms: C_47  and  O_53 
REMARK   19  A    between atoms: C_50  and  O_55 
REMARK   20  A    between atoms: C_51  and  C_54 
REMARK   21  A    between atoms: C_54  and  O_74 
REMARK   22  A    between atoms: C_64  and  O_69 
REMARK   23  A    between atoms: C_65  and  C_72 
REMARK   24  A    between atoms: C_66  and  O_70 
REMARK   25  A    between atoms: C_68  and  O_71 
REMARK   26  A    between atoms: C_72  and  O_73 
ROOT
HETATM    1  C   UNK     0      27.202  37.473  19.585  0.00  0.00     0.026 A 
HETATM    2  C   UNK     0      26.116  38.365  19.596  0.00  0.00     0.006 A 
HETATM    3  C   UNK     0      28.369  37.671  18.872  0.00  0.00     0.111 A 
HETATM    4  C   UNK     0      26.283  39.479  18.721  0.00  0.00     0.054 A 
HETATM    5  C   UNK     0      28.512  38.786  18.090  0.00  0.00     0.100 A 
HETATM    6  C   UNK     0      27.460  39.666  18.010  0.00  0.00     0.058 A 
HETATM    7  O   UNK     0      27.125  36.322  20.297  0.00  0.00     0.000 OA
HETATM    8  C   UNK     0      25.502  36.904  21.476  0.00  0.00     0.026 A 
HETATM    9  C   UNK     0      24.949  37.837  20.596  0.00  0.00     0.006 A 
HETATM   10  C   UNK     0      24.772  36.151  22.357  0.00  0.00     0.111 A 
HETATM   11  C   UNK     0      23.540  38.062  20.772  0.00  0.00     0.054 A 
HETATM   12  C   UNK     0      23.419  36.298  22.449  0.00  0.00     0.111 A 
HETATM   13  C   UNK     0      22.810  37.274  21.677  0.00  0.00     0.058 A 
HETATM   14  C   UNK     0      22.664  39.056  20.094  0.00  0.00     0.294 C 
HETATM   15  O   UNK     0      26.842  36.704  21.481  0.00  0.00     0.000 OA
HETATM   16  O   UNK     0      22.466  38.960  18.905  0.00  0.00    -0.259 OA
HETATM   17  C   UNK     0      21.926  42.593  20.715  0.00  0.00     0.302 C 
HETATM   18  C   UNK     0      22.406  41.294  20.110  0.00  0.00     0.219 C 
HETATM   19  O   UNK     0      22.552  43.711  19.975  0.00  0.00    -0.348 OA
HETATM   20  C   UNK     0      23.793  41.399  20.100  0.00  0.00     0.184 C 
HETATM   21  C   UNK     0      23.798  43.603  19.175  0.00  0.00     0.181 C 
HETATM   22  C   UNK     0      24.125  42.124  18.917  0.00  0.00     0.194 C 
HETATM   23  O   UNK     0      25.478  41.856  18.636  0.00  0.00    -0.307 OA
HETATM   24  O   UNK     0      22.068  40.112  20.808  0.00  0.00    -0.304 OA
HETATM   25  C   UNK     0      25.323  40.501  18.389  0.00  0.00     0.294 C 
HETATM   26  O   UNK     0      24.286  40.146  17.881  0.00  0.00    -0.259 OA
HETATM   27  H   UNK     0      27.896  35.668  20.285  0.00  0.00     0.000 HD
HETATM   28  H   UNK     0      27.250  36.028  22.113  0.00  0.00     0.000 HD
ENDROOT
BRANCH  21  29
HETATM   29  C   UNK     0      23.608  44.304  17.808  0.00  0.00     0.213 C 
BRANCH  29  30
HETATM   30  O   UNK     0      22.301  44.278  17.234  0.00  0.00    -0.315 OA
BRANCH  30  31
HETATM   31  C   UNK     0      22.081  43.575  16.085  0.00  0.00     0.293 C 
HETATM   32  O   UNK     0      22.913  42.777  15.717  0.00  0.00    -0.259 OA
BRANCH  31  33
HETATM   33  C   UNK     0      20.835  43.730  15.288  0.00  0.00     0.044 A 
HETATM   34  C   UNK     0      20.407  45.013  14.989  0.00  0.00     0.055 A 
HETATM   35  C   UNK     0      19.245  45.215  14.265  0.00  0.00     0.080 A 
HETATM   36  C   UNK     0      18.505  44.131  13.833  0.00  0.00     0.047 A 
HETATM   37  C   UNK     0      18.917  42.835  14.122  0.00  0.00     0.091 A 
HETATM   38  O   UNK     0      17.364  44.339  13.122  0.00  0.00     0.000 OA
HETATM   39  C   UNK     0      20.087  42.638  14.854  0.00  0.00     0.056 A 
HETATM   40  O   UNK     0      18.166  41.768  13.689  0.00  0.00    -0.306 OA
HETATM   41  C   UNK     0      17.004  41.975  12.991  0.00  0.00     0.121 A 
HETATM   42  O   UNK     0      16.636  43.109  12.789  0.00  0.00     0.000 OA
HETATM   43  H   UNK     0      16.816  43.550  12.803  0.00  0.00     0.000 HD
BRANCH  35  44
HETATM   44  O   UNK     0      18.827  46.478  13.981  0.00  0.00    -0.360 OA
HETATM   45  H   UNK     0      18.061  46.886  14.503  0.00  0.00     0.217 HD
ENDBRANCH  35  44
BRANCH  41  46
HETATM   46  C   UNK     0      16.184  40.867  12.467  0.00  0.00     0.006 A 
HETATM   47  C   UNK     0      14.812  40.896  12.667  0.00  0.00     0.054 A 
HETATM   48  C   UNK     0      14.012  39.877  12.176  0.00  0.00     0.102 A 
HETATM   49  C   UNK     0      14.585  38.824  11.482  0.00  0.00     0.132 A 
HETATM   50  C   UNK     0      15.958  38.790  11.282  0.00  0.00     0.102 A 
HETATM   51  C   UNK     0      16.759  39.812  11.772  0.00  0.00     0.054 A 
BRANCH  48  52
HETATM   52  O   UNK     0      12.668  39.912  12.372  0.00  0.00    -0.358 OA
HETATM   53  H   UNK     0      12.040  39.940  11.579  0.00  0.00     0.217 HD
ENDBRANCH  48  52
BRANCH  49  54
HETATM   54  O   UNK     0      13.800  37.825  10.998  0.00  0.00    -0.356 OA
HETATM   55  H   UNK     0      14.116  36.865  11.045  0.00  0.00     0.218 HD
ENDBRANCH  49  54
BRANCH  50  56
HETATM   56  O   UNK     0      16.519  37.753  10.603  0.00  0.00    -0.358 OA
HETATM   57  H   UNK     0      17.130  37.933   9.818  0.00  0.00     0.217 HD
ENDBRANCH  50  56
ENDBRANCH  41  46
ENDBRANCH  31  33
ENDBRANCH  30  31
ENDBRANCH  29  30
ENDBRANCH  21  29
BRANCH  17  58
HETATM   58  O   UNK     0      20.515  42.679  20.622  0.00  0.00    -0.283 OA
BRANCH  58  59
HETATM   59  C   UNK     0      19.923  43.154  19.495  0.00  0.00     0.295 C 
HETATM   60  O   UNK     0      19.922  44.342  19.261  0.00  0.00    -0.259 OA
BRANCH  59  61
HETATM   61  C   UNK     0      19.277  42.215  18.567  0.00  0.00     0.045 A 
HETATM   62  C   UNK     0      19.854  40.978  18.329  0.00  0.00     0.057 A 
HETATM   63  C   UNK     0      19.247  40.084  17.460  0.00  0.00     0.102 A 
HETATM   64  C   UNK     0      18.066  40.432  16.825  0.00  0.00     0.132 A 
HETATM   65  C   UNK     0      17.489  41.670  17.063  0.00  0.00     0.102 A 
HETATM   66  C   UNK     0      18.093  42.562  17.936  0.00  0.00     0.057 A 
BRANCH  63  67
HETATM   67  O   UNK     0      19.812  38.869  17.232  0.00  0.00    -0.358 OA
HETATM   68  H   UNK     0      20.131  38.626  16.303  0.00  0.00     0.217 HD
ENDBRANCH  63  67
BRANCH  64  69
HETATM   69  O   UNK     0      17.472  39.558  15.967  0.00  0.00    -0.356 OA
HETATM   70  H   UNK     0      17.971  39.236  15.147  0.00  0.00     0.218 HD
ENDBRANCH  64  69
BRANCH  65  71
HETATM   71  O   UNK     0      16.329  42.009  16.442  0.00  0.00    -0.358 OA
HETATM   72  H   UNK     0      16.174  42.963  16.143  0.00  0.00     0.217 HD
ENDBRANCH  65  71
ENDBRANCH  59  61
ENDBRANCH  58  59
ENDBRANCH  17  58
BRANCH  20  73
HETATM   73  O   UNK     0      24.390  40.111  20.079  0.00  0.00    -0.390 OA
HETATM   74  H   UNK     0      24.841  39.749  20.910  0.00  0.00     0.210 HD
ENDBRANCH  20  73
BRANCH   5  75
HETATM   75  O   UNK     0      29.660  39.004  17.393  0.00  0.00    -0.358 OA
HETATM   76  H   UNK     0      30.516  38.545  17.673  0.00  0.00     0.217 HD
ENDBRANCH   5  75
BRANCH   3  77
HETATM   77  O   UNK     0      29.374  36.759  18.945  0.00  0.00    -0.357 OA
HETATM   78  H   UNK     0      29.358  36.044  19.660  0.00  0.00     0.217 HD
ENDBRANCH   3  77
BRANCH  12  79
HETATM   79  O   UNK     0      22.839  35.413  23.318  0.00  0.00    -0.304 OA
BRANCH  79  80
HETATM   80  C   UNK     0      21.981  34.361  23.473  0.00  0.00     0.129 A 
HETATM   81  C   UNK     0      20.646  34.448  23.844  0.00  0.00     0.077 A 
HETATM   82  C   UNK     0      19.900  33.285  23.997  0.00  0.00     0.060 A 
HETATM   83  C   UNK     0      20.474  32.042  23.779  0.00  0.00     0.102 A 
HETATM   84  C   UNK     0      21.802  31.957  23.399  0.00  0.00     0.135 A 
HETATM   85  C   UNK     0      22.544  33.112  23.247  0.00  0.00     0.137 A 
BRANCH  81  86
HETATM   86  C   UNK     0      20.000  35.742  24.078  0.00  0.00     0.179 C 
HETATM   87  O   UNK     0      18.864  35.931  23.710  0.00  0.00    -0.646 OA
BRANCH  86  88
HETATM   88  O   UNK     0      20.691  36.730  24.709  0.00  0.00    -0.773 OA
HETATM   89  H   UNK     0      20.584  37.691  24.411  0.00  0.00     0.167 HD
ENDBRANCH  86  88
ENDBRANCH  81  86
BRANCH  83  90
HETATM   90  O   UNK     0      19.741  30.907  23.937  0.00  0.00    -0.358 OA
HETATM   91  H   UNK     0      19.773  30.403  24.813  0.00  0.00     0.217 HD
ENDBRANCH  83  90
BRANCH  84  92
HETATM   92  O   UNK     0      22.378  30.743  23.178  0.00  0.00    -0.356 OA
HETATM   93  H   UNK     0      21.907  30.059  22.601  0.00  0.00     0.218 HD
ENDBRANCH  84  92
BRANCH  85  94
HETATM   94  O   UNK     0      23.849  33.025  22.872  0.00  0.00    -0.356 OA
HETATM   95  H   UNK     0      24.146  32.293  22.237  0.00  0.00     0.218 HD
ENDBRANCH  85  94
ENDBRANCH  79  80
ENDBRANCH  12  79
BRANCH  10  96
HETATM   96  O   UNK     0      25.397  35.231  23.139  0.00  0.00    -0.357 OA
HETATM   97  H   UNK     0      24.868  34.473  23.551  0.00  0.00     0.217 HD
ENDBRANCH  10  96
TORSDOF 26
