REMARK VINA RESULT:     -10.8      0.523      1.512
REMARK  26 active torsions:
REMARK  status: ('A' for Active; 'I' for Inactive)
REMARK    1  A    between atoms: C_1  and  C_7 
REMARK    2  A    between atoms: C_4  and  O_9 
REMARK    3  A    between atoms: C_5  and  O_11 
REMARK    4  A    between atoms: C_6  and  O_10 
REMARK    5  A    between atoms: C_12  and  C_18 
REMARK    6  A    between atoms: C_15  and  O_76 
REMARK    7  A    between atoms: C_18  and  O_74 
REMARK    8  A    between atoms: C_21  and  O_25 
REMARK    9  A    between atoms: C_23  and  O_26 
REMARK   10  A    between atoms: C_30  and  O_35 
REMARK   11  A    between atoms: C_32  and  O_36 
REMARK   12  A    between atoms: O_36  and  C_67 
REMARK   13  A    between atoms: C_39  and  O_60 
REMARK   14  A    between atoms: C_41  and  O_58 
REMARK   15  A    between atoms: C_42  and  C_45 
REMARK   16  A    between atoms: C_43  and  O_59 
REMARK   17  A    between atoms: C_45  and  O_53 
REMARK   18  A    between atoms: C_47  and  O_53 
REMARK   19  A    between atoms: C_50  and  O_55 
REMARK   20  A    between atoms: C_51  and  C_54 
REMARK   21  A    between atoms: C_54  and  O_74 
REMARK   22  A    between atoms: C_64  and  O_69 
REMARK   23  A    between atoms: C_65  and  C_72 
REMARK   24  A    between atoms: C_66  and  O_70 
REMARK   25  A    between atoms: C_68  and  O_71 
REMARK   26  A    between atoms: C_72  and  O_73 
ROOT
HETATM    1  C   UNK     0      27.917  38.111  19.399  0.00  0.00     0.026 A 
HETATM    2  C   UNK     0      26.795  38.917  19.140  0.00  0.00     0.006 A 
HETATM    3  C   UNK     0      29.141  38.250  18.774  0.00  0.00     0.111 A 
HETATM    4  C   UNK     0      27.000  39.860  18.090  0.00  0.00     0.054 A 
HETATM    5  C   UNK     0      29.313  39.211  17.811  0.00  0.00     0.100 A 
HETATM    6  C   UNK     0      28.234  39.990  17.470  0.00  0.00     0.058 A 
HETATM    7  O   UNK     0      27.820  37.107  20.304  0.00  0.00     0.000 OA
HETATM    8  C   UNK     0      26.058  37.788  21.196  0.00  0.00     0.026 A 
HETATM    9  C   UNK     0      25.556  38.506  20.108  0.00  0.00     0.006 A 
HETATM   10  C   UNK     0      25.276  37.163  22.131  0.00  0.00     0.111 A 
HETATM   11  C   UNK     0      24.128  38.668  20.107  0.00  0.00     0.054 A 
HETATM   12  C   UNK     0      23.916  37.235  22.067  0.00  0.00     0.111 A 
HETATM   13  C   UNK     0      23.345  38.012  21.072  0.00  0.00     0.058 A 
HETATM   14  C   UNK     0      23.281  39.462  19.174  0.00  0.00     0.294 C 
HETATM   15  O   UNK     0      27.398  37.680  21.364  0.00  0.00     0.000 OA
HETATM   16  O   UNK     0      23.213  39.137  18.012  0.00  0.00    -0.259 OA
HETATM   17  C   UNK     0      22.320  42.997  19.046  0.00  0.00     0.302 C 
HETATM   18  C   UNK     0      22.920  41.643  18.744  0.00  0.00     0.219 C 
HETATM   19  O   UNK     0      22.967  43.999  18.170  0.00  0.00    -0.348 OA
HETATM   20  C   UNK     0      24.294  41.834  18.844  0.00  0.00     0.184 C 
HETATM   21  C   UNK     0      24.293  43.827  17.525  0.00  0.00     0.181 C 
HETATM   22  C   UNK     0      24.713  42.351  17.581  0.00  0.00     0.194 C 
HETATM   23  O   UNK     0      26.098  42.124  17.483  0.00  0.00    -0.307 OA
HETATM   24  O   UNK     0      22.566  40.589  19.617  0.00  0.00    -0.304 OA
HETATM   25  C   UNK     0      26.034  40.740  17.484  0.00  0.00     0.294 C 
HETATM   26  O   UNK     0      25.073  40.232  16.957  0.00  0.00    -0.259 OA
HETATM   27  H   UNK     0      28.618  36.513  20.489  0.00  0.00     0.000 HD
HETATM   28  H   UNK     0      27.770  37.158  22.147  0.00  0.00     0.000 HD
ENDROOT
BRANCH  21  29
HETATM   29  C   UNK     0      24.213  44.253  16.038  0.00  0.00     0.213 C 
BRANCH  29  30
HETATM   30  O   UNK     0      22.955  44.100  15.379  0.00  0.00    -0.315 OA
BRANCH  30  31
HETATM   31  C   UNK     0      22.832  43.201  14.359  0.00  0.00     0.293 C 
HETATM   32  O   UNK     0      23.473  42.176  14.399  0.00  0.00    -0.259 OA
BRANCH  31  33
HETATM   33  C   UNK     0      21.905  43.422  13.218  0.00  0.00     0.044 A 
HETATM   34  C   UNK     0      22.301  44.292  12.215  0.00  0.00     0.055 A 
HETATM   35  C   UNK     0      21.470  44.547  11.137  0.00  0.00     0.080 A 
HETATM   36  C   UNK     0      20.237  43.928  11.057  0.00  0.00     0.047 A 
HETATM   37  C   UNK     0      19.821  43.051  12.051  0.00  0.00     0.091 A 
HETATM   38  O   UNK     0      19.427  44.185   9.994  0.00  0.00     0.000 OA
HETATM   39  C   UNK     0      20.661  42.800  13.135  0.00  0.00     0.056 A 
HETATM   40  O   UNK     0      18.589  42.449  11.958  0.00  0.00    -0.306 OA
HETATM   41  C   UNK     0      17.762  42.722  10.899  0.00  0.00     0.121 A 
HETATM   42  O   UNK     0      18.120  43.522  10.067  0.00  0.00     0.000 OA
HETATM   43  H   UNK     0      18.522  43.737   9.928  0.00  0.00     0.000 HD
BRANCH  35  44
HETATM   44  O   UNK     0      21.862  45.408  10.160  0.00  0.00    -0.360 OA
HETATM   45  H   UNK     0      22.536  45.112   9.465  0.00  0.00     0.217 HD
ENDBRANCH  35  44
BRANCH  41  46
HETATM   46  C   UNK     0      16.450  42.070  10.727  0.00  0.00     0.006 A 
HETATM   47  C   UNK     0      16.031  41.736   9.448  0.00  0.00     0.054 A 
HETATM   48  C   UNK     0      14.809  41.111   9.254  0.00  0.00     0.102 A 
HETATM   49  C   UNK     0      14.003  40.821  10.342  0.00  0.00     0.132 A 
HETATM   50  C   UNK     0      14.417  41.157  11.623  0.00  0.00     0.102 A 
HETATM   51  C   UNK     0      15.643  41.780  11.817  0.00  0.00     0.054 A 
BRANCH  48  52
HETATM   52  O   UNK     0      14.404  40.783   7.999  0.00  0.00    -0.358 OA
HETATM   53  H   UNK     0      14.067  41.502   7.371  0.00  0.00     0.217 HD
ENDBRANCH  48  52
BRANCH  49  54
HETATM   54  O   UNK     0      12.805  40.206  10.152  0.00  0.00    -0.356 OA
HETATM   55  H   UNK     0      12.456  40.056   9.213  0.00  0.00     0.218 HD
ENDBRANCH  49  54
BRANCH  50  56
HETATM   56  O   UNK     0      13.622  40.872  12.690  0.00  0.00    -0.358 OA
HETATM   57  H   UNK     0      14.033  40.553  13.557  0.00  0.00     0.217 HD
ENDBRANCH  50  56
ENDBRANCH  41  46
ENDBRANCH  31  33
ENDBRANCH  30  31
ENDBRANCH  29  30
ENDBRANCH  21  29
BRANCH  17  58
HETATM   58  O   UNK     0      20.924  42.972  18.807  0.00  0.00    -0.283 OA
BRANCH  58  59
HETATM   59  C   UNK     0      20.428  43.232  17.569  0.00  0.00     0.295 C 
HETATM   60  O   UNK     0      20.464  42.385  16.706  0.00  0.00    -0.259 OA
BRANCH  59  61
HETATM   61  C   UNK     0      19.853  44.555  17.285  0.00  0.00     0.045 A 
HETATM   62  C   UNK     0      19.945  45.085  16.008  0.00  0.00     0.057 A 
HETATM   63  C   UNK     0      19.399  46.328  15.730  0.00  0.00     0.102 A 
HETATM   64  C   UNK     0      18.764  47.044  16.733  0.00  0.00     0.132 A 
HETATM   65  C   UNK     0      18.671  46.513  18.011  0.00  0.00     0.102 A 
HETATM   66  C   UNK     0      19.214  45.268  18.288  0.00  0.00     0.057 A 
BRANCH  63  67
HETATM   67  O   UNK     0      19.486  46.844  14.475  0.00  0.00    -0.358 OA
HETATM   68  H   UNK     0      18.662  47.224  14.026  0.00  0.00     0.217 HD
ENDBRANCH  63  67
BRANCH  64  69
HETATM   69  O   UNK     0      18.232  48.267  16.464  0.00  0.00    -0.356 OA
HETATM   70  H   UNK     0      17.273  48.469  16.718  0.00  0.00     0.218 HD
ENDBRANCH  64  69
BRANCH  65  71
HETATM   71  O   UNK     0      18.047  47.215  18.993  0.00  0.00    -0.358 OA
HETATM   72  H   UNK     0      18.520  47.390  19.870  0.00  0.00     0.217 HD
ENDBRANCH  65  71
ENDBRANCH  59  61
ENDBRANCH  58  59
ENDBRANCH  17  58
BRANCH  20  73
HETATM   73  O   UNK     0      24.949  40.606  19.122  0.00  0.00    -0.390 OA
HETATM   74  H   UNK     0      24.446  39.732  19.034  0.00  0.00     0.210 HD
ENDBRANCH  20  73
BRANCH   5  75
HETATM   75  O   UNK     0      30.515  39.371  17.196  0.00  0.00    -0.358 OA
HETATM   76  H   UNK     0      30.828  38.693  16.514  0.00  0.00     0.217 HD
ENDBRANCH   5  75
BRANCH   3  77
HETATM   77  O   UNK     0      30.175  37.435  19.111  0.00  0.00    -0.357 OA
HETATM   78  H   UNK     0      30.680  37.589  19.973  0.00  0.00     0.217 HD
ENDBRANCH   3  77
BRANCH  12  79
HETATM   79  O   UNK     0      23.291  36.489  23.030  0.00  0.00    -0.304 OA
BRANCH  79  80
HETATM   80  C   UNK     0      22.267  35.633  23.325  0.00  0.00     0.129 A 
HETATM   81  C   UNK     0      20.983  36.000  23.703  0.00  0.00     0.077 A 
HETATM   82  C   UNK     0      20.050  35.016  24.008  0.00  0.00     0.060 A 
HETATM   83  C   UNK     0      20.389  33.673  23.935  0.00  0.00     0.102 A 
HETATM   84  C   UNK     0      21.665  33.308  23.547  0.00  0.00     0.135 A 
HETATM   85  C   UNK     0      22.593  34.285  23.244  0.00  0.00     0.137 A 
BRANCH  81  86
HETATM   86  C   UNK     0      20.584  37.407  23.787  0.00  0.00     0.179 C 
HETATM   87  O   UNK     0      19.718  37.840  23.063  0.00  0.00    -0.646 OA
BRANCH  86  88
HETATM   88  O   UNK     0      21.198  38.224  24.686  0.00  0.00    -0.773 OA
HETATM   89  H   UNK     0      21.961  38.819  24.390  0.00  0.00     0.167 HD
ENDBRANCH  86  88
ENDBRANCH  81  86
BRANCH  83  90
HETATM   90  O   UNK     0      19.473  32.714  24.241  0.00  0.00    -0.358 OA
HETATM   91  H   UNK     0      19.122  32.103  23.516  0.00  0.00     0.217 HD
ENDBRANCH  83  90
BRANCH  84  92
HETATM   92  O   UNK     0      22.010  31.994  23.467  0.00  0.00    -0.356 OA
HETATM   93  H   UNK     0      21.484  31.301  23.984  0.00  0.00     0.218 HD
ENDBRANCH  84  92
BRANCH  85  94
HETATM   94  O   UNK     0      23.848  33.923  22.862  0.00  0.00    -0.356 OA
HETATM   95  H   UNK     0      24.534  34.633  22.638  0.00  0.00     0.218 HD
ENDBRANCH  85  94
ENDBRANCH  79  80
ENDBRANCH  12  79
BRANCH  10  96
HETATM   96  O   UNK     0      25.859  36.444  23.127  0.00  0.00    -0.357 OA
HETATM   97  H   UNK     0      25.493  35.534  23.376  0.00  0.00     0.217 HD
ENDBRANCH  10  96
TORSDOF 26
