MODEL 1
REMARK VINA RESULT:    -6.347      0.000      0.000
REMARK INTER + INTRA:          -7.555
REMARK INTER:                  -7.453
REMARK INTRA:                  -0.102
REMARK UNBOUND:                -0.095
REMARK  Name = 287064
REMARK  5 active torsions:
REMARK  status: ('A' for Active; 'I' for Inactive)
REMARK    1  A    between atoms: O_1  and  C_11
REMARK    2  A    between atoms: O_1  and  C_12
REMARK    3  A    between atoms: O_2  and  C_8
REMARK    4  A    between atoms: O_3  and  C_9
REMARK    5  A    between atoms: C_5  and  C_11
REMARK                            x       y       z     vdW  Elec       q    Type
REMARK                         _______ _______ _______ _____ _____    ______ ____
ROOT
ATOM      1  C   UNL     1      84.650  26.878  39.019  0.00  0.00    +0.000 A 
ATOM      2  C   UNL     1      83.992  26.146  38.030  0.00  0.00    +0.000 A 
ATOM      3  C   UNL     1      85.769  26.341  39.656  0.00  0.00    +0.000 A 
ATOM      4  C   UNL     1      84.453  24.878  37.679  0.00  0.00    +0.000 A 
ATOM      5  C   UNL     1      85.572  24.341  38.316  0.00  0.00    +0.000 A 
ATOM      6  C   UNL     1      86.230  25.072  39.305  0.00  0.00    +0.000 A 
ENDROOT
BRANCH   4   7
ATOM      7  O   UNL     1      83.803  24.172  36.712  0.00  0.00    +0.000 OA
ATOM      8  H   UNL     1      84.227  24.360  35.857  0.00  0.00    +0.000 HD
ENDBRANCH   4   7
BRANCH   5   9
ATOM      9  O   UNL     1      86.031  23.103  37.981  0.00  0.00    +0.000 OA
ATOM     10  H   UNL     1      85.285  22.562  37.670  0.00  0.00    +0.000 HD
ENDBRANCH   5   9
BRANCH   1  12
ATOM     11  O   UNL     1      83.869  29.067  38.562  0.00  0.00    +0.000 OA
ATOM     12  C   UNL     1      84.169  28.201  39.387  0.00  0.00    +0.000 C 
BRANCH  12  13
ATOM     13  O   UNL     1      84.079  28.392  40.744  0.00  0.00    +0.000 OA
ATOM     14  C   UNL     1      84.480  29.676  41.233  0.00  0.00    +0.000 C 
ENDBRANCH  12  13
ENDBRANCH   1  12
TORSDOF 4
ENDMDL
MODEL 2
REMARK VINA RESULT:    -6.018     15.391     17.632
REMARK INTER + INTRA:          -7.169
REMARK INTER:                  -7.096
REMARK INTRA:                  -0.073
REMARK UNBOUND:                -0.095
REMARK  Name = 287064
REMARK  5 active torsions:
REMARK  status: ('A' for Active; 'I' for Inactive)
REMARK    1  A    between atoms: O_1  and  C_11
REMARK    2  A    between atoms: O_1  and  C_12
REMARK    3  A    between atoms: O_2  and  C_8
REMARK    4  A    between atoms: O_3  and  C_9
REMARK    5  A    between atoms: C_5  and  C_11
REMARK                            x       y       z     vdW  Elec       q    Type
REMARK                         _______ _______ _______ _____ _____    ______ ____
ROOT
ATOM      1  C   UNL     1      85.431  12.536  28.746  0.00  0.00    +0.000 A 
ATOM      2  C   UNL     1      85.736  11.862  27.563  0.00  0.00    +0.000 A 
ATOM      3  C   UNL     1      86.204  12.325  29.888  0.00  0.00    +0.000 A 
ATOM      4  C   UNL     1      86.812  10.976  27.524  0.00  0.00    +0.000 A 
ATOM      5  C   UNL     1      87.584  10.764  28.666  0.00  0.00    +0.000 A 
ATOM      6  C   UNL     1      87.280  11.438  29.849  0.00  0.00    +0.000 A 
ENDROOT
BRANCH   4   7
ATOM      7  O   UNL     1      87.100  10.321  26.364  0.00  0.00    +0.000 OA
ATOM      8  H   UNL     1      87.063   9.365  26.534  0.00  0.00    +0.000 HD
ENDBRANCH   4   7
BRANCH   5   9
ATOM      9  O   UNL     1      88.638   9.901  28.640  0.00  0.00    +0.000 OA
ATOM     10  H   UNL     1      89.398  10.341  28.222  0.00  0.00    +0.000 HD
ENDBRANCH   5   9
BRANCH   1  12
ATOM     11  O   UNL     1      83.144  13.103  28.987  0.00  0.00    +0.000 OA
ATOM     12  C   UNL     1      84.308  13.459  28.788  0.00  0.00    +0.000 C 
BRANCH  12  13
ATOM     13  O   UNL     1      84.669  14.769  28.585  0.00  0.00    +0.000 OA
ATOM     14  C   UNL     1      83.600  15.698  28.377  0.00  0.00    +0.000 C 
ENDBRANCH  12  13
ENDBRANCH   1  12
TORSDOF 4
ENDMDL
MODEL 3
REMARK VINA RESULT:    -5.835     17.450     18.581
REMARK INTER + INTRA:          -6.953
REMARK INTER:                  -6.877
REMARK INTRA:                  -0.076
REMARK UNBOUND:                -0.095
REMARK  Name = 287064
REMARK  5 active torsions:
REMARK  status: ('A' for Active; 'I' for Inactive)
REMARK    1  A    between atoms: O_1  and  C_11
REMARK    2  A    between atoms: O_1  and  C_12
REMARK    3  A    between atoms: O_2  and  C_8
REMARK    4  A    between atoms: O_3  and  C_9
REMARK    5  A    between atoms: C_5  and  C_11
REMARK                            x       y       z     vdW  Elec       q    Type
REMARK                         _______ _______ _______ _____ _____    ______ ____
ROOT
ATOM      1  C   UNL     1      87.499  10.854  30.135  0.00  0.00    +0.000 A 
ATOM      2  C   UNL     1      87.654  10.180  28.923  0.00  0.00    +0.000 A 
ATOM      3  C   UNL     1      86.672  11.975  30.209  0.00  0.00    +0.000 A 
ATOM      4  C   UNL     1      86.983  10.629  27.786  0.00  0.00    +0.000 A 
ATOM      5  C   UNL     1      86.156  11.749  27.860  0.00  0.00    +0.000 A 
ATOM      6  C   UNL     1      86.001  12.423  29.071  0.00  0.00    +0.000 A 
ENDROOT
BRANCH   4   7
ATOM      7  O   UNL     1      87.143   9.964  26.607  0.00  0.00    +0.000 OA
ATOM      8  H   UNL     1      86.440  10.248  25.998  0.00  0.00    +0.000 HD
ENDBRANCH   4   7
BRANCH   5   9
ATOM      9  O   UNL     1      85.495  12.197  26.756  0.00  0.00    +0.000 OA
ATOM     10  H   UNL     1      84.933  12.949  27.007  0.00  0.00    +0.000 HD
ENDBRANCH   5   9
BRANCH   1  12
ATOM     11  O   UNL     1      87.676   9.685  32.188  0.00  0.00    +0.000 OA
ATOM     12  C   UNL     1      88.201  10.388  31.321  0.00  0.00    +0.000 C 
BRANCH  12  13
ATOM     13  O   UNL     1      89.507  10.807  31.383  0.00  0.00    +0.000 OA
ATOM     14  C   UNL     1      90.345  10.139  32.333  0.00  0.00    +0.000 C 
ENDBRANCH  12  13
ENDBRANCH   1  12
TORSDOF 4
ENDMDL
MODEL 4
REMARK VINA RESULT:    -5.747     15.593     17.697
REMARK INTER + INTRA:          -6.850
REMARK INTER:                  -6.741
REMARK INTRA:                  -0.109
REMARK UNBOUND:                -0.095
REMARK  Name = 287064
REMARK  5 active torsions:
REMARK  status: ('A' for Active; 'I' for Inactive)
REMARK    1  A    between atoms: O_1  and  C_11
REMARK    2  A    between atoms: O_1  and  C_12
REMARK    3  A    between atoms: O_2  and  C_8
REMARK    4  A    between atoms: O_3  and  C_9
REMARK    5  A    between atoms: C_5  and  C_11
REMARK                            x       y       z     vdW  Elec       q    Type
REMARK                         _______ _______ _______ _____ _____    ______ ____
ROOT
ATOM      1  C   UNL     1      86.899  11.673  30.326  0.00  0.00    +0.000 A 
ATOM      2  C   UNL     1      86.206  12.234  29.253  0.00  0.00    +0.000 A 
ATOM      3  C   UNL     1      87.690  10.542  30.130  0.00  0.00    +0.000 A 
ATOM      4  C   UNL     1      86.305  11.663  27.985  0.00  0.00    +0.000 A 
ATOM      5  C   UNL     1      87.096  10.531  27.789  0.00  0.00    +0.000 A 
ATOM      6  C   UNL     1      87.789   9.970  28.861  0.00  0.00    +0.000 A 
ENDROOT
BRANCH   4   7
ATOM      7  O   UNL     1      85.623  12.218  26.944  0.00  0.00    +0.000 OA
ATOM      8  H   UNL     1      85.793  11.687  26.147  0.00  0.00    +0.000 HD
ENDBRANCH   4   7
BRANCH   5   9
ATOM      9  O   UNL     1      87.200   9.964  26.554  0.00  0.00    +0.000 OA
ATOM     10  H   UNL     1      87.285  10.668  25.889  0.00  0.00    +0.000 HD
ENDBRANCH   5   9
BRANCH   1  12
ATOM     11  O   UNL     1      86.499  13.449  31.841  0.00  0.00    +0.000 OA
ATOM     12  C   UNL     1      86.794  12.268  31.650  0.00  0.00    +0.000 C 
BRANCH  12  13
ATOM     13  O   UNL     1      87.057  11.384  32.668  0.00  0.00    +0.000 OA
ATOM     14  C   UNL     1      87.893  11.864  33.726  0.00  0.00    +0.000 C 
ENDBRANCH  12  13
ENDBRANCH   1  12
TORSDOF 4
ENDMDL
MODEL 5
REMARK VINA RESULT:    -5.719     30.172     32.101
REMARK INTER + INTRA:          -6.817
REMARK INTER:                  -6.708
REMARK INTRA:                  -0.109
REMARK UNBOUND:                -0.095
REMARK  Name = 287064
REMARK  5 active torsions:
REMARK  status: ('A' for Active; 'I' for Inactive)
REMARK    1  A    between atoms: O_1  and  C_11
REMARK    2  A    between atoms: O_1  and  C_12
REMARK    3  A    between atoms: O_2  and  C_8
REMARK    4  A    between atoms: O_3  and  C_9
REMARK    5  A    between atoms: C_5  and  C_11
REMARK                            x       y       z     vdW  Elec       q    Type
REMARK                         _______ _______ _______ _____ _____    ______ ____
ROOT
ATOM      1  C   UNL     1      74.686   6.573  15.811  0.00  0.00    +0.000 A 
ATOM      2  C   UNL     1      74.598   7.777  15.112  0.00  0.00    +0.000 A 
ATOM      3  C   UNL     1      75.849   6.258  16.513  0.00  0.00    +0.000 A 
ATOM      4  C   UNL     1      75.673   8.665  15.115  0.00  0.00    +0.000 A 
ATOM      5  C   UNL     1      76.836   8.351  15.817  0.00  0.00    +0.000 A 
ATOM      6  C   UNL     1      76.925   7.147  16.516  0.00  0.00    +0.000 A 
ENDROOT
BRANCH   4   7
ATOM      7  O   UNL     1      75.576   9.838  14.428  0.00  0.00    +0.000 OA
ATOM      8  H   UNL     1      75.311   9.637  13.514  0.00  0.00    +0.000 HD
ENDBRANCH   4   7
BRANCH   5   9
ATOM      9  O   UNL     1      77.892   9.210  15.827  0.00  0.00    +0.000 OA
ATOM     10  H   UNL     1      78.630   8.799  16.309  0.00  0.00    +0.000 HD
ENDBRANCH   5   9
BRANCH   1  12
ATOM     11  O   UNL     1      73.288   4.913  16.758  0.00  0.00    +0.000 OA
ATOM     12  C   UNL     1      73.565   5.645  15.806  0.00  0.00    +0.000 C 
BRANCH  12  13
ATOM     13  O   UNL     1      72.845   5.664  14.637  0.00  0.00    +0.000 OA
ATOM     14  C   UNL     1      72.809   4.441  13.893  0.00  0.00    +0.000 C 
ENDBRANCH  12  13
ENDBRANCH   1  12
TORSDOF 4
ENDMDL
MODEL 6
REMARK VINA RESULT:    -5.630     15.516     17.861
REMARK INTER + INTRA:          -6.713
REMARK INTER:                  -6.668
REMARK INTRA:                  -0.045
REMARK UNBOUND:                -0.095
REMARK  Name = 287064
REMARK  5 active torsions:
REMARK  status: ('A' for Active; 'I' for Inactive)
REMARK    1  A    between atoms: O_1  and  C_11
REMARK    2  A    between atoms: O_1  and  C_12
REMARK    3  A    between atoms: O_2  and  C_8
REMARK    4  A    between atoms: O_3  and  C_9
REMARK    5  A    between atoms: C_5  and  C_11
REMARK                            x       y       z     vdW  Elec       q    Type
REMARK                         _______ _______ _______ _____ _____    ______ ____
ROOT
ATOM      1  C   UNL     1      85.733  12.488  28.806  0.00  0.00    +0.000 A 
ATOM      2  C   UNL     1      86.646  11.516  29.215  0.00  0.00    +0.000 A 
ATOM      3  C   UNL     1      85.455  12.658  27.450  0.00  0.00    +0.000 A 
ATOM      4  C   UNL     1      87.282  10.715  28.267  0.00  0.00    +0.000 A 
ATOM      5  C   UNL     1      87.004  10.885  26.911  0.00  0.00    +0.000 A 
ATOM      6  C   UNL     1      86.091  11.856  26.502  0.00  0.00    +0.000 A 
ENDROOT
BRANCH   4   7
ATOM      7  O   UNL     1      88.173   9.769  28.677  0.00  0.00    +0.000 OA
ATOM      8  H   UNL     1      87.964   9.529  29.596  0.00  0.00    +0.000 HD
ENDBRANCH   4   7
BRANCH   5   9
ATOM      9  O   UNL     1      87.619  10.108  25.976  0.00  0.00    +0.000 OA
ATOM     10  H   UNL     1      87.972   9.311  26.408  0.00  0.00    +0.000 HD
ENDBRANCH   5   9
BRANCH   1  12
ATOM     11  O   UNL     1      84.943  13.005  30.978  0.00  0.00    +0.000 OA
ATOM     12  C   UNL     1      85.071  13.326  29.794  0.00  0.00    +0.000 C 
BRANCH  12  13
ATOM     13  O   UNL     1      84.601  14.509  29.281  0.00  0.00    +0.000 OA
ATOM     14  C   UNL     1      83.179  14.676  29.266  0.00  0.00    +0.000 C 
ENDBRANCH  12  13
ENDBRANCH   1  12
TORSDOF 4
ENDMDL
MODEL 7
REMARK VINA RESULT:    -5.602      2.073      4.610
REMARK INTER + INTRA:          -6.679
REMARK INTER:                  -6.577
REMARK INTRA:                  -0.102
REMARK UNBOUND:                -0.095
REMARK  Name = 287064
REMARK  5 active torsions:
REMARK  status: ('A' for Active; 'I' for Inactive)
REMARK    1  A    between atoms: O_1  and  C_11
REMARK    2  A    between atoms: O_1  and  C_12
REMARK    3  A    between atoms: O_2  and  C_8
REMARK    4  A    between atoms: O_3  and  C_9
REMARK    5  A    between atoms: C_5  and  C_11
REMARK                            x       y       z     vdW  Elec       q    Type
REMARK                         _______ _______ _______ _____ _____    ______ ____
ROOT
ATOM      1  C   UNL     1      83.795  25.291  36.906  0.00  0.00    +0.000 A 
ATOM      2  C   UNL     1      84.856  24.447  37.237  0.00  0.00    +0.000 A 
ATOM      3  C   UNL     1      83.537  26.422  37.681  0.00  0.00    +0.000 A 
ATOM      4  C   UNL     1      85.656  24.733  38.342  0.00  0.00    +0.000 A 
ATOM      5  C   UNL     1      85.398  25.863  39.117  0.00  0.00    +0.000 A 
ATOM      6  C   UNL     1      84.338  26.708  38.787  0.00  0.00    +0.000 A 
ENDROOT
BRANCH   4   7
ATOM      7  O   UNL     1      86.689  23.901  38.655  0.00  0.00    +0.000 OA
ATOM      8  H   UNL     1      87.515  24.413  38.626  0.00  0.00    +0.000 HD
ENDBRANCH   4   7
BRANCH   5   9
ATOM      9  O   UNL     1      86.173  26.153  40.199  0.00  0.00    +0.000 OA
ATOM     10  H   UNL     1      85.975  27.057  40.498  0.00  0.00    +0.000 HD
ENDBRANCH   5   9
BRANCH   1  12
ATOM     11  O   UNL     1      81.935  25.622  35.478  0.00  0.00    +0.000 OA
ATOM     12  C   UNL     1      82.958  24.992  35.755  0.00  0.00    +0.000 C 
BRANCH  12  13
ATOM     13  O   UNL     1      83.419  23.939  35.004  0.00  0.00    +0.000 OA
ATOM     14  C   UNL     1      83.031  23.923  33.626  0.00  0.00    +0.000 C 
ENDBRANCH  12  13
ENDBRANCH   1  12
TORSDOF 4
ENDMDL
MODEL 8
REMARK VINA RESULT:    -5.595     11.506     12.606
REMARK INTER + INTRA:          -6.671
REMARK INTER:                  -6.615
REMARK INTRA:                  -0.057
REMARK UNBOUND:                -0.095
REMARK  Name = 287064
REMARK  5 active torsions:
REMARK  status: ('A' for Active; 'I' for Inactive)
REMARK    1  A    between atoms: O_1  and  C_11
REMARK    2  A    between atoms: O_1  and  C_12
REMARK    3  A    between atoms: O_2  and  C_8
REMARK    4  A    between atoms: O_3  and  C_9
REMARK    5  A    between atoms: C_5  and  C_11
REMARK                            x       y       z     vdW  Elec       q    Type
REMARK                         _______ _______ _______ _____ _____    ______ ____
ROOT
ATOM      1  C   UNL     1      90.227  16.021  43.563  0.00  0.00    +0.000 A 
ATOM      2  C   UNL     1      90.746  16.015  42.268  0.00  0.00    +0.000 A 
ATOM      3  C   UNL     1      89.071  15.296  43.854  0.00  0.00    +0.000 A 
ATOM      4  C   UNL     1      90.110  15.284  41.265  0.00  0.00    +0.000 A 
ATOM      5  C   UNL     1      88.954  14.560  41.556  0.00  0.00    +0.000 A 
ATOM      6  C   UNL     1      88.434  14.565  42.850  0.00  0.00    +0.000 A 
ENDROOT
BRANCH   4   7
ATOM      7  O   UNL     1      90.625  15.286  40.004  0.00  0.00    +0.000 OA
ATOM      8  H   UNL     1      89.929  15.572  39.388  0.00  0.00    +0.000 HD
ENDBRANCH   4   7
BRANCH   5   9
ATOM      9  O   UNL     1      88.323  13.842  40.585  0.00  0.00    +0.000 OA
ATOM     10  H   UNL     1      87.613  13.316  40.990  0.00  0.00    +0.000 HD
ENDBRANCH   5   9
BRANCH   1  12
ATOM     11  O   UNL     1      90.757  16.545  45.811  0.00  0.00    +0.000 OA
ATOM     12  C   UNL     1      90.889  16.785  44.609  0.00  0.00    +0.000 C 
BRANCH  12  13
ATOM     13  O   UNL     1      91.679  17.800  44.127  0.00  0.00    +0.000 OA
ATOM     14  C   UNL     1      91.060  19.086  44.010  0.00  0.00    +0.000 C 
ENDBRANCH  12  13
ENDBRANCH   1  12
TORSDOF 4
ENDMDL
MODEL 9
REMARK VINA RESULT:    -5.501     30.202     31.489
REMARK INTER + INTRA:          -6.561
REMARK INTER:                  -6.462
REMARK INTRA:                  -0.099
REMARK UNBOUND:                -0.095
REMARK  Name = 287064
REMARK  5 active torsions:
REMARK  status: ('A' for Active; 'I' for Inactive)
REMARK    1  A    between atoms: O_1  and  C_11
REMARK    2  A    between atoms: O_1  and  C_12
REMARK    3  A    between atoms: O_2  and  C_8
REMARK    4  A    between atoms: O_3  and  C_9
REMARK    5  A    between atoms: C_5  and  C_11
REMARK                            x       y       z     vdW  Elec       q    Type
REMARK                         _______ _______ _______ _____ _____    ______ ____
ROOT
ATOM      1  C   UNL     1      75.642   6.329  16.622  0.00  0.00    +0.000 A 
ATOM      2  C   UNL     1      76.763   7.158  16.590  0.00  0.00    +0.000 A 
ATOM      3  C   UNL     1      74.497   6.677  15.905  0.00  0.00    +0.000 A 
ATOM      4  C   UNL     1      76.739   8.334  15.843  0.00  0.00    +0.000 A 
ATOM      5  C   UNL     1      75.595   8.683  15.126  0.00  0.00    +0.000 A 
ATOM      6  C   UNL     1      74.473   7.854  15.157  0.00  0.00    +0.000 A 
ENDROOT
BRANCH   4   7
ATOM      7  O   UNL     1      77.840   9.137  15.820  0.00  0.00    +0.000 OA
ATOM      8  H   UNL     1      77.545  10.061  15.760  0.00  0.00    +0.000 HD
ENDBRANCH   4   7
BRANCH   5   9
ATOM      9  O   UNL     1      75.560   9.830  14.392  0.00  0.00    +0.000 OA
ATOM     10  H   UNL     1      76.414   9.945  13.943  0.00  0.00    +0.000 HD
ENDBRANCH   5   9
BRANCH   1  12
ATOM     11  O   UNL     1      76.681   4.665  17.949  0.00  0.00    +0.000 OA
ATOM     12  C   UNL     1      75.665   5.102  17.403  0.00  0.00    +0.000 C 
BRANCH  12  13
ATOM     13  O   UNL     1      74.445   4.476  17.475  0.00  0.00    +0.000 OA
ATOM     14  C   UNL     1      74.384   3.291  18.277  0.00  0.00    +0.000 C 
ENDBRANCH  12  13
ENDBRANCH   1  12
TORSDOF 4
ENDMDL
MODEL 10
REMARK VINA RESULT:    -5.318     11.560     13.285
REMARK INTER + INTRA:          -6.346
REMARK INTER:                  -6.251
REMARK INTRA:                  -0.095
REMARK UNBOUND:                -0.095
REMARK  Name = 287064
REMARK  5 active torsions:
REMARK  status: ('A' for Active; 'I' for Inactive)
REMARK    1  A    between atoms: O_1  and  C_11
REMARK    2  A    between atoms: O_1  and  C_12
REMARK    3  A    between atoms: O_2  and  C_8
REMARK    4  A    between atoms: O_3  and  C_9
REMARK    5  A    between atoms: C_5  and  C_11
REMARK                            x       y       z     vdW  Elec       q    Type
REMARK                         _______ _______ _______ _____ _____    ______ ____
ROOT
ATOM      1  C   UNL     1      91.298  16.041  43.239  0.00  0.00    +0.000 A 
ATOM      2  C   UNL     1      92.477  15.349  42.964  0.00  0.00    +0.000 A 
ATOM      3  C   UNL     1      90.220  15.960  42.357  0.00  0.00    +0.000 A 
ATOM      4  C   UNL     1      92.579  14.576  41.808  0.00  0.00    +0.000 A 
ATOM      5  C   UNL     1      91.501  14.495  40.926  0.00  0.00    +0.000 A 
ATOM      6  C   UNL     1      90.322  15.187  41.200  0.00  0.00    +0.000 A 
ENDROOT
BRANCH   4   7
ATOM      7  O   UNL     1      93.736  13.905  41.549  0.00  0.00    +0.000 OA
ATOM      8  H   UNL     1      94.345  14.508  41.091  0.00  0.00    +0.000 HD
ENDBRANCH   4   7
BRANCH   5   9
ATOM      9  O   UNL     1      91.588  13.743  39.793  0.00  0.00    +0.000 OA
ATOM     10  H   UNL     1      91.387  12.817  40.011  0.00  0.00    +0.000 HD
ENDBRANCH   5   9
BRANCH   1  12
ATOM     11  O   UNL     1      90.589  16.483  45.455  0.00  0.00    +0.000 OA
ATOM     12  C   UNL     1      91.192  16.849  44.444  0.00  0.00    +0.000 C 
BRANCH  12  13
ATOM     13  O   UNL     1      91.831  18.061  44.347  0.00  0.00    +0.000 OA
ATOM     14  C   UNL     1      91.030  19.170  43.923  0.00  0.00    +0.000 C 
ENDBRANCH  12  13
ENDBRANCH   1  12
TORSDOF 4
ENDMDL
