MODEL 1
REMARK VINA RESULT:      -7.0      0.000      0.000
REMARK  6 active torsions:
REMARK  status: ('A' for Active; 'I' for Inactive)
REMARK    1  A    between atoms: O_2  and  C_9 
REMARK    2  A    between atoms: O_4  and  C_14 
REMARK    3  A    between atoms: O_5  and  C_19 
REMARK    4  A    between atoms: O_6  and  C_20 
REMARK    5  A    between atoms: O_7  and  C_22 
REMARK    6  A    between atoms: C_8  and  C_10 
ROOT
HETATM    1  O   UNK     0      -5.786   1.510 -23.354  0.00  0.00    -0.337 OA
HETATM    2  O   UNK     0      -7.784   4.989 -24.219  0.00  0.00    -0.289 OA
HETATM    3  C   UNK     0      -5.487   2.267 -24.537  0.00  0.00     0.198 C 
HETATM    4  C   UNK     0      -5.707   3.763 -24.310  0.00  0.00     0.227 C 
HETATM    5  C   UNK     0      -7.149   3.987 -23.911  0.00  0.00     0.196 C 
HETATM    6  C   UNK     0      -7.753   2.926 -23.081  0.00  0.00     0.079 A 
HETATM    7  C   UNK     0      -7.030   1.757 -22.837  0.00  0.00     0.089 A 
HETATM    8  C   UNK     0      -9.022   3.102 -22.521  0.00  0.00     0.085 A 
HETATM    9  C   UNK     0      -7.564   0.775 -22.001  0.00  0.00     0.074 A 
HETATM   10  C   UNK     0      -9.558   2.109 -21.703  0.00  0.00     0.074 A 
HETATM   11  C   UNK     0      -8.829   0.949 -21.438  0.00  0.00     0.071 A 
ENDROOT
BRANCH   3  12
HETATM   12  C   UNK     0      -4.051   1.960 -24.915  0.00  0.00    -0.023 A 
HETATM   13  C   UNK     0      -3.773   0.916 -25.795  0.00  0.00     0.049 A 
HETATM   14  C   UNK     0      -2.451   0.633 -26.144  0.00  0.00     0.099 A 
HETATM   15  C   UNK     0      -1.412   1.395 -25.610  0.00  0.00     0.098 A 
HETATM   16  C   UNK     0      -1.693   2.440 -24.730  0.00  0.00     0.040 A 
HETATM   17  C   UNK     0      -3.013   2.722 -24.382  0.00  0.00     0.013 A 
BRANCH  14  18
HETATM   18  O   UNK     0      -2.189  -0.389 -27.004  0.00  0.00    -0.358 OA
HETATM   19  H   UNK     0      -2.889  -1.058 -26.907  0.00  0.00     0.217 HD
ENDBRANCH  14  18
BRANCH  15  20
HETATM   20  O   UNK     0      -0.117   1.129 -25.944  0.00  0.00    -0.358 OA
HETATM   21  H   UNK     0       0.343   0.771 -25.165  0.00  0.00     0.217 HD
ENDBRANCH  15  20
ENDBRANCH   3  12
BRANCH   4  22
HETATM   22  O   UNK     0      -5.463   4.481 -25.507  0.00  0.00    -0.385 OA
HETATM   23  H   UNK     0      -4.599   4.196 -25.849  0.00  0.00     0.210 HD
ENDBRANCH   4  22
BRANCH   8  24
HETATM   24  O   UNK     0      -9.770   4.222 -22.730  0.00  0.00    -0.360 OA
HETATM   25  H   UNK     0      -9.204   4.976 -22.950  0.00  0.00     0.217 HD
ENDBRANCH   8  24
BRANCH  11  26
HETATM   26  O   UNK     0      -9.353  -0.014 -20.632  0.00  0.00    -0.361 OA
HETATM   27  H   UNK     0      -9.475   0.353 -19.739  0.00  0.00     0.217 HD
ENDBRANCH  11  26
TORSDOF 6
ENDMDL
MODEL 2
REMARK VINA RESULT:      -6.9      1.674      6.604
REMARK  6 active torsions:
REMARK  status: ('A' for Active; 'I' for Inactive)
REMARK    1  A    between atoms: O_2  and  C_9 
REMARK    2  A    between atoms: O_4  and  C_14 
REMARK    3  A    between atoms: O_5  and  C_19 
REMARK    4  A    between atoms: O_6  and  C_20 
REMARK    5  A    between atoms: O_7  and  C_22 
REMARK    6  A    between atoms: C_8  and  C_10 
ROOT
HETATM    1  O   UNK     0      -6.398   1.947 -23.548  0.00  0.00    -0.337 OA
HETATM    2  O   UNK     0      -4.107   4.901 -25.242  0.00  0.00    -0.289 OA
HETATM    3  C   UNK     0      -6.558   3.324 -23.170  0.00  0.00     0.198 C 
HETATM    4  C   UNK     0      -6.252   4.259 -24.341  0.00  0.00     0.227 C 
HETATM    5  C   UNK     0      -4.830   4.017 -24.797  0.00  0.00     0.196 C 
HETATM    6  C   UNK     0      -4.362   2.620 -24.711  0.00  0.00     0.079 A 
HETATM    7  C   UNK     0      -5.180   1.663 -24.105  0.00  0.00     0.089 A 
HETATM    8  C   UNK     0      -3.128   2.252 -25.254  0.00  0.00     0.085 A 
HETATM    9  C   UNK     0      -4.776   0.327 -24.075  0.00  0.00     0.074 A 
HETATM   10  C   UNK     0      -2.722   0.919 -25.203  0.00  0.00     0.074 A 
HETATM   11  C   UNK     0      -3.546  -0.043 -24.619  0.00  0.00     0.071 A 
ENDROOT
BRANCH   3  12
HETATM   12  C   UNK     0      -7.981   3.491 -22.674  0.00  0.00    -0.023 A 
HETATM   13  C   UNK     0      -8.867   2.417 -22.733  0.00  0.00     0.049 A 
HETATM   14  C   UNK     0     -10.177   2.570 -22.277  0.00  0.00     0.099 A 
HETATM   15  C   UNK     0     -10.597   3.797 -21.763  0.00  0.00     0.098 A 
HETATM   16  C   UNK     0      -9.708   4.871 -21.704  0.00  0.00     0.040 A 
HETATM   17  C   UNK     0      -8.400   4.717 -22.161  0.00  0.00     0.013 A 
BRANCH  14  18
HETATM   18  O   UNK     0     -11.036   1.515 -22.338  0.00  0.00    -0.358 OA
HETATM   19  H   UNK     0     -10.580   0.775 -22.775  0.00  0.00     0.217 HD
ENDBRANCH  14  18
BRANCH  15  20
HETATM   20  O   UNK     0     -11.873   3.958 -21.313  0.00  0.00    -0.358 OA
HETATM   21  H   UNK     0     -12.008   4.891 -21.072  0.00  0.00     0.217 HD
ENDBRANCH  15  20
ENDBRANCH   3  12
BRANCH   4  22
HETATM   22  O   UNK     0      -6.359   5.611 -23.928  0.00  0.00    -0.385 OA
HETATM   23  H   UNK     0      -7.299   5.794 -23.764  0.00  0.00     0.210 HD
ENDBRANCH   4  22
BRANCH   8  24
HETATM   24  O   UNK     0      -2.291   3.145 -25.852  0.00  0.00    -0.360 OA
HETATM   25  H   UNK     0      -2.718   3.554 -26.620  0.00  0.00     0.217 HD
ENDBRANCH   8  24
BRANCH  11  26
HETATM   26  O   UNK     0      -3.150  -1.345 -24.579  0.00  0.00    -0.361 OA
HETATM   27  H   UNK     0      -3.865  -1.904 -24.928  0.00  0.00     0.217 HD
ENDBRANCH  11  26
TORSDOF 6
ENDMDL
MODEL 3
REMARK VINA RESULT:      -6.8      0.624      1.464
REMARK  6 active torsions:
REMARK  status: ('A' for Active; 'I' for Inactive)
REMARK    1  A    between atoms: O_2  and  C_9 
REMARK    2  A    between atoms: O_4  and  C_14 
REMARK    3  A    between atoms: O_5  and  C_19 
REMARK    4  A    between atoms: O_6  and  C_20 
REMARK    5  A    between atoms: O_7  and  C_22 
REMARK    6  A    between atoms: C_8  and  C_10 
ROOT
HETATM    1  O   UNK     0      -5.776   1.485 -23.311  0.00  0.00    -0.337 OA
HETATM    2  O   UNK     0      -7.746   4.957 -24.264  0.00  0.00    -0.289 OA
HETATM    3  C   UNK     0      -5.443   2.230 -24.493  0.00  0.00     0.198 C 
HETATM    4  C   UNK     0      -5.668   3.728 -24.285  0.00  0.00     0.227 C 
HETATM    5  C   UNK     0      -7.121   3.957 -23.929  0.00  0.00     0.196 C 
HETATM    6  C   UNK     0      -7.749   2.905 -23.106  0.00  0.00     0.079 A 
HETATM    7  C   UNK     0      -7.033   1.737 -22.832  0.00  0.00     0.089 A 
HETATM    8  C   UNK     0      -9.032   3.086 -22.583  0.00  0.00     0.085 A 
HETATM    9  C   UNK     0      -7.591   0.763 -22.002  0.00  0.00     0.074 A 
HETATM   10  C   UNK     0      -9.591   2.101 -21.771  0.00  0.00     0.074 A 
HETATM   11  C   UNK     0      -8.871   0.943 -21.476  0.00  0.00     0.071 A 
ENDROOT
BRANCH   3  12
HETATM   12  C   UNK     0      -3.997   1.919 -24.829  0.00  0.00    -0.023 A 
HETATM   13  C   UNK     0      -2.984   2.763 -24.379  0.00  0.00     0.049 A 
HETATM   14  C   UNK     0      -1.653   2.478 -24.687  0.00  0.00     0.099 A 
HETATM   15  C   UNK     0      -1.340   1.350 -25.446  0.00  0.00     0.098 A 
HETATM   16  C   UNK     0      -2.356   0.506 -25.895  0.00  0.00     0.040 A 
HETATM   17  C   UNK     0      -3.686   0.792 -25.587  0.00  0.00     0.013 A 
BRANCH  14  18
HETATM   18  O   UNK     0      -0.670   3.308 -24.242  0.00  0.00    -0.358 OA
HETATM   19  H   UNK     0      -0.099   2.807 -23.633  0.00  0.00     0.217 HD
ENDBRANCH  14  18
BRANCH  15  20
HETATM   20  O   UNK     0      -0.044   1.060 -25.752  0.00  0.00    -0.358 OA
HETATM   21  H   UNK     0       0.082   0.096 -25.714  0.00  0.00     0.217 HD
ENDBRANCH  15  20
ENDBRANCH   3  12
BRANCH   4  22
HETATM   22  O   UNK     0      -5.391   4.435 -25.482  0.00  0.00    -0.385 OA
HETATM   23  H   UNK     0      -4.690   3.953 -25.952  0.00  0.00     0.210 HD
ENDBRANCH   4  22
BRANCH   8  24
HETATM   24  O   UNK     0      -9.773   4.204 -22.823  0.00  0.00    -0.360 OA
HETATM   25  H   UNK     0     -10.596   3.977 -23.283  0.00  0.00     0.217 HD
ENDBRANCH   8  24
BRANCH  11  26
HETATM   26  O   UNK     0      -9.418  -0.012 -20.676  0.00  0.00    -0.361 OA
HETATM   27  H   UNK     0      -9.693  -0.766 -21.226  0.00  0.00     0.217 HD
ENDBRANCH  11  26
TORSDOF 6
ENDMDL
MODEL 4
REMARK VINA RESULT:      -6.4      1.404      2.910
REMARK  6 active torsions:
REMARK  status: ('A' for Active; 'I' for Inactive)
REMARK    1  A    between atoms: O_2  and  C_9 
REMARK    2  A    between atoms: O_4  and  C_14 
REMARK    3  A    between atoms: O_5  and  C_19 
REMARK    4  A    between atoms: O_6  and  C_20 
REMARK    5  A    between atoms: O_7  and  C_22 
REMARK    6  A    between atoms: C_8  and  C_10 
ROOT
HETATM    1  O   UNK     0      -5.948   3.637 -24.406  0.00  0.00    -0.337 OA
HETATM    2  O   UNK     0      -7.363   0.485 -22.192  0.00  0.00    -0.289 OA
HETATM    3  C   UNK     0      -5.072   2.595 -23.948  0.00  0.00     0.198 C 
HETATM    4  C   UNK     0      -5.802   1.254 -23.864  0.00  0.00     0.227 C 
HETATM    5  C   UNK     0      -6.969   1.395 -22.912  0.00  0.00     0.196 C 
HETATM    6  C   UNK     0      -7.647   2.706 -22.924  0.00  0.00     0.079 A 
HETATM    7  C   UNK     0      -7.105   3.746 -23.683  0.00  0.00     0.089 A 
HETATM    8  C   UNK     0      -8.832   2.897 -22.208  0.00  0.00     0.085 A 
HETATM    9  C   UNK     0      -7.772   4.971 -23.754  0.00  0.00     0.074 A 
HETATM   10  C   UNK     0      -9.482   4.129 -22.267  0.00  0.00     0.074 A 
HETATM   11  C   UNK     0      -8.957   5.163 -23.042  0.00  0.00     0.071 A 
ENDROOT
BRANCH   3  12
HETATM   12  C   UNK     0      -3.900   2.538 -24.910  0.00  0.00    -0.023 A 
HETATM   13  C   UNK     0      -3.933   1.663 -25.993  0.00  0.00     0.049 A 
HETATM   14  C   UNK     0      -2.855   1.610 -26.878  0.00  0.00     0.099 A 
HETATM   15  C   UNK     0      -1.747   2.432 -26.676  0.00  0.00     0.098 A 
HETATM   16  C   UNK     0      -1.716   3.308 -25.590  0.00  0.00     0.040 A 
HETATM   17  C   UNK     0      -2.793   3.361 -24.706  0.00  0.00     0.013 A 
BRANCH  14  18
HETATM   18  O   UNK     0      -2.897   0.753 -27.934  0.00  0.00    -0.358 OA
HETATM   19  H   UNK     0      -2.927  -0.157 -27.589  0.00  0.00     0.217 HD
ENDBRANCH  14  18
BRANCH  15  20
HETATM   20  O   UNK     0      -0.688   2.391 -27.533  0.00  0.00    -0.358 OA
HETATM   21  H   UNK     0      -0.693   3.195 -28.080  0.00  0.00     0.217 HD
ENDBRANCH  15  20
ENDBRANCH   3  12
BRANCH   4  22
HETATM   22  O   UNK     0      -4.934   0.256 -23.354  0.00  0.00    -0.385 OA
HETATM   23  H   UNK     0      -4.261   0.078 -24.033  0.00  0.00     0.210 HD
ENDBRANCH   4  22
BRANCH   8  24
HETATM   24  O   UNK     0      -9.400   1.918 -21.450  0.00  0.00    -0.360 OA
HETATM   25  H   UNK     0      -9.690   1.179 -22.006  0.00  0.00     0.217 HD
ENDBRANCH   8  24
BRANCH  11  26
HETATM   26  O   UNK     0      -9.600   6.361 -23.104  0.00  0.00    -0.361 OA
HETATM   27  H   UNK     0     -10.254   6.332 -23.823  0.00  0.00     0.217 HD
ENDBRANCH  11  26
TORSDOF 6
ENDMDL
MODEL 5
REMARK VINA RESULT:      -6.3      2.401      7.536
REMARK  6 active torsions:
REMARK  status: ('A' for Active; 'I' for Inactive)
REMARK    1  A    between atoms: O_2  and  C_9 
REMARK    2  A    between atoms: O_4  and  C_14 
REMARK    3  A    between atoms: O_5  and  C_19 
REMARK    4  A    between atoms: O_6  and  C_20 
REMARK    5  A    between atoms: O_7  and  C_22 
REMARK    6  A    between atoms: C_8  and  C_10 
ROOT
HETATM    1  O   UNK     0      -4.180   1.096 -26.892  0.00  0.00    -0.337 OA
HETATM    2  O   UNK     0      -0.336  -0.059 -26.034  0.00  0.00    -0.289 OA
HETATM    3  C   UNK     0      -3.807   0.669 -25.573  0.00  0.00     0.198 C 
HETATM    4  C   UNK     0      -2.352   1.024 -25.265  0.00  0.00     0.227 C 
HETATM    5  C   UNK     0      -1.461   0.355 -26.289  0.00  0.00     0.196 C 
HETATM    6  C   UNK     0      -2.019   0.258 -27.652  0.00  0.00     0.079 A 
HETATM    7  C   UNK     0      -3.340   0.649 -27.877  0.00  0.00     0.089 A 
HETATM    8  C   UNK     0      -1.225  -0.193 -28.711  0.00  0.00     0.085 A 
HETATM    9  C   UNK     0      -3.859   0.622 -29.173  0.00  0.00     0.074 A 
HETATM   10  C   UNK     0      -1.755  -0.235 -30.000  0.00  0.00     0.074 A 
HETATM   11  C   UNK     0      -3.067   0.176 -30.233  0.00  0.00     0.071 A 
ENDROOT
BRANCH   3  12
HETATM   12  C   UNK     0      -4.765   1.329 -24.599  0.00  0.00    -0.023 A 
HETATM   13  C   UNK     0      -5.619   0.545 -23.827  0.00  0.00     0.049 A 
HETATM   14  C   UNK     0      -6.501   1.151 -22.932  0.00  0.00     0.099 A 
HETATM   15  C   UNK     0      -6.526   2.540 -22.812  0.00  0.00     0.098 A 
HETATM   16  C   UNK     0      -5.669   3.324 -23.585  0.00  0.00     0.040 A 
HETATM   17  C   UNK     0      -4.788   2.717 -24.480  0.00  0.00     0.013 A 
BRANCH  14  18
HETATM   18  O   UNK     0      -7.332   0.376 -22.181  0.00  0.00    -0.358 OA
HETATM   19  H   UNK     0      -7.199   0.603 -21.244  0.00  0.00     0.217 HD
ENDBRANCH  14  18
BRANCH  15  20
HETATM   20  O   UNK     0      -7.382   3.144 -21.940  0.00  0.00    -0.358 OA
HETATM   21  H   UNK     0      -6.980   3.973 -21.625  0.00  0.00     0.217 HD
ENDBRANCH  15  20
ENDBRANCH   3  12
BRANCH   4  22
HETATM   22  O   UNK     0      -1.990   0.541 -23.983  0.00  0.00    -0.385 OA
HETATM   23  H   UNK     0      -1.154   0.969 -23.733  0.00  0.00     0.210 HD
ENDBRANCH   4  22
BRANCH   8  24
HETATM   24  O   UNK     0       0.068  -0.589 -28.546  0.00  0.00    -0.360 OA
HETATM   25  H   UNK     0       0.171  -1.525 -28.775  0.00  0.00     0.217 HD
ENDBRANCH   8  24
BRANCH  11  26
HETATM   26  O   UNK     0      -3.578   0.141 -31.494  0.00  0.00    -0.361 OA
HETATM   27  H   UNK     0      -2.961  -0.342 -32.071  0.00  0.00     0.217 HD
ENDBRANCH  11  26
TORSDOF 6
ENDMDL
MODEL 6
REMARK VINA RESULT:      -6.3      4.667      7.093
REMARK  6 active torsions:
REMARK  status: ('A' for Active; 'I' for Inactive)
REMARK    1  A    between atoms: O_2  and  C_9 
REMARK    2  A    between atoms: O_4  and  C_14 
REMARK    3  A    between atoms: O_5  and  C_19 
REMARK    4  A    between atoms: O_6  and  C_20 
REMARK    5  A    between atoms: O_7  and  C_22 
REMARK    6  A    between atoms: C_8  and  C_10 
ROOT
HETATM    1  O   UNK     0      -2.657  -0.355 -28.708  0.00  0.00    -0.337 OA
HETATM    2  O   UNK     0      -4.110   3.478 -28.905  0.00  0.00    -0.289 OA
HETATM    3  C   UNK     0      -3.358   0.117 -29.868  0.00  0.00     0.198 C 
HETATM    4  C   UNK     0      -3.129   1.614 -30.084  0.00  0.00     0.227 C 
HETATM    5  C   UNK     0      -3.609   2.360 -28.858  0.00  0.00     0.196 C 
HETATM    6  C   UNK     0      -3.405   1.668 -27.570  0.00  0.00     0.079 A 
HETATM    7  C   UNK     0      -2.925   0.357 -27.569  0.00  0.00     0.089 A 
HETATM    8  C   UNK     0      -3.660   2.328 -26.365  0.00  0.00     0.085 A 
HETATM    9  C   UNK     0      -2.667  -0.284 -26.357  0.00  0.00     0.074 A 
HETATM   10  C   UNK     0      -3.418   1.675 -25.157  0.00  0.00     0.074 A 
HETATM   11  C   UNK     0      -2.918   0.373 -25.152  0.00  0.00     0.071 A 
ENDROOT
BRANCH   3  12
HETATM   12  C   UNK     0      -2.874  -0.702 -31.050  0.00  0.00    -0.023 A 
HETATM   13  C   UNK     0      -3.792  -1.393 -31.837  0.00  0.00     0.049 A 
HETATM   14  C   UNK     0      -3.348  -2.147 -32.925  0.00  0.00     0.099 A 
HETATM   15  C   UNK     0      -1.986  -2.208 -33.220  0.00  0.00     0.098 A 
HETATM   16  C   UNK     0      -1.069  -1.514 -32.430  0.00  0.00     0.040 A 
HETATM   17  C   UNK     0      -1.513  -0.761 -31.344  0.00  0.00     0.013 A 
BRANCH  14  18
HETATM   18  O   UNK     0      -4.253  -2.819 -33.689  0.00  0.00    -0.358 OA
HETATM   19  H   UNK     0      -3.850  -2.992 -34.557  0.00  0.00     0.217 HD
ENDBRANCH  14  18
BRANCH  15  20
HETATM   20  O   UNK     0      -1.540  -2.939 -34.280  0.00  0.00    -0.358 OA
HETATM   21  H   UNK     0      -0.685  -2.580 -34.575  0.00  0.00     0.217 HD
ENDBRANCH  15  20
ENDBRANCH   3  12
BRANCH   4  22
HETATM   22  O   UNK     0      -3.878   2.068 -31.198  0.00  0.00    -0.385 OA
HETATM   23  H   UNK     0      -4.751   1.643 -31.158  0.00  0.00     0.210 HD
ENDBRANCH   4  22
BRANCH   8  24
HETATM   24  O   UNK     0      -4.131   3.605 -26.309  0.00  0.00    -0.360 OA
HETATM   25  H   UNK     0      -5.081   3.612 -26.115  0.00  0.00     0.217 HD
ENDBRANCH   8  24
BRANCH  11  26
HETATM   26  O   UNK     0      -2.675  -0.258 -23.970  0.00  0.00    -0.361 OA
HETATM   27  H   UNK     0      -2.125   0.318 -23.412  0.00  0.00     0.217 HD
ENDBRANCH  11  26
TORSDOF 6
ENDMDL
MODEL 7
REMARK VINA RESULT:      -6.2      1.675      7.149
REMARK  6 active torsions:
REMARK  status: ('A' for Active; 'I' for Inactive)
REMARK    1  A    between atoms: O_2  and  C_9 
REMARK    2  A    between atoms: O_4  and  C_14 
REMARK    3  A    between atoms: O_5  and  C_19 
REMARK    4  A    between atoms: O_6  and  C_20 
REMARK    5  A    between atoms: O_7  and  C_22 
REMARK    6  A    between atoms: C_8  and  C_10 
ROOT
HETATM    1  O   UNK     0      -4.573   3.459 -24.196  0.00  0.00    -0.337 OA
HETATM    2  O   UNK     0      -3.390  -0.206 -25.613  0.00  0.00    -0.289 OA
HETATM    3  C   UNK     0      -5.523   2.405 -24.421  0.00  0.00     0.198 C 
HETATM    4  C   UNK     0      -4.893   1.032 -24.186  0.00  0.00     0.227 C 
HETATM    5  C   UNK     0      -3.717   0.869 -25.125  0.00  0.00     0.196 C 
HETATM    6  C   UNK     0      -2.945   2.098 -25.398  0.00  0.00     0.079 A 
HETATM    7  C   UNK     0      -3.410   3.318 -24.903  0.00  0.00     0.089 A 
HETATM    8  C   UNK     0      -1.749   2.036 -26.117  0.00  0.00     0.085 A 
HETATM    9  C   UNK     0      -2.655   4.476 -25.100  0.00  0.00     0.074 A 
HETATM   10  C   UNK     0      -1.009   3.199 -26.327  0.00  0.00     0.074 A 
HETATM   11  C   UNK     0      -1.458   4.417 -25.815  0.00  0.00     0.071 A 
ENDROOT
BRANCH   3  12
HETATM   12  C   UNK     0      -6.697   2.652 -23.493  0.00  0.00    -0.023 A 
HETATM   13  C   UNK     0      -6.945   1.774 -22.440  0.00  0.00     0.049 A 
HETATM   14  C   UNK     0      -8.025   2.000 -21.586  0.00  0.00     0.099 A 
HETATM   15  C   UNK     0      -8.854   3.103 -21.789  0.00  0.00     0.098 A 
HETATM   16  C   UNK     0      -8.603   3.982 -22.843  0.00  0.00     0.040 A 
HETATM   17  C   UNK     0      -7.524   3.755 -23.697  0.00  0.00     0.013 A 
BRANCH  14  18
HETATM   18  O   UNK     0      -8.260   1.137 -20.559  0.00  0.00    -0.358 OA
HETATM   19  H   UNK     0      -8.835   1.581 -19.912  0.00  0.00     0.217 HD
ENDBRANCH  14  18
BRANCH  15  20
HETATM   20  O   UNK     0      -9.912   3.336 -20.961  0.00  0.00    -0.358 OA
HETATM   21  H   UNK     0     -10.434   2.520 -20.878  0.00  0.00     0.217 HD
ENDBRANCH  15  20
ENDBRANCH   3  12
BRANCH   4  22
HETATM   22  O   UNK     0      -5.831   0.008 -24.473  0.00  0.00    -0.385 OA
HETATM   23  H   UNK     0      -5.500  -0.486 -25.242  0.00  0.00     0.210 HD
ENDBRANCH   4  22
BRANCH   8  24
HETATM   24  O   UNK     0      -1.253   0.872 -26.624  0.00  0.00    -0.360 OA
HETATM   25  H   UNK     0      -1.410   0.138 -26.012  0.00  0.00     0.217 HD
ENDBRANCH   8  24
BRANCH  11  26
HETATM   26  O   UNK     0      -0.729   5.549 -26.015  0.00  0.00    -0.361 OA
HETATM   27  H   UNK     0      -0.634   5.698 -26.971  0.00  0.00     0.217 HD
ENDBRANCH  11  26
TORSDOF 6
ENDMDL
MODEL 8
REMARK VINA RESULT:      -6.2      2.017      7.421
REMARK  6 active torsions:
REMARK  status: ('A' for Active; 'I' for Inactive)
REMARK    1  A    between atoms: O_2  and  C_9 
REMARK    2  A    between atoms: O_4  and  C_14 
REMARK    3  A    between atoms: O_5  and  C_19 
REMARK    4  A    between atoms: O_6  and  C_20 
REMARK    5  A    between atoms: O_7  and  C_22 
REMARK    6  A    between atoms: C_8  and  C_10 
ROOT
HETATM    1  O   UNK     0      -6.440   4.438 -23.993  0.00  0.00    -0.337 OA
HETATM    2  O   UNK     0      -5.536   0.469 -23.475  0.00  0.00    -0.289 OA
HETATM    3  C   UNK     0      -7.470   3.462 -23.776  0.00  0.00     0.198 C 
HETATM    4  C   UNK     0      -6.973   2.319 -22.891  0.00  0.00     0.227 C 
HETATM    5  C   UNK     0      -5.784   1.666 -23.562  0.00  0.00     0.196 C 
HETATM    6  C   UNK     0      -4.897   2.576 -24.313  0.00  0.00     0.079 A 
HETATM    7  C   UNK     0      -5.269   3.913 -24.471  0.00  0.00     0.089 A 
HETATM    8  C   UNK     0      -3.686   2.113 -24.834  0.00  0.00     0.085 A 
HETATM    9  C   UNK     0      -4.409   4.797 -25.123  0.00  0.00     0.074 A 
HETATM   10  C   UNK     0      -2.840   2.997 -25.502  0.00  0.00     0.074 A 
HETATM   11  C   UNK     0      -3.197   4.338 -25.642  0.00  0.00     0.071 A 
ENDROOT
BRANCH   3  12
HETATM   12  C   UNK     0      -8.650   4.184 -23.154  0.00  0.00    -0.023 A 
HETATM   13  C   UNK     0      -9.110   3.803 -21.895  0.00  0.00     0.049 A 
HETATM   14  C   UNK     0     -10.195   4.467 -21.321  0.00  0.00     0.099 A 
HETATM   15  C   UNK     0     -10.818   5.508 -22.009  0.00  0.00     0.098 A 
HETATM   16  C   UNK     0     -10.355   5.888 -23.269  0.00  0.00     0.040 A 
HETATM   17  C   UNK     0      -9.270   5.225 -23.842  0.00  0.00     0.013 A 
BRANCH  14  18
HETATM   18  O   UNK     0     -10.638   4.089 -20.090  0.00  0.00    -0.358 OA
HETATM   19  H   UNK     0     -11.591   4.277 -20.037  0.00  0.00     0.217 HD
ENDBRANCH  14  18
BRANCH  15  20
HETATM   20  O   UNK     0     -11.878   6.165 -21.459  0.00  0.00    -0.358 OA
HETATM   21  H   UNK     0     -12.134   5.718 -20.634  0.00  0.00     0.217 HD
ENDBRANCH  15  20
ENDBRANCH   3  12
BRANCH   4  22
HETATM   22  O   UNK     0      -7.987   1.340 -22.741  0.00  0.00    -0.385 OA
HETATM   23  H   UNK     0      -8.231   1.312 -21.800  0.00  0.00     0.210 HD
ENDBRANCH   4  22
BRANCH   8  24
HETATM   24  O   UNK     0      -3.278   0.819 -24.711  0.00  0.00    -0.360 OA
HETATM   25  H   UNK     0      -2.399   0.698 -25.102  0.00  0.00     0.217 HD
ENDBRANCH   8  24
BRANCH  11  26
HETATM   26  O   UNK     0      -2.364   5.200 -26.288  0.00  0.00    -0.361 OA
HETATM   27  H   UNK     0      -2.710   5.364 -27.182  0.00  0.00     0.217 HD
ENDBRANCH  11  26
TORSDOF 6
ENDMDL
MODEL 9
REMARK VINA RESULT:      -6.1      1.698      2.014
REMARK  6 active torsions:
REMARK  status: ('A' for Active; 'I' for Inactive)
REMARK    1  A    between atoms: O_2  and  C_9 
REMARK    2  A    between atoms: O_4  and  C_14 
REMARK    3  A    between atoms: O_5  and  C_19 
REMARK    4  A    between atoms: O_6  and  C_20 
REMARK    5  A    between atoms: O_7  and  C_22 
REMARK    6  A    between atoms: C_8  and  C_10 
ROOT
HETATM    1  O   UNK     0      -5.729   2.448 -23.158  0.00  0.00    -0.337 OA
HETATM    2  O   UNK     0      -6.369   5.736 -25.529  0.00  0.00    -0.289 OA
HETATM    3  C   UNK     0      -5.170   2.535 -24.478  0.00  0.00     0.198 C 
HETATM    4  C   UNK     0      -4.853   3.983 -24.851  0.00  0.00     0.227 C 
HETATM    5  C   UNK     0      -6.130   4.793 -24.783  0.00  0.00     0.196 C 
HETATM    6  C   UNK     0      -7.077   4.400 -23.721  0.00  0.00     0.079 A 
HETATM    7  C   UNK     0      -6.813   3.260 -22.960  0.00  0.00     0.089 A 
HETATM    8  C   UNK     0      -8.210   5.177 -23.461  0.00  0.00     0.085 A 
HETATM    9  C   UNK     0      -7.668   2.915 -21.911  0.00  0.00     0.074 A 
HETATM   10  C   UNK     0      -9.070   4.816 -22.425  0.00  0.00     0.074 A 
HETATM   11  C   UNK     0      -8.797   3.691 -21.647  0.00  0.00     0.071 A 
ENDROOT
BRANCH   3  12
HETATM   12  C   UNK     0      -3.928   1.664 -24.498  0.00  0.00    -0.023 A 
HETATM   13  C   UNK     0      -4.047   0.282 -24.371  0.00  0.00     0.049 A 
HETATM   14  C   UNK     0      -2.905  -0.520 -24.390  0.00  0.00     0.099 A 
HETATM   15  C   UNK     0      -1.647   0.064 -24.534  0.00  0.00     0.098 A 
HETATM   16  C   UNK     0      -1.529   1.448 -24.661  0.00  0.00     0.040 A 
HETATM   17  C   UNK     0      -2.671   2.249 -24.643  0.00  0.00     0.013 A 
BRANCH  14  18
HETATM   18  O   UNK     0      -3.032  -1.870 -24.266  0.00  0.00    -0.358 OA
HETATM   19  H   UNK     0      -3.700  -2.174 -24.905  0.00  0.00     0.217 HD
ENDBRANCH  14  18
BRANCH  15  20
HETATM   20  O   UNK     0      -0.524  -0.708 -24.555  0.00  0.00    -0.358 OA
HETATM   21  H   UNK     0      -0.600  -1.358 -25.275  0.00  0.00     0.217 HD
ENDBRANCH  15  20
ENDBRANCH   3  12
BRANCH   4  22
HETATM   22  O   UNK     0      -4.359   4.050 -26.178  0.00  0.00    -0.385 OA
HETATM   23  H   UNK     0      -3.845   3.241 -26.341  0.00  0.00     0.210 HD
ENDBRANCH   4  22
BRANCH   8  24
HETATM   24  O   UNK     0      -8.515   6.296 -24.176  0.00  0.00    -0.360 OA
HETATM   25  H   UNK     0      -9.004   6.929 -23.628  0.00  0.00     0.217 HD
ENDBRANCH   8  24
BRANCH  11  26
HETATM   26  O   UNK     0      -9.635   3.347 -20.631  0.00  0.00    -0.361 OA
HETATM   27  H   UNK     0      -9.105   3.123 -19.846  0.00  0.00     0.217 HD
ENDBRANCH  11  26
TORSDOF 6
ENDMDL
MODEL 10
REMARK VINA RESULT:      -6.0      1.405      1.955
REMARK  6 active torsions:
REMARK  status: ('A' for Active; 'I' for Inactive)
REMARK    1  A    between atoms: O_2  and  C_9 
REMARK    2  A    between atoms: O_4  and  C_14 
REMARK    3  A    between atoms: O_5  and  C_19 
REMARK    4  A    between atoms: O_6  and  C_20 
REMARK    5  A    between atoms: O_7  and  C_22 
REMARK    6  A    between atoms: C_8  and  C_10 
ROOT
HETATM    1  O   UNK     0      -4.775   1.096 -24.393  0.00  0.00    -0.337 OA
HETATM    2  O   UNK     0      -5.564   5.114 -24.669  0.00  0.00    -0.289 OA
HETATM    3  C   UNK     0      -4.349   1.862 -25.530  0.00  0.00     0.198 C 
HETATM    4  C   UNK     0      -4.034   3.306 -25.138  0.00  0.00     0.227 C 
HETATM    5  C   UNK     0      -5.276   3.930 -24.539  0.00  0.00     0.196 C 
HETATM    6  C   UNK     0      -6.122   3.022 -23.740  0.00  0.00     0.079 A 
HETATM    7  C   UNK     0      -5.812   1.660 -23.700  0.00  0.00     0.089 A 
HETATM    8  C   UNK     0      -7.202   3.522 -23.007  0.00  0.00     0.085 A 
HETATM    9  C   UNK     0      -6.566   0.803 -22.897  0.00  0.00     0.074 A 
HETATM   10  C   UNK     0      -7.963   2.657 -22.222  0.00  0.00     0.074 A 
HETATM   11  C   UNK     0      -7.643   1.301 -22.162  0.00  0.00     0.071 A 
ENDROOT
BRANCH   3  12
HETATM   12  C   UNK     0      -3.139   1.161 -26.116  0.00  0.00    -0.023 A 
HETATM   13  C   UNK     0      -3.116   0.832 -27.470  0.00  0.00     0.049 A 
HETATM   14  C   UNK     0      -2.003   0.187 -28.011  0.00  0.00     0.099 A 
HETATM   15  C   UNK     0      -0.916  -0.127 -27.195  0.00  0.00     0.098 A 
HETATM   16  C   UNK     0      -0.940   0.204 -25.840  0.00  0.00     0.040 A 
HETATM   17  C   UNK     0      -2.053   0.848 -25.301  0.00  0.00     0.013 A 
BRANCH  14  18
HETATM   18  O   UNK     0      -1.989  -0.130 -29.335  0.00  0.00    -0.358 OA
HETATM   19  H   UNK     0      -1.102   0.058 -29.686  0.00  0.00     0.217 HD
ENDBRANCH  14  18
BRANCH  15  20
HETATM   20  O   UNK     0       0.178  -0.756 -27.711  0.00  0.00    -0.358 OA
HETATM   21  H   UNK     0       0.069  -1.717 -27.606  0.00  0.00     0.217 HD
ENDBRANCH  15  20
ENDBRANCH   3  12
BRANCH   4  22
HETATM   22  O   UNK     0      -3.674   4.057 -26.286  0.00  0.00    -0.385 OA
HETATM   23  H   UNK     0      -4.120   4.918 -26.225  0.00  0.00     0.210 HD
ENDBRANCH   4  22
BRANCH   8  24
HETATM   24  O   UNK     0      -7.548   4.840 -23.014  0.00  0.00    -0.360 OA
HETATM   25  H   UNK     0      -6.882   5.367 -23.479  0.00  0.00     0.217 HD
ENDBRANCH   8  24
BRANCH  11  26
HETATM   26  O   UNK     0      -8.383   0.461 -21.388  0.00  0.00    -0.361 OA
HETATM   27  H   UNK     0      -7.833   0.144 -20.650  0.00  0.00     0.217 HD
ENDBRANCH  11  26
TORSDOF 6
ENDMDL
