REMARK VINA RESULT:      -7.0      0.000      0.000
REMARK  6 active torsions:
REMARK  status: ('A' for Active; 'I' for Inactive)
REMARK    1  A    between atoms: O_2  and  C_9 
REMARK    2  A    between atoms: O_4  and  C_14 
REMARK    3  A    between atoms: O_5  and  C_19 
REMARK    4  A    between atoms: O_6  and  C_20 
REMARK    5  A    between atoms: O_7  and  C_22 
REMARK    6  A    between atoms: C_8  and  C_10 
ROOT
HETATM    1  O   UNK     0      -5.786   1.510 -23.354  0.00  0.00    -0.337 OA
HETATM    2  O   UNK     0      -7.784   4.989 -24.219  0.00  0.00    -0.289 OA
HETATM    3  C   UNK     0      -5.487   2.267 -24.537  0.00  0.00     0.198 C 
HETATM    4  C   UNK     0      -5.707   3.763 -24.310  0.00  0.00     0.227 C 
HETATM    5  C   UNK     0      -7.149   3.987 -23.911  0.00  0.00     0.196 C 
HETATM    6  C   UNK     0      -7.753   2.926 -23.081  0.00  0.00     0.079 A 
HETATM    7  C   UNK     0      -7.030   1.757 -22.837  0.00  0.00     0.089 A 
HETATM    8  C   UNK     0      -9.022   3.102 -22.521  0.00  0.00     0.085 A 
HETATM    9  C   UNK     0      -7.564   0.775 -22.001  0.00  0.00     0.074 A 
HETATM   10  C   UNK     0      -9.558   2.109 -21.703  0.00  0.00     0.074 A 
HETATM   11  C   UNK     0      -8.829   0.949 -21.438  0.00  0.00     0.071 A 
ENDROOT
BRANCH   3  12
HETATM   12  C   UNK     0      -4.051   1.960 -24.915  0.00  0.00    -0.023 A 
HETATM   13  C   UNK     0      -3.773   0.916 -25.795  0.00  0.00     0.049 A 
HETATM   14  C   UNK     0      -2.451   0.633 -26.144  0.00  0.00     0.099 A 
HETATM   15  C   UNK     0      -1.412   1.395 -25.610  0.00  0.00     0.098 A 
HETATM   16  C   UNK     0      -1.693   2.440 -24.730  0.00  0.00     0.040 A 
HETATM   17  C   UNK     0      -3.013   2.722 -24.382  0.00  0.00     0.013 A 
BRANCH  14  18
HETATM   18  O   UNK     0      -2.189  -0.389 -27.004  0.00  0.00    -0.358 OA
HETATM   19  H   UNK     0      -2.889  -1.058 -26.907  0.00  0.00     0.217 HD
ENDBRANCH  14  18
BRANCH  15  20
HETATM   20  O   UNK     0      -0.117   1.129 -25.944  0.00  0.00    -0.358 OA
HETATM   21  H   UNK     0       0.343   0.771 -25.165  0.00  0.00     0.217 HD
ENDBRANCH  15  20
ENDBRANCH   3  12
BRANCH   4  22
HETATM   22  O   UNK     0      -5.463   4.481 -25.507  0.00  0.00    -0.385 OA
HETATM   23  H   UNK     0      -4.599   4.196 -25.849  0.00  0.00     0.210 HD
ENDBRANCH   4  22
BRANCH   8  24
HETATM   24  O   UNK     0      -9.770   4.222 -22.730  0.00  0.00    -0.360 OA
HETATM   25  H   UNK     0      -9.204   4.976 -22.950  0.00  0.00     0.217 HD
ENDBRANCH   8  24
BRANCH  11  26
HETATM   26  O   UNK     0      -9.353  -0.014 -20.632  0.00  0.00    -0.361 OA
HETATM   27  H   UNK     0      -9.475   0.353 -19.739  0.00  0.00     0.217 HD
ENDBRANCH  11  26
TORSDOF 6
