REMARK VINA RESULT:      -6.3      4.667      7.093
REMARK  6 active torsions:
REMARK  status: ('A' for Active; 'I' for Inactive)
REMARK    1  A    between atoms: O_2  and  C_9 
REMARK    2  A    between atoms: O_4  and  C_14 
REMARK    3  A    between atoms: O_5  and  C_19 
REMARK    4  A    between atoms: O_6  and  C_20 
REMARK    5  A    between atoms: O_7  and  C_22 
REMARK    6  A    between atoms: C_8  and  C_10 
ROOT
HETATM    1  O   UNK     0      -2.657  -0.355 -28.708  0.00  0.00    -0.337 OA
HETATM    2  O   UNK     0      -4.110   3.478 -28.905  0.00  0.00    -0.289 OA
HETATM    3  C   UNK     0      -3.358   0.117 -29.868  0.00  0.00     0.198 C 
HETATM    4  C   UNK     0      -3.129   1.614 -30.084  0.00  0.00     0.227 C 
HETATM    5  C   UNK     0      -3.609   2.360 -28.858  0.00  0.00     0.196 C 
HETATM    6  C   UNK     0      -3.405   1.668 -27.570  0.00  0.00     0.079 A 
HETATM    7  C   UNK     0      -2.925   0.357 -27.569  0.00  0.00     0.089 A 
HETATM    8  C   UNK     0      -3.660   2.328 -26.365  0.00  0.00     0.085 A 
HETATM    9  C   UNK     0      -2.667  -0.284 -26.357  0.00  0.00     0.074 A 
HETATM   10  C   UNK     0      -3.418   1.675 -25.157  0.00  0.00     0.074 A 
HETATM   11  C   UNK     0      -2.918   0.373 -25.152  0.00  0.00     0.071 A 
ENDROOT
BRANCH   3  12
HETATM   12  C   UNK     0      -2.874  -0.702 -31.050  0.00  0.00    -0.023 A 
HETATM   13  C   UNK     0      -3.792  -1.393 -31.837  0.00  0.00     0.049 A 
HETATM   14  C   UNK     0      -3.348  -2.147 -32.925  0.00  0.00     0.099 A 
HETATM   15  C   UNK     0      -1.986  -2.208 -33.220  0.00  0.00     0.098 A 
HETATM   16  C   UNK     0      -1.069  -1.514 -32.430  0.00  0.00     0.040 A 
HETATM   17  C   UNK     0      -1.513  -0.761 -31.344  0.00  0.00     0.013 A 
BRANCH  14  18
HETATM   18  O   UNK     0      -4.253  -2.819 -33.689  0.00  0.00    -0.358 OA
HETATM   19  H   UNK     0      -3.850  -2.992 -34.557  0.00  0.00     0.217 HD
ENDBRANCH  14  18
BRANCH  15  20
HETATM   20  O   UNK     0      -1.540  -2.939 -34.280  0.00  0.00    -0.358 OA
HETATM   21  H   UNK     0      -0.685  -2.580 -34.575  0.00  0.00     0.217 HD
ENDBRANCH  15  20
ENDBRANCH   3  12
BRANCH   4  22
HETATM   22  O   UNK     0      -3.878   2.068 -31.198  0.00  0.00    -0.385 OA
HETATM   23  H   UNK     0      -4.751   1.643 -31.158  0.00  0.00     0.210 HD
ENDBRANCH   4  22
BRANCH   8  24
HETATM   24  O   UNK     0      -4.131   3.605 -26.309  0.00  0.00    -0.360 OA
HETATM   25  H   UNK     0      -5.081   3.612 -26.115  0.00  0.00     0.217 HD
ENDBRANCH   8  24
BRANCH  11  26
HETATM   26  O   UNK     0      -2.675  -0.258 -23.970  0.00  0.00    -0.361 OA
HETATM   27  H   UNK     0      -2.125   0.318 -23.412  0.00  0.00     0.217 HD
ENDBRANCH  11  26
TORSDOF 6
