REMARK VINA RESULT:      -6.2      1.675      7.149
REMARK  6 active torsions:
REMARK  status: ('A' for Active; 'I' for Inactive)
REMARK    1  A    between atoms: O_2  and  C_9 
REMARK    2  A    between atoms: O_4  and  C_14 
REMARK    3  A    between atoms: O_5  and  C_19 
REMARK    4  A    between atoms: O_6  and  C_20 
REMARK    5  A    between atoms: O_7  and  C_22 
REMARK    6  A    between atoms: C_8  and  C_10 
ROOT
HETATM    1  O   UNK     0      -4.573   3.459 -24.196  0.00  0.00    -0.337 OA
HETATM    2  O   UNK     0      -3.390  -0.206 -25.613  0.00  0.00    -0.289 OA
HETATM    3  C   UNK     0      -5.523   2.405 -24.421  0.00  0.00     0.198 C 
HETATM    4  C   UNK     0      -4.893   1.032 -24.186  0.00  0.00     0.227 C 
HETATM    5  C   UNK     0      -3.717   0.869 -25.125  0.00  0.00     0.196 C 
HETATM    6  C   UNK     0      -2.945   2.098 -25.398  0.00  0.00     0.079 A 
HETATM    7  C   UNK     0      -3.410   3.318 -24.903  0.00  0.00     0.089 A 
HETATM    8  C   UNK     0      -1.749   2.036 -26.117  0.00  0.00     0.085 A 
HETATM    9  C   UNK     0      -2.655   4.476 -25.100  0.00  0.00     0.074 A 
HETATM   10  C   UNK     0      -1.009   3.199 -26.327  0.00  0.00     0.074 A 
HETATM   11  C   UNK     0      -1.458   4.417 -25.815  0.00  0.00     0.071 A 
ENDROOT
BRANCH   3  12
HETATM   12  C   UNK     0      -6.697   2.652 -23.493  0.00  0.00    -0.023 A 
HETATM   13  C   UNK     0      -6.945   1.774 -22.440  0.00  0.00     0.049 A 
HETATM   14  C   UNK     0      -8.025   2.000 -21.586  0.00  0.00     0.099 A 
HETATM   15  C   UNK     0      -8.854   3.103 -21.789  0.00  0.00     0.098 A 
HETATM   16  C   UNK     0      -8.603   3.982 -22.843  0.00  0.00     0.040 A 
HETATM   17  C   UNK     0      -7.524   3.755 -23.697  0.00  0.00     0.013 A 
BRANCH  14  18
HETATM   18  O   UNK     0      -8.260   1.137 -20.559  0.00  0.00    -0.358 OA
HETATM   19  H   UNK     0      -8.835   1.581 -19.912  0.00  0.00     0.217 HD
ENDBRANCH  14  18
BRANCH  15  20
HETATM   20  O   UNK     0      -9.912   3.336 -20.961  0.00  0.00    -0.358 OA
HETATM   21  H   UNK     0     -10.434   2.520 -20.878  0.00  0.00     0.217 HD
ENDBRANCH  15  20
ENDBRANCH   3  12
BRANCH   4  22
HETATM   22  O   UNK     0      -5.831   0.008 -24.473  0.00  0.00    -0.385 OA
HETATM   23  H   UNK     0      -5.500  -0.486 -25.242  0.00  0.00     0.210 HD
ENDBRANCH   4  22
BRANCH   8  24
HETATM   24  O   UNK     0      -1.253   0.872 -26.624  0.00  0.00    -0.360 OA
HETATM   25  H   UNK     0      -1.410   0.138 -26.012  0.00  0.00     0.217 HD
ENDBRANCH   8  24
BRANCH  11  26
HETATM   26  O   UNK     0      -0.729   5.549 -26.015  0.00  0.00    -0.361 OA
HETATM   27  H   UNK     0      -0.634   5.698 -26.971  0.00  0.00     0.217 HD
ENDBRANCH  11  26
TORSDOF 6
