REMARK VINA RESULT:      -6.4      1.404      2.910
REMARK  6 active torsions:
REMARK  status: ('A' for Active; 'I' for Inactive)
REMARK    1  A    between atoms: O_2  and  C_9 
REMARK    2  A    between atoms: O_4  and  C_14 
REMARK    3  A    between atoms: O_5  and  C_19 
REMARK    4  A    between atoms: O_6  and  C_20 
REMARK    5  A    between atoms: O_7  and  C_22 
REMARK    6  A    between atoms: C_8  and  C_10 
ROOT
HETATM    1  O   UNK     0      -5.948   3.637 -24.406  0.00  0.00    -0.337 OA
HETATM    2  O   UNK     0      -7.363   0.485 -22.192  0.00  0.00    -0.289 OA
HETATM    3  C   UNK     0      -5.072   2.595 -23.948  0.00  0.00     0.198 C 
HETATM    4  C   UNK     0      -5.802   1.254 -23.864  0.00  0.00     0.227 C 
HETATM    5  C   UNK     0      -6.969   1.395 -22.912  0.00  0.00     0.196 C 
HETATM    6  C   UNK     0      -7.647   2.706 -22.924  0.00  0.00     0.079 A 
HETATM    7  C   UNK     0      -7.105   3.746 -23.683  0.00  0.00     0.089 A 
HETATM    8  C   UNK     0      -8.832   2.897 -22.208  0.00  0.00     0.085 A 
HETATM    9  C   UNK     0      -7.772   4.971 -23.754  0.00  0.00     0.074 A 
HETATM   10  C   UNK     0      -9.482   4.129 -22.267  0.00  0.00     0.074 A 
HETATM   11  C   UNK     0      -8.957   5.163 -23.042  0.00  0.00     0.071 A 
ENDROOT
BRANCH   3  12
HETATM   12  C   UNK     0      -3.900   2.538 -24.910  0.00  0.00    -0.023 A 
HETATM   13  C   UNK     0      -3.933   1.663 -25.993  0.00  0.00     0.049 A 
HETATM   14  C   UNK     0      -2.855   1.610 -26.878  0.00  0.00     0.099 A 
HETATM   15  C   UNK     0      -1.747   2.432 -26.676  0.00  0.00     0.098 A 
HETATM   16  C   UNK     0      -1.716   3.308 -25.590  0.00  0.00     0.040 A 
HETATM   17  C   UNK     0      -2.793   3.361 -24.706  0.00  0.00     0.013 A 
BRANCH  14  18
HETATM   18  O   UNK     0      -2.897   0.753 -27.934  0.00  0.00    -0.358 OA
HETATM   19  H   UNK     0      -2.927  -0.157 -27.589  0.00  0.00     0.217 HD
ENDBRANCH  14  18
BRANCH  15  20
HETATM   20  O   UNK     0      -0.688   2.391 -27.533  0.00  0.00    -0.358 OA
HETATM   21  H   UNK     0      -0.693   3.195 -28.080  0.00  0.00     0.217 HD
ENDBRANCH  15  20
ENDBRANCH   3  12
BRANCH   4  22
HETATM   22  O   UNK     0      -4.934   0.256 -23.354  0.00  0.00    -0.385 OA
HETATM   23  H   UNK     0      -4.261   0.078 -24.033  0.00  0.00     0.210 HD
ENDBRANCH   4  22
BRANCH   8  24
HETATM   24  O   UNK     0      -9.400   1.918 -21.450  0.00  0.00    -0.360 OA
HETATM   25  H   UNK     0      -9.690   1.179 -22.006  0.00  0.00     0.217 HD
ENDBRANCH   8  24
BRANCH  11  26
HETATM   26  O   UNK     0      -9.600   6.361 -23.104  0.00  0.00    -0.361 OA
HETATM   27  H   UNK     0     -10.254   6.332 -23.823  0.00  0.00     0.217 HD
ENDBRANCH  11  26
TORSDOF 6
