REMARK VINA RESULT:      -6.9      1.674      6.604
REMARK  6 active torsions:
REMARK  status: ('A' for Active; 'I' for Inactive)
REMARK    1  A    between atoms: O_2  and  C_9 
REMARK    2  A    between atoms: O_4  and  C_14 
REMARK    3  A    between atoms: O_5  and  C_19 
REMARK    4  A    between atoms: O_6  and  C_20 
REMARK    5  A    between atoms: O_7  and  C_22 
REMARK    6  A    between atoms: C_8  and  C_10 
ROOT
HETATM    1  O   UNK     0      -6.398   1.947 -23.548  0.00  0.00    -0.337 OA
HETATM    2  O   UNK     0      -4.107   4.901 -25.242  0.00  0.00    -0.289 OA
HETATM    3  C   UNK     0      -6.558   3.324 -23.170  0.00  0.00     0.198 C 
HETATM    4  C   UNK     0      -6.252   4.259 -24.341  0.00  0.00     0.227 C 
HETATM    5  C   UNK     0      -4.830   4.017 -24.797  0.00  0.00     0.196 C 
HETATM    6  C   UNK     0      -4.362   2.620 -24.711  0.00  0.00     0.079 A 
HETATM    7  C   UNK     0      -5.180   1.663 -24.105  0.00  0.00     0.089 A 
HETATM    8  C   UNK     0      -3.128   2.252 -25.254  0.00  0.00     0.085 A 
HETATM    9  C   UNK     0      -4.776   0.327 -24.075  0.00  0.00     0.074 A 
HETATM   10  C   UNK     0      -2.722   0.919 -25.203  0.00  0.00     0.074 A 
HETATM   11  C   UNK     0      -3.546  -0.043 -24.619  0.00  0.00     0.071 A 
ENDROOT
BRANCH   3  12
HETATM   12  C   UNK     0      -7.981   3.491 -22.674  0.00  0.00    -0.023 A 
HETATM   13  C   UNK     0      -8.867   2.417 -22.733  0.00  0.00     0.049 A 
HETATM   14  C   UNK     0     -10.177   2.570 -22.277  0.00  0.00     0.099 A 
HETATM   15  C   UNK     0     -10.597   3.797 -21.763  0.00  0.00     0.098 A 
HETATM   16  C   UNK     0      -9.708   4.871 -21.704  0.00  0.00     0.040 A 
HETATM   17  C   UNK     0      -8.400   4.717 -22.161  0.00  0.00     0.013 A 
BRANCH  14  18
HETATM   18  O   UNK     0     -11.036   1.515 -22.338  0.00  0.00    -0.358 OA
HETATM   19  H   UNK     0     -10.580   0.775 -22.775  0.00  0.00     0.217 HD
ENDBRANCH  14  18
BRANCH  15  20
HETATM   20  O   UNK     0     -11.873   3.958 -21.313  0.00  0.00    -0.358 OA
HETATM   21  H   UNK     0     -12.008   4.891 -21.072  0.00  0.00     0.217 HD
ENDBRANCH  15  20
ENDBRANCH   3  12
BRANCH   4  22
HETATM   22  O   UNK     0      -6.359   5.611 -23.928  0.00  0.00    -0.385 OA
HETATM   23  H   UNK     0      -7.299   5.794 -23.764  0.00  0.00     0.210 HD
ENDBRANCH   4  22
BRANCH   8  24
HETATM   24  O   UNK     0      -2.291   3.145 -25.852  0.00  0.00    -0.360 OA
HETATM   25  H   UNK     0      -2.718   3.554 -26.620  0.00  0.00     0.217 HD
ENDBRANCH   8  24
BRANCH  11  26
HETATM   26  O   UNK     0      -3.150  -1.345 -24.579  0.00  0.00    -0.361 OA
HETATM   27  H   UNK     0      -3.865  -1.904 -24.928  0.00  0.00     0.217 HD
ENDBRANCH  11  26
TORSDOF 6
