REMARK VINA RESULT:      -6.3      2.401      7.536
REMARK  6 active torsions:
REMARK  status: ('A' for Active; 'I' for Inactive)
REMARK    1  A    between atoms: O_2  and  C_9 
REMARK    2  A    between atoms: O_4  and  C_14 
REMARK    3  A    between atoms: O_5  and  C_19 
REMARK    4  A    between atoms: O_6  and  C_20 
REMARK    5  A    between atoms: O_7  and  C_22 
REMARK    6  A    between atoms: C_8  and  C_10 
ROOT
HETATM    1  O   UNK     0      -4.180   1.096 -26.892  0.00  0.00    -0.337 OA
HETATM    2  O   UNK     0      -0.336  -0.059 -26.034  0.00  0.00    -0.289 OA
HETATM    3  C   UNK     0      -3.807   0.669 -25.573  0.00  0.00     0.198 C 
HETATM    4  C   UNK     0      -2.352   1.024 -25.265  0.00  0.00     0.227 C 
HETATM    5  C   UNK     0      -1.461   0.355 -26.289  0.00  0.00     0.196 C 
HETATM    6  C   UNK     0      -2.019   0.258 -27.652  0.00  0.00     0.079 A 
HETATM    7  C   UNK     0      -3.340   0.649 -27.877  0.00  0.00     0.089 A 
HETATM    8  C   UNK     0      -1.225  -0.193 -28.711  0.00  0.00     0.085 A 
HETATM    9  C   UNK     0      -3.859   0.622 -29.173  0.00  0.00     0.074 A 
HETATM   10  C   UNK     0      -1.755  -0.235 -30.000  0.00  0.00     0.074 A 
HETATM   11  C   UNK     0      -3.067   0.176 -30.233  0.00  0.00     0.071 A 
ENDROOT
BRANCH   3  12
HETATM   12  C   UNK     0      -4.765   1.329 -24.599  0.00  0.00    -0.023 A 
HETATM   13  C   UNK     0      -5.619   0.545 -23.827  0.00  0.00     0.049 A 
HETATM   14  C   UNK     0      -6.501   1.151 -22.932  0.00  0.00     0.099 A 
HETATM   15  C   UNK     0      -6.526   2.540 -22.812  0.00  0.00     0.098 A 
HETATM   16  C   UNK     0      -5.669   3.324 -23.585  0.00  0.00     0.040 A 
HETATM   17  C   UNK     0      -4.788   2.717 -24.480  0.00  0.00     0.013 A 
BRANCH  14  18
HETATM   18  O   UNK     0      -7.332   0.376 -22.181  0.00  0.00    -0.358 OA
HETATM   19  H   UNK     0      -7.199   0.603 -21.244  0.00  0.00     0.217 HD
ENDBRANCH  14  18
BRANCH  15  20
HETATM   20  O   UNK     0      -7.382   3.144 -21.940  0.00  0.00    -0.358 OA
HETATM   21  H   UNK     0      -6.980   3.973 -21.625  0.00  0.00     0.217 HD
ENDBRANCH  15  20
ENDBRANCH   3  12
BRANCH   4  22
HETATM   22  O   UNK     0      -1.990   0.541 -23.983  0.00  0.00    -0.385 OA
HETATM   23  H   UNK     0      -1.154   0.969 -23.733  0.00  0.00     0.210 HD
ENDBRANCH   4  22
BRANCH   8  24
HETATM   24  O   UNK     0       0.068  -0.589 -28.546  0.00  0.00    -0.360 OA
HETATM   25  H   UNK     0       0.171  -1.525 -28.775  0.00  0.00     0.217 HD
ENDBRANCH   8  24
BRANCH  11  26
HETATM   26  O   UNK     0      -3.578   0.141 -31.494  0.00  0.00    -0.361 OA
HETATM   27  H   UNK     0      -2.961  -0.342 -32.071  0.00  0.00     0.217 HD
ENDBRANCH  11  26
TORSDOF 6
