REMARK VINA RESULT:      -6.0      1.405      1.955
REMARK  6 active torsions:
REMARK  status: ('A' for Active; 'I' for Inactive)
REMARK    1  A    between atoms: O_2  and  C_9 
REMARK    2  A    between atoms: O_4  and  C_14 
REMARK    3  A    between atoms: O_5  and  C_19 
REMARK    4  A    between atoms: O_6  and  C_20 
REMARK    5  A    between atoms: O_7  and  C_22 
REMARK    6  A    between atoms: C_8  and  C_10 
ROOT
HETATM    1  O   UNK     0      -4.775   1.096 -24.393  0.00  0.00    -0.337 OA
HETATM    2  O   UNK     0      -5.564   5.114 -24.669  0.00  0.00    -0.289 OA
HETATM    3  C   UNK     0      -4.349   1.862 -25.530  0.00  0.00     0.198 C 
HETATM    4  C   UNK     0      -4.034   3.306 -25.138  0.00  0.00     0.227 C 
HETATM    5  C   UNK     0      -5.276   3.930 -24.539  0.00  0.00     0.196 C 
HETATM    6  C   UNK     0      -6.122   3.022 -23.740  0.00  0.00     0.079 A 
HETATM    7  C   UNK     0      -5.812   1.660 -23.700  0.00  0.00     0.089 A 
HETATM    8  C   UNK     0      -7.202   3.522 -23.007  0.00  0.00     0.085 A 
HETATM    9  C   UNK     0      -6.566   0.803 -22.897  0.00  0.00     0.074 A 
HETATM   10  C   UNK     0      -7.963   2.657 -22.222  0.00  0.00     0.074 A 
HETATM   11  C   UNK     0      -7.643   1.301 -22.162  0.00  0.00     0.071 A 
ENDROOT
BRANCH   3  12
HETATM   12  C   UNK     0      -3.139   1.161 -26.116  0.00  0.00    -0.023 A 
HETATM   13  C   UNK     0      -3.116   0.832 -27.470  0.00  0.00     0.049 A 
HETATM   14  C   UNK     0      -2.003   0.187 -28.011  0.00  0.00     0.099 A 
HETATM   15  C   UNK     0      -0.916  -0.127 -27.195  0.00  0.00     0.098 A 
HETATM   16  C   UNK     0      -0.940   0.204 -25.840  0.00  0.00     0.040 A 
HETATM   17  C   UNK     0      -2.053   0.848 -25.301  0.00  0.00     0.013 A 
BRANCH  14  18
HETATM   18  O   UNK     0      -1.989  -0.130 -29.335  0.00  0.00    -0.358 OA
HETATM   19  H   UNK     0      -1.102   0.058 -29.686  0.00  0.00     0.217 HD
ENDBRANCH  14  18
BRANCH  15  20
HETATM   20  O   UNK     0       0.178  -0.756 -27.711  0.00  0.00    -0.358 OA
HETATM   21  H   UNK     0       0.069  -1.717 -27.606  0.00  0.00     0.217 HD
ENDBRANCH  15  20
ENDBRANCH   3  12
BRANCH   4  22
HETATM   22  O   UNK     0      -3.674   4.057 -26.286  0.00  0.00    -0.385 OA
HETATM   23  H   UNK     0      -4.120   4.918 -26.225  0.00  0.00     0.210 HD
ENDBRANCH   4  22
BRANCH   8  24
HETATM   24  O   UNK     0      -7.548   4.840 -23.014  0.00  0.00    -0.360 OA
HETATM   25  H   UNK     0      -6.882   5.367 -23.479  0.00  0.00     0.217 HD
ENDBRANCH   8  24
BRANCH  11  26
HETATM   26  O   UNK     0      -8.383   0.461 -21.388  0.00  0.00    -0.361 OA
HETATM   27  H   UNK     0      -7.833   0.144 -20.650  0.00  0.00     0.217 HD
ENDBRANCH  11  26
TORSDOF 6
