REMARK VINA RESULT:      -6.8      0.624      1.464
REMARK  6 active torsions:
REMARK  status: ('A' for Active; 'I' for Inactive)
REMARK    1  A    between atoms: O_2  and  C_9 
REMARK    2  A    between atoms: O_4  and  C_14 
REMARK    3  A    between atoms: O_5  and  C_19 
REMARK    4  A    between atoms: O_6  and  C_20 
REMARK    5  A    between atoms: O_7  and  C_22 
REMARK    6  A    between atoms: C_8  and  C_10 
ROOT
HETATM    1  O   UNK     0      -5.776   1.485 -23.311  0.00  0.00    -0.337 OA
HETATM    2  O   UNK     0      -7.746   4.957 -24.264  0.00  0.00    -0.289 OA
HETATM    3  C   UNK     0      -5.443   2.230 -24.493  0.00  0.00     0.198 C 
HETATM    4  C   UNK     0      -5.668   3.728 -24.285  0.00  0.00     0.227 C 
HETATM    5  C   UNK     0      -7.121   3.957 -23.929  0.00  0.00     0.196 C 
HETATM    6  C   UNK     0      -7.749   2.905 -23.106  0.00  0.00     0.079 A 
HETATM    7  C   UNK     0      -7.033   1.737 -22.832  0.00  0.00     0.089 A 
HETATM    8  C   UNK     0      -9.032   3.086 -22.583  0.00  0.00     0.085 A 
HETATM    9  C   UNK     0      -7.591   0.763 -22.002  0.00  0.00     0.074 A 
HETATM   10  C   UNK     0      -9.591   2.101 -21.771  0.00  0.00     0.074 A 
HETATM   11  C   UNK     0      -8.871   0.943 -21.476  0.00  0.00     0.071 A 
ENDROOT
BRANCH   3  12
HETATM   12  C   UNK     0      -3.997   1.919 -24.829  0.00  0.00    -0.023 A 
HETATM   13  C   UNK     0      -2.984   2.763 -24.379  0.00  0.00     0.049 A 
HETATM   14  C   UNK     0      -1.653   2.478 -24.687  0.00  0.00     0.099 A 
HETATM   15  C   UNK     0      -1.340   1.350 -25.446  0.00  0.00     0.098 A 
HETATM   16  C   UNK     0      -2.356   0.506 -25.895  0.00  0.00     0.040 A 
HETATM   17  C   UNK     0      -3.686   0.792 -25.587  0.00  0.00     0.013 A 
BRANCH  14  18
HETATM   18  O   UNK     0      -0.670   3.308 -24.242  0.00  0.00    -0.358 OA
HETATM   19  H   UNK     0      -0.099   2.807 -23.633  0.00  0.00     0.217 HD
ENDBRANCH  14  18
BRANCH  15  20
HETATM   20  O   UNK     0      -0.044   1.060 -25.752  0.00  0.00    -0.358 OA
HETATM   21  H   UNK     0       0.082   0.096 -25.714  0.00  0.00     0.217 HD
ENDBRANCH  15  20
ENDBRANCH   3  12
BRANCH   4  22
HETATM   22  O   UNK     0      -5.391   4.435 -25.482  0.00  0.00    -0.385 OA
HETATM   23  H   UNK     0      -4.690   3.953 -25.952  0.00  0.00     0.210 HD
ENDBRANCH   4  22
BRANCH   8  24
HETATM   24  O   UNK     0      -9.773   4.204 -22.823  0.00  0.00    -0.360 OA
HETATM   25  H   UNK     0     -10.596   3.977 -23.283  0.00  0.00     0.217 HD
ENDBRANCH   8  24
BRANCH  11  26
HETATM   26  O   UNK     0      -9.418  -0.012 -20.676  0.00  0.00    -0.361 OA
HETATM   27  H   UNK     0      -9.693  -0.766 -21.226  0.00  0.00     0.217 HD
ENDBRANCH  11  26
TORSDOF 6
