REMARK VINA RESULT:      -6.1      1.698      2.014
REMARK  6 active torsions:
REMARK  status: ('A' for Active; 'I' for Inactive)
REMARK    1  A    between atoms: O_2  and  C_9 
REMARK    2  A    between atoms: O_4  and  C_14 
REMARK    3  A    between atoms: O_5  and  C_19 
REMARK    4  A    between atoms: O_6  and  C_20 
REMARK    5  A    between atoms: O_7  and  C_22 
REMARK    6  A    between atoms: C_8  and  C_10 
ROOT
HETATM    1  O   UNK     0      -5.729   2.448 -23.158  0.00  0.00    -0.337 OA
HETATM    2  O   UNK     0      -6.369   5.736 -25.529  0.00  0.00    -0.289 OA
HETATM    3  C   UNK     0      -5.170   2.535 -24.478  0.00  0.00     0.198 C 
HETATM    4  C   UNK     0      -4.853   3.983 -24.851  0.00  0.00     0.227 C 
HETATM    5  C   UNK     0      -6.130   4.793 -24.783  0.00  0.00     0.196 C 
HETATM    6  C   UNK     0      -7.077   4.400 -23.721  0.00  0.00     0.079 A 
HETATM    7  C   UNK     0      -6.813   3.260 -22.960  0.00  0.00     0.089 A 
HETATM    8  C   UNK     0      -8.210   5.177 -23.461  0.00  0.00     0.085 A 
HETATM    9  C   UNK     0      -7.668   2.915 -21.911  0.00  0.00     0.074 A 
HETATM   10  C   UNK     0      -9.070   4.816 -22.425  0.00  0.00     0.074 A 
HETATM   11  C   UNK     0      -8.797   3.691 -21.647  0.00  0.00     0.071 A 
ENDROOT
BRANCH   3  12
HETATM   12  C   UNK     0      -3.928   1.664 -24.498  0.00  0.00    -0.023 A 
HETATM   13  C   UNK     0      -4.047   0.282 -24.371  0.00  0.00     0.049 A 
HETATM   14  C   UNK     0      -2.905  -0.520 -24.390  0.00  0.00     0.099 A 
HETATM   15  C   UNK     0      -1.647   0.064 -24.534  0.00  0.00     0.098 A 
HETATM   16  C   UNK     0      -1.529   1.448 -24.661  0.00  0.00     0.040 A 
HETATM   17  C   UNK     0      -2.671   2.249 -24.643  0.00  0.00     0.013 A 
BRANCH  14  18
HETATM   18  O   UNK     0      -3.032  -1.870 -24.266  0.00  0.00    -0.358 OA
HETATM   19  H   UNK     0      -3.700  -2.174 -24.905  0.00  0.00     0.217 HD
ENDBRANCH  14  18
BRANCH  15  20
HETATM   20  O   UNK     0      -0.524  -0.708 -24.555  0.00  0.00    -0.358 OA
HETATM   21  H   UNK     0      -0.600  -1.358 -25.275  0.00  0.00     0.217 HD
ENDBRANCH  15  20
ENDBRANCH   3  12
BRANCH   4  22
HETATM   22  O   UNK     0      -4.359   4.050 -26.178  0.00  0.00    -0.385 OA
HETATM   23  H   UNK     0      -3.845   3.241 -26.341  0.00  0.00     0.210 HD
ENDBRANCH   4  22
BRANCH   8  24
HETATM   24  O   UNK     0      -8.515   6.296 -24.176  0.00  0.00    -0.360 OA
HETATM   25  H   UNK     0      -9.004   6.929 -23.628  0.00  0.00     0.217 HD
ENDBRANCH   8  24
BRANCH  11  26
HETATM   26  O   UNK     0      -9.635   3.347 -20.631  0.00  0.00    -0.361 OA
HETATM   27  H   UNK     0      -9.105   3.123 -19.846  0.00  0.00     0.217 HD
ENDBRANCH  11  26
TORSDOF 6
