REMARK VINA RESULT:      -6.2      2.017      7.421
REMARK  6 active torsions:
REMARK  status: ('A' for Active; 'I' for Inactive)
REMARK    1  A    between atoms: O_2  and  C_9 
REMARK    2  A    between atoms: O_4  and  C_14 
REMARK    3  A    between atoms: O_5  and  C_19 
REMARK    4  A    between atoms: O_6  and  C_20 
REMARK    5  A    between atoms: O_7  and  C_22 
REMARK    6  A    between atoms: C_8  and  C_10 
ROOT
HETATM    1  O   UNK     0      -6.440   4.438 -23.993  0.00  0.00    -0.337 OA
HETATM    2  O   UNK     0      -5.536   0.469 -23.475  0.00  0.00    -0.289 OA
HETATM    3  C   UNK     0      -7.470   3.462 -23.776  0.00  0.00     0.198 C 
HETATM    4  C   UNK     0      -6.973   2.319 -22.891  0.00  0.00     0.227 C 
HETATM    5  C   UNK     0      -5.784   1.666 -23.562  0.00  0.00     0.196 C 
HETATM    6  C   UNK     0      -4.897   2.576 -24.313  0.00  0.00     0.079 A 
HETATM    7  C   UNK     0      -5.269   3.913 -24.471  0.00  0.00     0.089 A 
HETATM    8  C   UNK     0      -3.686   2.113 -24.834  0.00  0.00     0.085 A 
HETATM    9  C   UNK     0      -4.409   4.797 -25.123  0.00  0.00     0.074 A 
HETATM   10  C   UNK     0      -2.840   2.997 -25.502  0.00  0.00     0.074 A 
HETATM   11  C   UNK     0      -3.197   4.338 -25.642  0.00  0.00     0.071 A 
ENDROOT
BRANCH   3  12
HETATM   12  C   UNK     0      -8.650   4.184 -23.154  0.00  0.00    -0.023 A 
HETATM   13  C   UNK     0      -9.110   3.803 -21.895  0.00  0.00     0.049 A 
HETATM   14  C   UNK     0     -10.195   4.467 -21.321  0.00  0.00     0.099 A 
HETATM   15  C   UNK     0     -10.818   5.508 -22.009  0.00  0.00     0.098 A 
HETATM   16  C   UNK     0     -10.355   5.888 -23.269  0.00  0.00     0.040 A 
HETATM   17  C   UNK     0      -9.270   5.225 -23.842  0.00  0.00     0.013 A 
BRANCH  14  18
HETATM   18  O   UNK     0     -10.638   4.089 -20.090  0.00  0.00    -0.358 OA
HETATM   19  H   UNK     0     -11.591   4.277 -20.037  0.00  0.00     0.217 HD
ENDBRANCH  14  18
BRANCH  15  20
HETATM   20  O   UNK     0     -11.878   6.165 -21.459  0.00  0.00    -0.358 OA
HETATM   21  H   UNK     0     -12.134   5.718 -20.634  0.00  0.00     0.217 HD
ENDBRANCH  15  20
ENDBRANCH   3  12
BRANCH   4  22
HETATM   22  O   UNK     0      -7.987   1.340 -22.741  0.00  0.00    -0.385 OA
HETATM   23  H   UNK     0      -8.231   1.312 -21.800  0.00  0.00     0.210 HD
ENDBRANCH   4  22
BRANCH   8  24
HETATM   24  O   UNK     0      -3.278   0.819 -24.711  0.00  0.00    -0.360 OA
HETATM   25  H   UNK     0      -2.399   0.698 -25.102  0.00  0.00     0.217 HD
ENDBRANCH   8  24
BRANCH  11  26
HETATM   26  O   UNK     0      -2.364   5.200 -26.288  0.00  0.00    -0.361 OA
HETATM   27  H   UNK     0      -2.710   5.364 -27.182  0.00  0.00     0.217 HD
ENDBRANCH  11  26
TORSDOF 6
