MODEL 1
REMARK VINA RESULT:      -7.9      0.000      0.000
REMARK  13 active torsions:
REMARK  status: ('A' for Active; 'I' for Inactive)
REMARK    1  A    between atoms: C_2  and  O_12 
REMARK    2  A    between atoms: C_3  and  O_10 
REMARK    3  A    between atoms: C_4  and  O_8 
REMARK    4  A    between atoms: C_5  and  O_6 
REMARK    5  A    between atoms: C_22  and  C_23 
REMARK    6  A    between atoms: O_12  and  C_13 
REMARK    7  A    between atoms: C_13  and  C_14 
REMARK    8  A    between atoms: C_15  and  C_16 
REMARK    9  A    between atoms: C_23  and  O_24 
REMARK   10  A    between atoms: O_24  and  C_25 
REMARK   11  A    between atoms: C_26  and  O_34 
REMARK   12  A    between atoms: C_27  and  O_32 
REMARK   13  A    between atoms: C_28  and  O_30 
ROOT
ATOM      1  O   LIG     1     -11.876  46.049  33.862  0.00  0.00    -0.341 OA
ATOM      2  C   LIG     1     -12.942  46.926  33.506  0.00  0.00     0.282 C 
ATOM      3  C   LIG     1     -14.106  46.779  34.487  0.00  0.00     0.201 C 
ATOM      4  C   LIG     1     -13.643  46.966  35.931  0.00  0.00     0.179 C 
ATOM      5  C   LIG     1     -12.400  46.128  36.227  0.00  0.00     0.177 C 
ATOM      6  C   LIG     1     -11.333  46.340  35.151  0.00  0.00     0.178 C 
ENDROOT
BRANCH   6   7
ATOM      7  C   LIG     1     -10.129  45.427  35.361  0.00  0.00     0.197 C 
BRANCH   7   8
ATOM      8  O   LIG     1     -10.514  44.361  36.209  0.00  0.00    -0.346 OA
BRANCH   8   9
ATOM      9  C   LIG     1      -9.403  43.816  36.912  0.00  0.00     0.281 C 
ATOM     10  O   LIG     1      -9.078  42.495  36.464  0.00  0.00    -0.346 OA
ATOM     11  C   LIG     1     -10.078  41.525  36.765  0.00  0.00     0.197 C 
ATOM     12  C   LIG     1     -10.291  41.422  38.270  0.00  0.00     0.171 C 
ATOM     13  C   LIG     1     -10.683  42.781  38.853  0.00  0.00     0.178 C 
ATOM     14  C   LIG     1      -9.673  43.850  38.424  0.00  0.00     0.201 C 
BRANCH  12  15
ATOM     15  O   LIG     1     -11.296  40.463  38.564  0.00  0.00    -0.387 OA
ATOM     16  H   LIG     1     -10.914  39.817  39.184  0.00  0.00     0.210 HD
ENDBRANCH  12  15
BRANCH  13  17
ATOM     17  O   LIG     1     -11.983  43.137  38.386  0.00  0.00    -0.386 OA
ATOM     18  H   LIG     1     -12.140  44.064  38.635  0.00  0.00     0.210 HD
ENDBRANCH  13  17
BRANCH  14  19
ATOM     19  O   LIG     1      -8.436  43.629  39.098  0.00  0.00    -0.384 OA
ATOM     20  H   LIG     1      -8.577  42.960  39.788  0.00  0.00     0.210 HD
ENDBRANCH  14  19
ENDBRANCH   8   9
ENDBRANCH   7   8
ENDBRANCH   6   7
BRANCH   5  21
ATOM     21  O   LIG     1     -11.870  46.501  37.497  0.00  0.00    -0.386 OA
ATOM     22  H   LIG     1     -12.389  47.255  37.828  0.00  0.00     0.210 HD
ENDBRANCH   5  21
BRANCH   2  23
ATOM     23  O   LIG     1     -13.420  46.600  32.203  0.00  0.00    -0.345 OA
BRANCH  23  24
ATOM     24  C   LIG     1     -13.380  45.200  31.973  0.00  0.00     0.190 C 
BRANCH  24  25
ATOM     25  C   LIG     1     -14.707  44.761  31.441  0.00  0.00     0.001 C 
ATOM     26  C   LIG     1     -14.856  43.740  30.583  0.00  0.00     0.006 C 
BRANCH  26  27
ATOM     27  C   LIG     1     -16.142  43.264  30.045  0.00  0.00    -0.025 A 
ATOM     28  C   LIG     1     -16.770  42.184  30.644  0.00  0.00     0.008 A 
ATOM     29  C   LIG     1     -17.987  41.733  30.135  0.00  0.00     0.001 A 
ATOM     30  C   LIG     1     -18.561  42.367  29.032  0.00  0.00     0.000 A 
ATOM     31  C   LIG     1     -17.917  43.453  28.440  0.00  0.00     0.001 A 
ATOM     32  C   LIG     1     -16.699  43.904  28.950  0.00  0.00     0.008 A 
ENDBRANCH  26  27
ENDBRANCH  24  25
ENDBRANCH  23  24
ENDBRANCH   2  23
BRANCH   4  33
ATOM     33  O   LIG     1     -14.680  46.547  36.820  0.00  0.00    -0.386 OA
ATOM     34  H   LIG     1     -15.308  47.284  36.903  0.00  0.00     0.210 HD
ENDBRANCH   4  33
BRANCH   3  35
ATOM     35  O   LIG     1     -15.084  47.769  34.170  0.00  0.00    -0.384 OA
ATOM     36  H   LIG     1     -14.737  48.635  34.444  0.00  0.00     0.210 HD
ENDBRANCH   3  35
TORSDOF 13
ENDMDL
MODEL 2
REMARK VINA RESULT:      -7.6     18.825     24.603
REMARK  13 active torsions:
REMARK  status: ('A' for Active; 'I' for Inactive)
REMARK    1  A    between atoms: C_2  and  O_12 
REMARK    2  A    between atoms: C_3  and  O_10 
REMARK    3  A    between atoms: C_4  and  O_8 
REMARK    4  A    between atoms: C_5  and  O_6 
REMARK    5  A    between atoms: C_22  and  C_23 
REMARK    6  A    between atoms: O_12  and  C_13 
REMARK    7  A    between atoms: C_13  and  C_14 
REMARK    8  A    between atoms: C_15  and  C_16 
REMARK    9  A    between atoms: C_23  and  O_24 
REMARK   10  A    between atoms: O_24  and  C_25 
REMARK   11  A    between atoms: C_26  and  O_34 
REMARK   12  A    between atoms: C_27  and  O_32 
REMARK   13  A    between atoms: C_28  and  O_30 
ROOT
ATOM      1  O   LIG     1     -19.933  52.329  14.624  0.00  0.00    -0.341 OA
ATOM      2  C   LIG     1     -19.091  51.180  14.573  0.00  0.00     0.282 C 
ATOM      3  C   LIG     1     -19.865  49.973  14.042  0.00  0.00     0.201 C 
ATOM      4  C   LIG     1     -20.527  50.281  12.700  0.00  0.00     0.179 C 
ATOM      5  C   LIG     1     -21.290  51.604  12.750  0.00  0.00     0.177 C 
ATOM      6  C   LIG     1     -20.414  52.715  13.335  0.00  0.00     0.178 C 
ENDROOT
BRANCH   6   7
ATOM      7  C   LIG     1     -21.190  54.018  13.504  0.00  0.00     0.197 C 
BRANCH   7   8
ATOM      8  O   LIG     1     -21.125  54.742  12.288  0.00  0.00    -0.346 OA
BRANCH   8   9
ATOM      9  C   LIG     1     -21.315  56.137  12.494  0.00  0.00     0.281 C 
ATOM     10  O   LIG     1     -22.698  56.473  12.653  0.00  0.00    -0.346 OA
ATOM     11  C   LIG     1     -23.476  56.274  11.475  0.00  0.00     0.197 C 
ATOM     12  C   LIG     1     -22.957  57.142  10.336  0.00  0.00     0.171 C 
ATOM     13  C   LIG     1     -21.486  56.836  10.052  0.00  0.00     0.178 C 
ATOM     14  C   LIG     1     -20.669  56.928  11.345  0.00  0.00     0.201 C 
BRANCH  12  15
ATOM     15  O   LIG     1     -23.729  56.931   9.161  0.00  0.00    -0.387 OA
ATOM     16  H   LIG     1     -23.871  57.798   8.743  0.00  0.00     0.210 HD
ENDBRANCH  12  15
BRANCH  13  17
ATOM     17  O   LIG     1     -21.374  55.521   9.509  0.00  0.00    -0.386 OA
ATOM     18  H   LIG     1     -21.672  54.896  10.192  0.00  0.00     0.210 HD
ENDBRANCH  13  17
BRANCH  14  19
ATOM     19  O   LIG     1     -20.574  58.292  11.748  0.00  0.00    -0.384 OA
ATOM     20  H   LIG     1     -19.676  58.453  12.082  0.00  0.00     0.210 HD
ENDBRANCH  14  19
ENDBRANCH   8   9
ENDBRANCH   7   8
ENDBRANCH   6   7
BRANCH   5  21
ATOM     21  O   LIG     1     -21.694  51.967  11.433  0.00  0.00    -0.386 OA
ATOM     22  H   LIG     1     -22.589  51.614  11.286  0.00  0.00     0.210 HD
ENDBRANCH   5  21
BRANCH   2  23
ATOM     23  O   LIG     1     -18.626  50.865  15.883  0.00  0.00    -0.345 OA
BRANCH  23  24
ATOM     24  C   LIG     1     -17.208  50.864  15.943  0.00  0.00     0.190 C 
BRANCH  24  25
ATOM     25  C   LIG     1     -16.758  49.652  16.693  0.00  0.00     0.001 C 
ATOM     26  C   LIG     1     -15.862  49.694  17.691  0.00  0.00     0.006 C 
BRANCH  26  27
ATOM     27  C   LIG     1     -15.400  48.530  18.468  0.00  0.00    -0.025 A 
ATOM     28  C   LIG     1     -15.781  47.257  18.075  0.00  0.00     0.008 A 
ATOM     29  C   LIG     1     -15.344  46.156  18.810  0.00  0.00     0.001 A 
ATOM     30  C   LIG     1     -14.532  46.342  19.929  0.00  0.00     0.000 A 
ATOM     31  C   LIG     1     -14.156  47.629  20.312  0.00  0.00     0.001 A 
ATOM     32  C   LIG     1     -14.594  48.730  19.577  0.00  0.00     0.008 A 
ENDBRANCH  26  27
ENDBRANCH  24  25
ENDBRANCH  23  24
ENDBRANCH   2  23
BRANCH   4  33
ATOM     33  O   LIG     1     -21.459  49.246  12.380  0.00  0.00    -0.386 OA
ATOM     34  H   LIG     1     -21.991  49.078  13.176  0.00  0.00     0.210 HD
ENDBRANCH   4  33
BRANCH   3  35
ATOM     35  O   LIG     1     -18.949  48.890  13.882  0.00  0.00    -0.384 OA
ATOM     36  H   LIG     1     -18.335  49.118  13.163  0.00  0.00     0.210 HD
ENDBRANCH   3  35
TORSDOF 13
ENDMDL
MODEL 3
REMARK VINA RESULT:      -7.5     19.428     25.189
REMARK  13 active torsions:
REMARK  status: ('A' for Active; 'I' for Inactive)
REMARK    1  A    between atoms: C_2  and  O_12 
REMARK    2  A    between atoms: C_3  and  O_10 
REMARK    3  A    between atoms: C_4  and  O_8 
REMARK    4  A    between atoms: C_5  and  O_6 
REMARK    5  A    between atoms: C_22  and  C_23 
REMARK    6  A    between atoms: O_12  and  C_13 
REMARK    7  A    between atoms: C_13  and  C_14 
REMARK    8  A    between atoms: C_15  and  C_16 
REMARK    9  A    between atoms: C_23  and  O_24 
REMARK   10  A    between atoms: O_24  and  C_25 
REMARK   11  A    between atoms: C_26  and  O_34 
REMARK   12  A    between atoms: C_27  and  O_32 
REMARK   13  A    between atoms: C_28  and  O_30 
ROOT
ATOM      1  O   LIG     1     -20.175  52.682  13.791  0.00  0.00    -0.341 OA
ATOM      2  C   LIG     1     -19.261  51.718  13.271  0.00  0.00     0.282 C 
ATOM      3  C   LIG     1     -20.016  50.507  12.723  0.00  0.00     0.201 C 
ATOM      4  C   LIG     1     -21.077  50.925  11.706  0.00  0.00     0.179 C 
ATOM      5  C   LIG     1     -21.935  52.070  12.241  0.00  0.00     0.177 C 
ATOM      6  C   LIG     1     -21.057  53.196  12.792  0.00  0.00     0.178 C 
ENDROOT
BRANCH   6   7
ATOM      7  C   LIG     1     -21.890  54.299  13.438  0.00  0.00     0.197 C 
BRANCH   7   8
ATOM      8  O   LIG     1     -22.587  54.992  12.418  0.00  0.00    -0.346 OA
BRANCH   8   9
ATOM      9  C   LIG     1     -22.594  56.397  12.645  0.00  0.00     0.281 C 
ATOM     10  O   LIG     1     -23.630  57.055  11.906  0.00  0.00    -0.346 OA
ATOM     11  C   LIG     1     -23.440  57.019  10.493  0.00  0.00     0.197 C 
ATOM     12  C   LIG     1     -22.139  57.712  10.108  0.00  0.00     0.171 C 
ATOM     13  C   LIG     1     -20.951  57.059  10.817  0.00  0.00     0.178 C 
ATOM     14  C   LIG     1     -21.211  56.985  12.325  0.00  0.00     0.201 C 
BRANCH  12  15
ATOM     15  O   LIG     1     -21.949  57.662   8.701  0.00  0.00    -0.387 OA
ATOM     16  H   LIG     1     -21.065  58.022   8.511  0.00  0.00     0.210 HD
ENDBRANCH  12  15
BRANCH  13  17
ATOM     17  O   LIG     1     -20.759  55.743  10.300  0.00  0.00    -0.386 OA
ATOM     18  H   LIG     1     -21.233  55.127  10.885  0.00  0.00     0.210 HD
ENDBRANCH  13  17
BRANCH  14  19
ATOM     19  O   LIG     1     -21.151  58.297  12.879  0.00  0.00    -0.384 OA
ATOM     20  H   LIG     1     -21.962  58.453  13.391  0.00  0.00     0.210 HD
ENDBRANCH  14  19
ENDBRANCH   8   9
ENDBRANCH   7   8
ENDBRANCH   6   7
BRANCH   5  21
ATOM     21  O   LIG     1     -22.751  52.580  11.189  0.00  0.00    -0.386 OA
ATOM     22  H   LIG     1     -22.380  52.269  10.345  0.00  0.00     0.210 HD
ENDBRANCH   5  21
BRANCH   2  23
ATOM     23  O   LIG     1     -18.395  51.265  14.310  0.00  0.00    -0.345 OA
BRANCH  23  24
ATOM     24  C   LIG     1     -19.130  50.820  15.438  0.00  0.00     0.190 C 
BRANCH  24  25
ATOM     25  C   LIG     1     -18.302  49.830  16.193  0.00  0.00     0.001 C 
ATOM     26  C   LIG     1     -17.137  50.141  16.783  0.00  0.00     0.006 C 
BRANCH  26  27
ATOM     27  C   LIG     1     -16.296  49.204  17.547  0.00  0.00    -0.025 A 
ATOM     28  C   LIG     1     -15.225  49.694  18.277  0.00  0.00     0.008 A 
ATOM     29  C   LIG     1     -14.429  48.807  19.001  0.00  0.00     0.001 A 
ATOM     30  C   LIG     1     -14.713  47.442  18.985  0.00  0.00     0.000 A 
ATOM     31  C   LIG     1     -15.794  46.963  18.246  0.00  0.00     0.001 A 
ATOM     32  C   LIG     1     -16.591  47.850  17.522  0.00  0.00     0.008 A 
ENDBRANCH  26  27
ENDBRANCH  24  25
ENDBRANCH  23  24
ENDBRANCH   2  23
BRANCH   4  33
ATOM     33  O   LIG     1     -21.938  49.818  11.434  0.00  0.00    -0.386 OA
ATOM     34  H   LIG     1     -21.419  49.159  10.942  0.00  0.00     0.210 HD
ENDBRANCH   4  33
BRANCH   3  35
ATOM     35  O   LIG     1     -19.072  49.640  12.094  0.00  0.00    -0.384 OA
ATOM     36  H   LIG     1     -19.116  48.775  12.535  0.00  0.00     0.210 HD
ENDBRANCH   3  35
TORSDOF 13
ENDMDL
MODEL 4
REMARK VINA RESULT:      -7.5     13.861     16.319
REMARK  13 active torsions:
REMARK  status: ('A' for Active; 'I' for Inactive)
REMARK    1  A    between atoms: C_2  and  O_12 
REMARK    2  A    between atoms: C_3  and  O_10 
REMARK    3  A    between atoms: C_4  and  O_8 
REMARK    4  A    between atoms: C_5  and  O_6 
REMARK    5  A    between atoms: C_22  and  C_23 
REMARK    6  A    between atoms: O_12  and  C_13 
REMARK    7  A    between atoms: C_13  and  C_14 
REMARK    8  A    between atoms: C_15  and  C_16 
REMARK    9  A    between atoms: C_23  and  O_24 
REMARK   10  A    between atoms: O_24  and  C_25 
REMARK   11  A    between atoms: C_26  and  O_34 
REMARK   12  A    between atoms: C_27  and  O_32 
REMARK   13  A    between atoms: C_28  and  O_30 
ROOT
ATOM      1  O   LIG     1     -17.736  39.547  20.004  0.00  0.00    -0.341 OA
ATOM      2  C   LIG     1     -17.286  40.824  20.451  0.00  0.00     0.282 C 
ATOM      3  C   LIG     1     -17.952  41.193  21.777  0.00  0.00     0.201 C 
ATOM      4  C   LIG     1     -17.756  40.097  22.823  0.00  0.00     0.179 C 
ATOM      5  C   LIG     1     -18.098  38.720  22.254  0.00  0.00     0.177 C 
ATOM      6  C   LIG     1     -17.397  38.497  20.912  0.00  0.00     0.178 C 
ENDROOT
BRANCH   6   7
ATOM      7  C   LIG     1     -17.815  37.178  20.268  0.00  0.00     0.197 C 
BRANCH   7   8
ATOM      8  O   LIG     1     -16.793  36.224  20.493  0.00  0.00    -0.346 OA
BRANCH   8   9
ATOM      9  C   LIG     1     -17.280  34.891  20.371  0.00  0.00     0.281 C 
ATOM     10  O   LIG     1     -18.032  34.487  21.521  0.00  0.00    -0.346 OA
ATOM     11  C   LIG     1     -17.251  34.373  22.708  0.00  0.00     0.197 C 
ATOM     12  C   LIG     1     -16.155  33.330  22.531  0.00  0.00     0.171 C 
ATOM     13  C   LIG     1     -15.259  33.686  21.343  0.00  0.00     0.178 C 
ATOM     14  C   LIG     1     -16.112  33.932  20.094  0.00  0.00     0.201 C 
BRANCH  12  15
ATOM     15  O   LIG     1     -15.372  33.228  23.712  0.00  0.00    -0.387 OA
ATOM     16  H   LIG     1     -15.915  33.549  24.453  0.00  0.00     0.210 HD
ENDBRANCH  12  15
BRANCH  13  17
ATOM     17  O   LIG     1     -14.513  34.862  21.651  0.00  0.00    -0.386 OA
ATOM     18  H   LIG     1     -14.823  35.569  21.059  0.00  0.00     0.210 HD
ENDBRANCH  13  17
BRANCH  14  19
ATOM     19  O   LIG     1     -16.657  32.694  19.643  0.00  0.00    -0.384 OA
ATOM     20  H   LIG     1     -15.985  32.238  19.109  0.00  0.00     0.210 HD
ENDBRANCH  14  19
ENDBRANCH   8   9
ENDBRANCH   7   8
ENDBRANCH   6   7
BRANCH   5  21
ATOM     21  O   LIG     1     -17.686  37.713  23.175  0.00  0.00    -0.386 OA
ATOM     22  H   LIG     1     -17.498  38.144  24.026  0.00  0.00     0.210 HD
ENDBRANCH   5  21
BRANCH   2  23
ATOM     23  O   LIG     1     -17.632  41.820  19.491  0.00  0.00    -0.345 OA
BRANCH  23  24
ATOM     24  C   LIG     1     -16.495  42.252  18.761  0.00  0.00     0.190 C 
BRANCH  24  25
ATOM     25  C   LIG     1     -16.132  43.632  19.207  0.00  0.00     0.001 C 
ATOM     26  C   LIG     1     -15.691  44.585  18.372  0.00  0.00     0.006 C 
BRANCH  26  27
ATOM     27  C   LIG     1     -15.336  45.960  18.763  0.00  0.00    -0.025 A 
ATOM     28  C   LIG     1     -14.740  46.183  19.994  0.00  0.00     0.008 A 
ATOM     29  C   LIG     1     -14.404  47.485  20.363  0.00  0.00     0.001 A 
ATOM     30  C   LIG     1     -14.669  48.547  19.499  0.00  0.00     0.000 A 
ATOM     31  C   LIG     1     -15.270  48.307  18.263  0.00  0.00     0.001 A 
ATOM     32  C   LIG     1     -15.605  47.004  17.893  0.00  0.00     0.008 A 
ENDBRANCH  26  27
ENDBRANCH  24  25
ENDBRANCH  23  24
ENDBRANCH   2  23
BRANCH   4  33
ATOM     33  O   LIG     1     -18.617  40.341  23.936  0.00  0.00    -0.386 OA
ATOM     34  H   LIG     1     -18.198  39.949  24.720  0.00  0.00     0.210 HD
ENDBRANCH   4  33
BRANCH   3  35
ATOM     35  O   LIG     1     -17.369  42.408  22.247  0.00  0.00    -0.384 OA
ATOM     36  H   LIG     1     -17.044  42.904  21.477  0.00  0.00     0.210 HD
ENDBRANCH   3  35
TORSDOF 13
ENDMDL
MODEL 5
REMARK VINA RESULT:      -7.3     21.362     26.430
REMARK  13 active torsions:
REMARK  status: ('A' for Active; 'I' for Inactive)
REMARK    1  A    between atoms: C_2  and  O_12 
REMARK    2  A    between atoms: C_3  and  O_10 
REMARK    3  A    between atoms: C_4  and  O_8 
REMARK    4  A    between atoms: C_5  and  O_6 
REMARK    5  A    between atoms: C_22  and  C_23 
REMARK    6  A    between atoms: O_12  and  C_13 
REMARK    7  A    between atoms: C_13  and  C_14 
REMARK    8  A    between atoms: C_15  and  C_16 
REMARK    9  A    between atoms: C_23  and  O_24 
REMARK   10  A    between atoms: O_24  and  C_25 
REMARK   11  A    between atoms: C_26  and  O_34 
REMARK   12  A    between atoms: C_27  and  O_32 
REMARK   13  A    between atoms: C_28  and  O_30 
ROOT
ATOM      1  O   LIG     1     -22.072  53.527  10.859  0.00  0.00    -0.341 OA
ATOM      2  C   LIG     1     -22.352  52.292  11.514  0.00  0.00     0.282 C 
ATOM      3  C   LIG     1     -23.762  52.308  12.106  0.00  0.00     0.201 C 
ATOM      4  C   LIG     1     -24.806  52.668  11.049  0.00  0.00     0.179 C 
ATOM      5  C   LIG     1     -24.390  53.909  10.260  0.00  0.00     0.177 C 
ATOM      6  C   LIG     1     -22.949  53.777   9.760  0.00  0.00     0.178 C 
ENDROOT
BRANCH   6   7
ATOM      7  C   LIG     1     -22.471  55.051   9.069  0.00  0.00     0.197 C 
BRANCH   7   8
ATOM      8  O   LIG     1     -21.602  55.742   9.949  0.00  0.00    -0.346 OA
BRANCH   8   9
ATOM      9  C   LIG     1     -22.168  56.970  10.393  0.00  0.00     0.281 C 
ATOM     10  O   LIG     1     -21.186  58.007  10.497  0.00  0.00    -0.346 OA
ATOM     11  C   LIG     1     -20.217  57.781  11.518  0.00  0.00     0.197 C 
ATOM     12  C   LIG     1     -20.887  57.693  12.883  0.00  0.00     0.171 C 
ATOM     13  C   LIG     1     -21.938  56.581  12.898  0.00  0.00     0.178 C 
ATOM     14  C   LIG     1     -22.906  56.755  11.723  0.00  0.00     0.201 C 
BRANCH  12  15
ATOM     15  O   LIG     1     -19.920  57.456  13.896  0.00  0.00    -0.387 OA
ATOM     16  H   LIG     1     -20.320  57.702  14.748  0.00  0.00     0.210 HD
ENDBRANCH  12  15
BRANCH  13  17
ATOM     17  O   LIG     1     -21.287  55.316  12.797  0.00  0.00    -0.386 OA
ATOM     18  H   LIG     1     -21.478  54.823  13.613  0.00  0.00     0.210 HD
ENDBRANCH  13  17
BRANCH  14  19
ATOM     19  O   LIG     1     -23.733  57.893  11.957  0.00  0.00    -0.384 OA
ATOM     20  H   LIG     1     -23.451  58.606  11.361  0.00  0.00     0.210 HD
ENDBRANCH  14  19
ENDBRANCH   8   9
ENDBRANCH   7   8
ENDBRANCH   6   7
BRANCH   5  21
ATOM     21  O   LIG     1     -25.262  54.075   9.145  0.00  0.00    -0.386 OA
ATOM     22  H   LIG     1     -25.537  55.008   9.116  0.00  0.00     0.210 HD
ENDBRANCH   5  21
BRANCH   2  23
ATOM     23  O   LIG     1     -21.429  52.092  12.582  0.00  0.00    -0.345 OA
BRANCH  23  24
ATOM     24  C   LIG     1     -20.094  52.026  12.105  0.00  0.00     0.190 C 
BRANCH  24  25
ATOM     25  C   LIG     1     -19.205  51.583  13.222  0.00  0.00     0.001 C 
ATOM     26  C   LIG     1     -19.660  50.989  14.336  0.00  0.00     0.006 C 
BRANCH  26  27
ATOM     27  C   LIG     1     -18.822  50.523  15.454  0.00  0.00    -0.025 A 
ATOM     28  C   LIG     1     -19.426  49.973  16.573  0.00  0.00     0.008 A 
ATOM     29  C   LIG     1     -18.632  49.533  17.631  0.00  0.00     0.001 A 
ATOM     30  C   LIG     1     -17.244  49.649  17.558  0.00  0.00     0.000 A 
ATOM     31  C   LIG     1     -16.650  50.205  16.425  0.00  0.00     0.001 A 
ATOM     32  C   LIG     1     -17.444  50.645  15.366  0.00  0.00     0.008 A 
ENDBRANCH  26  27
ENDBRANCH  24  25
ENDBRANCH  23  24
ENDBRANCH   2  23
BRANCH   4  33
ATOM     33  O   LIG     1     -26.052  52.949  11.687  0.00  0.00    -0.386 OA
ATOM     34  H   LIG     1     -26.596  52.144  11.631  0.00  0.00     0.210 HD
ENDBRANCH   4  33
BRANCH   3  35
ATOM     35  O   LIG     1     -24.043  51.009  12.626  0.00  0.00    -0.384 OA
ATOM     36  H   LIG     1     -24.443  51.117  13.506  0.00  0.00     0.210 HD
ENDBRANCH   3  35
TORSDOF 13
ENDMDL
MODEL 6
REMARK VINA RESULT:      -7.2     13.615     16.354
REMARK  13 active torsions:
REMARK  status: ('A' for Active; 'I' for Inactive)
REMARK    1  A    between atoms: C_2  and  O_12 
REMARK    2  A    between atoms: C_3  and  O_10 
REMARK    3  A    between atoms: C_4  and  O_8 
REMARK    4  A    between atoms: C_5  and  O_6 
REMARK    5  A    between atoms: C_22  and  C_23 
REMARK    6  A    between atoms: O_12  and  C_13 
REMARK    7  A    between atoms: C_13  and  C_14 
REMARK    8  A    between atoms: C_15  and  C_16 
REMARK    9  A    between atoms: C_23  and  O_24 
REMARK   10  A    between atoms: O_24  and  C_25 
REMARK   11  A    between atoms: C_26  and  O_34 
REMARK   12  A    between atoms: C_27  and  O_32 
REMARK   13  A    between atoms: C_28  and  O_30 
ROOT
ATOM      1  O   LIG     1     -18.383  38.438  20.462  0.00  0.00    -0.341 OA
ATOM      2  C   LIG     1     -18.032  39.671  21.086  0.00  0.00     0.282 C 
ATOM      3  C   LIG     1     -18.571  39.721  22.516  0.00  0.00     0.201 C 
ATOM      4  C   LIG     1     -18.125  38.501  23.322  0.00  0.00     0.179 C 
ATOM      5  C   LIG     1     -18.374  37.206  22.550  0.00  0.00     0.177 C 
ATOM      6  C   LIG     1     -17.819  37.307  21.127  0.00  0.00     0.178 C 
ENDROOT
BRANCH   6   7
ATOM      7  C   LIG     1     -18.157  36.070  20.300  0.00  0.00     0.197 C 
BRANCH   7   8
ATOM      8  O   LIG     1     -17.683  34.926  20.985  0.00  0.00    -0.346 OA
BRANCH   8   9
ATOM      9  C   LIG     1     -16.673  34.248  20.246  0.00  0.00     0.281 C 
ATOM     10  O   LIG     1     -17.087  32.937  19.848  0.00  0.00    -0.346 OA
ATOM     11  C   LIG     1     -17.264  32.034  20.936  0.00  0.00     0.197 C 
ATOM     12  C   LIG     1     -15.959  31.852  21.701  0.00  0.00     0.171 C 
ATOM     13  C   LIG     1     -15.441  33.197  22.211  0.00  0.00     0.178 C 
ATOM     14  C   LIG     1     -15.370  34.206  21.059  0.00  0.00     0.201 C 
BRANCH  12  15
ATOM     15  O   LIG     1     -16.144  30.961  22.792  0.00  0.00    -0.387 OA
ATOM     16  H   LIG     1     -15.291  30.880  23.252  0.00  0.00     0.210 HD
ENDBRANCH  12  15
BRANCH  13  17
ATOM     17  O   LIG     1     -16.319  33.688  23.222  0.00  0.00    -0.386 OA
ATOM     18  H   LIG     1     -16.427  32.983  23.883  0.00  0.00     0.210 HD
ENDBRANCH  13  17
BRANCH  14  19
ATOM     19  O   LIG     1     -14.311  33.841  20.177  0.00  0.00    -0.384 OA
ATOM     20  H   LIG     1     -14.048  34.628  19.671  0.00  0.00     0.210 HD
ENDBRANCH  14  19
ENDBRANCH   8   9
ENDBRANCH   7   8
ENDBRANCH   6   7
BRANCH   5  21
ATOM     21  O   LIG     1     -17.741  36.124  23.228  0.00  0.00    -0.386 OA
ATOM     22  H   LIG     1     -17.729  35.359  22.626  0.00  0.00     0.210 HD
ENDBRANCH   5  21
BRANCH   2  23
ATOM     23  O   LIG     1     -18.604  40.758  20.361  0.00  0.00    -0.345 OA
BRANCH  23  24
ATOM     24  C   LIG     1     -17.697  41.271  19.398  0.00  0.00     0.190 C 
BRANCH  24  25
ATOM     25  C   LIG     1     -16.926  42.394  20.013  0.00  0.00     0.001 C 
ATOM     26  C   LIG     1     -16.819  43.609  19.452  0.00  0.00     0.006 C 
BRANCH  26  27
ATOM     27  C   LIG     1     -16.082  44.748  20.027  0.00  0.00    -0.025 A 
ATOM     28  C   LIG     1     -15.229  45.482  19.219  0.00  0.00     0.008 A 
ATOM     29  C   LIG     1     -14.533  46.560  19.764  0.00  0.00     0.001 A 
ATOM     30  C   LIG     1     -14.697  46.890  21.109  0.00  0.00     0.000 A 
ATOM     31  C   LIG     1     -15.559  46.142  21.910  0.00  0.00     0.001 A 
ATOM     32  C   LIG     1     -16.256  45.063  21.365  0.00  0.00     0.008 A 
ENDBRANCH  26  27
ENDBRANCH  24  25
ENDBRANCH  23  24
ENDBRANCH   2  23
BRANCH   4  33
ATOM     33  O   LIG     1     -18.868  38.439  24.540  0.00  0.00    -0.386 OA
ATOM     34  H   LIG     1     -19.380  37.612  24.527  0.00  0.00     0.210 HD
ENDBRANCH   4  33
BRANCH   3  35
ATOM     35  O   LIG     1     -18.079  40.907  23.138  0.00  0.00    -0.384 OA
ATOM     36  H   LIG     1     -18.677  41.134  23.870  0.00  0.00     0.210 HD
ENDBRANCH   3  35
TORSDOF 13
ENDMDL
MODEL 7
REMARK VINA RESULT:      -7.2     23.047     28.714
REMARK  13 active torsions:
REMARK  status: ('A' for Active; 'I' for Inactive)
REMARK    1  A    between atoms: C_2  and  O_12 
REMARK    2  A    between atoms: C_3  and  O_10 
REMARK    3  A    between atoms: C_4  and  O_8 
REMARK    4  A    between atoms: C_5  and  O_6 
REMARK    5  A    between atoms: C_22  and  C_23 
REMARK    6  A    between atoms: O_12  and  C_13 
REMARK    7  A    between atoms: C_13  and  C_14 
REMARK    8  A    between atoms: C_15  and  C_16 
REMARK    9  A    between atoms: C_23  and  O_24 
REMARK   10  A    between atoms: O_24  and  C_25 
REMARK   11  A    between atoms: C_26  and  O_34 
REMARK   12  A    between atoms: C_27  and  O_32 
REMARK   13  A    between atoms: C_28  and  O_30 
ROOT
ATOM      1  O   LIG     1     -23.093  56.038  11.473  0.00  0.00    -0.341 OA
ATOM      2  C   LIG     1     -22.464  56.263  12.733  0.00  0.00     0.282 C 
ATOM      3  C   LIG     1     -21.009  56.690  12.537  0.00  0.00     0.201 C 
ATOM      4  C   LIG     1     -20.904  57.893  11.599  0.00  0.00     0.179 C 
ATOM      5  C   LIG     1     -21.722  57.677  10.327  0.00  0.00     0.177 C 
ATOM      6  C   LIG     1     -23.142  57.216  10.667  0.00  0.00     0.178 C 
ENDROOT
BRANCH   6   7
ATOM      7  C   LIG     1     -23.943  56.882   9.412  0.00  0.00     0.197 C 
BRANCH   7   8
ATOM      8  O   LIG     1     -24.863  57.931   9.171  0.00  0.00    -0.346 OA
BRANCH   8   9
ATOM      9  C   LIG     1     -25.932  57.514   8.329  0.00  0.00     0.281 C 
ATOM     10  O   LIG     1     -26.832  58.587   8.033  0.00  0.00    -0.346 OA
ATOM     11  C   LIG     1     -27.561  59.056   9.165  0.00  0.00     0.197 C 
ATOM     12  C   LIG     1     -28.412  57.939   9.756  0.00  0.00     0.171 C 
ATOM     13  C   LIG     1     -27.539  56.745  10.147  0.00  0.00     0.178 C 
ATOM     14  C   LIG     1     -26.663  56.321   8.963  0.00  0.00     0.201 C 
BRANCH  12  15
ATOM     15  O   LIG     1     -29.126  58.407  10.891  0.00  0.00    -0.387 OA
ATOM     16  H   LIG     1     -29.268  59.362  10.775  0.00  0.00     0.210 HD
ENDBRANCH  12  15
BRANCH  13  17
ATOM     17  O   LIG     1     -26.708  57.110  11.249  0.00  0.00    -0.386 OA
ATOM     18  H   LIG     1     -25.800  56.837  11.033  0.00  0.00     0.210 HD
ENDBRANCH  13  17
BRANCH  14  19
ATOM     19  O   LIG     1     -27.482  55.722   7.961  0.00  0.00    -0.384 OA
ATOM     20  H   LIG     1     -28.390  56.052   8.068  0.00  0.00     0.210 HD
ENDBRANCH  14  19
ENDBRANCH   8   9
ENDBRANCH   7   8
ENDBRANCH   6   7
BRANCH   5  21
ATOM     21  O   LIG     1     -21.786  58.897   9.594  0.00  0.00    -0.386 OA
ATOM     22  H   LIG     1     -21.600  59.627  10.209  0.00  0.00     0.210 HD
ENDBRANCH   5  21
BRANCH   2  23
ATOM     23  O   LIG     1     -22.471  55.059  13.497  0.00  0.00    -0.345 OA
BRANCH  23  24
ATOM     24  C   LIG     1     -22.112  53.940  12.702  0.00  0.00     0.190 C 
BRANCH  24  25
ATOM     25  C   LIG     1     -20.998  53.207  13.376  0.00  0.00     0.001 C 
ATOM     26  C   LIG     1     -20.587  51.985  13.003  0.00  0.00     0.006 C 
BRANCH  26  27
ATOM     27  C   LIG     1     -19.485  51.232  13.627  0.00  0.00    -0.025 A 
ATOM     28  C   LIG     1     -19.407  51.165  15.009  0.00  0.00     0.008 A 
ATOM     29  C   LIG     1     -18.364  50.451  15.600  0.00  0.00     0.001 A 
ATOM     30  C   LIG     1     -17.413  49.816  14.802  0.00  0.00     0.000 A 
ATOM     31  C   LIG     1     -17.505  49.892  13.412  0.00  0.00     0.001 A 
ATOM     32  C   LIG     1     -18.548  50.606  12.821  0.00  0.00     0.008 A 
ENDBRANCH  26  27
ENDBRANCH  24  25
ENDBRANCH  23  24
ENDBRANCH   2  23
BRANCH   4  33
ATOM     33  O   LIG     1     -19.540  58.081  11.220  0.00  0.00    -0.386 OA
ATOM     34  H   LIG     1     -19.493  58.902  10.700  0.00  0.00     0.210 HD
ENDBRANCH   4  33
BRANCH   3  35
ATOM     35  O   LIG     1     -20.469  57.034  13.812  0.00  0.00    -0.384 OA
ATOM     36  H   LIG     1     -19.580  57.401  13.673  0.00  0.00     0.210 HD
ENDBRANCH   3  35
TORSDOF 13
ENDMDL
MODEL 8
REMARK VINA RESULT:      -7.2      1.941      3.636
REMARK  13 active torsions:
REMARK  status: ('A' for Active; 'I' for Inactive)
REMARK    1  A    between atoms: C_2  and  O_12 
REMARK    2  A    between atoms: C_3  and  O_10 
REMARK    3  A    between atoms: C_4  and  O_8 
REMARK    4  A    between atoms: C_5  and  O_6 
REMARK    5  A    between atoms: C_22  and  C_23 
REMARK    6  A    between atoms: O_12  and  C_13 
REMARK    7  A    between atoms: C_13  and  C_14 
REMARK    8  A    between atoms: C_15  and  C_16 
REMARK    9  A    between atoms: C_23  and  O_24 
REMARK   10  A    between atoms: O_24  and  C_25 
REMARK   11  A    between atoms: C_26  and  O_34 
REMARK   12  A    between atoms: C_27  and  O_32 
REMARK   13  A    between atoms: C_28  and  O_30 
ROOT
ATOM      1  O   LIG     1     -10.814  45.708  36.136  0.00  0.00    -0.341 OA
ATOM      2  C   LIG     1     -11.284  47.050  36.237  0.00  0.00     0.282 C 
ATOM      3  C   LIG     1     -11.309  47.500  37.698  0.00  0.00     0.201 C 
ATOM      4  C   LIG     1      -9.951  47.297  38.367  0.00  0.00     0.179 C 
ATOM      5  C   LIG     1      -9.407  45.894  38.101  0.00  0.00     0.177 C 
ATOM      6  C   LIG     1      -9.475  45.558  36.609  0.00  0.00     0.178 C 
ENDROOT
BRANCH   6   7
ATOM      7  C   LIG     1      -9.046  44.120  36.332  0.00  0.00     0.197 C 
BRANCH   7   8
ATOM      8  O   LIG     1      -9.383  43.326  37.455  0.00  0.00    -0.346 OA
BRANCH   8   9
ATOM      9  C   LIG     1     -10.434  42.412  37.158  0.00  0.00     0.281 C 
ATOM     10  O   LIG     1     -11.722  42.958  37.463  0.00  0.00    -0.346 OA
ATOM     11  C   LIG     1     -11.943  43.168  38.855  0.00  0.00     0.197 C 
ATOM     12  C   LIG     1     -11.850  41.852  39.618  0.00  0.00     0.171 C 
ATOM     13  C   LIG     1     -10.487  41.195  39.394  0.00  0.00     0.178 C 
ATOM     14  C   LIG     1     -10.195  41.084  37.894  0.00  0.00     0.201 C 
BRANCH  12  15
ATOM     15  O   LIG     1     -12.059  42.068  41.006  0.00  0.00    -0.387 OA
ATOM     16  H   LIG     1     -12.623  41.347  41.334  0.00  0.00     0.210 HD
ENDBRANCH  12  15
BRANCH  13  17
ATOM     17  O   LIG     1      -9.475  41.983  40.020  0.00  0.00    -0.386 OA
ATOM     18  H   LIG     1      -8.721  41.397  40.205  0.00  0.00     0.210 HD
ENDBRANCH  13  17
BRANCH  14  19
ATOM     19  O   LIG     1     -11.051  40.101  37.317  0.00  0.00    -0.384 OA
ATOM     20  H   LIG     1     -11.171  40.311  36.376  0.00  0.00     0.210 HD
ENDBRANCH  14  19
ENDBRANCH   8   9
ENDBRANCH   7   8
ENDBRANCH   6   7
BRANCH   5  21
ATOM     21  O   LIG     1      -8.052  45.821  38.539  0.00  0.00    -0.386 OA
ATOM     22  H   LIG     1      -7.841  46.654  38.997  0.00  0.00     0.210 HD
ENDBRANCH   5  21
BRANCH   2  23
ATOM     23  O   LIG     1     -12.613  47.135  35.726  0.00  0.00    -0.345 OA
BRANCH  23  24
ATOM     24  C   LIG     1     -13.406  46.043  36.164  0.00  0.00     0.190 C 
BRANCH  24  25
ATOM     25  C   LIG     1     -13.978  45.353  34.967  0.00  0.00     0.001 C 
ATOM     26  C   LIG     1     -13.602  45.628  33.708  0.00  0.00     0.006 C 
BRANCH  26  27
ATOM     27  C   LIG     1     -14.126  44.965  32.502  0.00  0.00    -0.025 A 
ATOM     28  C   LIG     1     -13.782  45.456  31.253  0.00  0.00     0.008 A 
ATOM     29  C   LIG     1     -14.278  44.828  30.111  0.00  0.00     0.001 A 
ATOM     30  C   LIG     1     -15.114  43.718  30.232  0.00  0.00     0.000 A 
ATOM     31  C   LIG     1     -15.453  43.235  31.496  0.00  0.00     0.001 A 
ATOM     32  C   LIG     1     -14.956  43.863  32.638  0.00  0.00     0.008 A 
ENDBRANCH  26  27
ENDBRANCH  24  25
ENDBRANCH  23  24
ENDBRANCH   2  23
BRANCH   4  33
ATOM     33  O   LIG     1     -10.087  47.457  39.780  0.00  0.00    -0.386 OA
ATOM     34  H   LIG     1     -10.239  48.401  39.952  0.00  0.00     0.210 HD
ENDBRANCH   4  33
BRANCH   3  35
ATOM     35  O   LIG     1     -11.653  48.885  37.733  0.00  0.00    -0.384 OA
ATOM     36  H   LIG     1     -12.502  48.973  38.199  0.00  0.00     0.210 HD
ENDBRANCH   3  35
TORSDOF 13
ENDMDL
MODEL 9
REMARK VINA RESULT:      -7.2     23.029     28.699
REMARK  13 active torsions:
REMARK  status: ('A' for Active; 'I' for Inactive)
REMARK    1  A    between atoms: C_2  and  O_12 
REMARK    2  A    between atoms: C_3  and  O_10 
REMARK    3  A    between atoms: C_4  and  O_8 
REMARK    4  A    between atoms: C_5  and  O_6 
REMARK    5  A    between atoms: C_22  and  C_23 
REMARK    6  A    between atoms: O_12  and  C_13 
REMARK    7  A    between atoms: C_13  and  C_14 
REMARK    8  A    between atoms: C_15  and  C_16 
REMARK    9  A    between atoms: C_23  and  O_24 
REMARK   10  A    between atoms: O_24  and  C_25 
REMARK   11  A    between atoms: C_26  and  O_34 
REMARK   12  A    between atoms: C_27  and  O_32 
REMARK   13  A    between atoms: C_28  and  O_30 
ROOT
ATOM      1  O   LIG     1     -22.970  55.309  11.684  0.00  0.00    -0.341 OA
ATOM      2  C   LIG     1     -22.405  55.579  12.965  0.00  0.00     0.282 C 
ATOM      3  C   LIG     1     -21.053  56.278  12.817  0.00  0.00     0.201 C 
ATOM      4  C   LIG     1     -21.163  57.526  11.943  0.00  0.00     0.179 C 
ATOM      5  C   LIG     1     -21.917  57.230  10.647  0.00  0.00     0.177 C 
ATOM      6  C   LIG     1     -23.230  56.498  10.936  0.00  0.00     0.178 C 
ENDROOT
BRANCH   6   7
ATOM      7  C   LIG     1     -23.944  56.088   9.652  0.00  0.00     0.197 C 
BRANCH   7   8
ATOM      8  O   LIG     1     -24.454  57.253   9.029  0.00  0.00    -0.346 OA
BRANCH   8   9
ATOM      9  C   LIG     1     -24.644  57.064   7.631  0.00  0.00     0.281 C 
ATOM     10  O   LIG     1     -23.464  56.563   6.992  0.00  0.00    -0.346 OA
ATOM     11  C   LIG     1     -22.377  57.486   6.986  0.00  0.00     0.197 C 
ATOM     12  C   LIG     1     -22.757  58.758   6.238  0.00  0.00     0.171 C 
ATOM     13  C   LIG     1     -23.993  59.403   6.866  0.00  0.00     0.178 C 
ATOM     14  C   LIG     1     -25.122  58.374   6.986  0.00  0.00     0.201 C 
BRANCH  12  15
ATOM     15  O   LIG     1     -21.675  59.679   6.246  0.00  0.00    -0.387 OA
ATOM     16  H   LIG     1     -21.972  60.485   5.789  0.00  0.00     0.210 HD
ENDBRANCH  12  15
BRANCH  13  17
ATOM     17  O   LIG     1     -23.660  59.900   8.161  0.00  0.00    -0.386 OA
ATOM     18  H   LIG     1     -23.199  60.748   8.039  0.00  0.00     0.210 HD
ENDBRANCH  13  17
BRANCH  14  19
ATOM     19  O   LIG     1     -25.624  58.069   5.687  0.00  0.00    -0.384 OA
ATOM     20  H   LIG     1     -24.943  57.573   5.203  0.00  0.00     0.210 HD
ENDBRANCH  14  19
ENDBRANCH   8   9
ENDBRANCH   7   8
ENDBRANCH   6   7
BRANCH   5  21
ATOM     21  O   LIG     1     -22.198  58.454   9.974  0.00  0.00    -0.386 OA
ATOM     22  H   LIG     1     -21.460  59.066  10.142  0.00  0.00     0.210 HD
ENDBRANCH   5  21
BRANCH   2  23
ATOM     23  O   LIG     1     -22.195  54.356  13.667  0.00  0.00    -0.345 OA
BRANCH  23  24
ATOM     24  C   LIG     1     -21.311  53.500  12.962  0.00  0.00     0.190 C 
BRANCH  24  25
ATOM     25  C   LIG     1     -20.426  52.805  13.945  0.00  0.00     0.001 C 
ATOM     26  C   LIG     1     -19.905  51.586  13.735  0.00  0.00     0.006 C 
BRANCH  26  27
ATOM     27  C   LIG     1     -19.018  50.870  14.668  0.00  0.00    -0.025 A 
ATOM     28  C   LIG     1     -17.645  51.020  14.550  0.00  0.00     0.008 A 
ATOM     29  C   LIG     1     -16.806  50.342  15.433  0.00  0.00     0.001 A 
ATOM     30  C   LIG     1     -17.349  49.521  16.421  0.00  0.00     0.000 A 
ATOM     31  C   LIG     1     -18.732  49.378  16.527  0.00  0.00     0.001 A 
ATOM     32  C   LIG     1     -19.572  50.057  15.644  0.00  0.00     0.008 A 
ENDBRANCH  26  27
ENDBRANCH  24  25
ENDBRANCH  23  24
ENDBRANCH   2  23
BRANCH   4  33
ATOM     33  O   LIG     1     -19.854  57.983  11.598  0.00  0.00    -0.386 OA
ATOM     34  H   LIG     1     -19.917  58.419  10.731  0.00  0.00     0.210 HD
ENDBRANCH   4  33
BRANCH   3  35
ATOM     35  O   LIG     1     -20.596  56.648  14.118  0.00  0.00    -0.384 OA
ATOM     36  H   LIG     1     -19.696  57.002  14.031  0.00  0.00     0.210 HD
ENDBRANCH   3  35
TORSDOF 13
ENDMDL
