MODEL 1
REMARK VINA RESULT:      -8.4      0.000      0.000
REMARK  16 active torsions:
REMARK  status: ('A' for Active; 'I' for Inactive)
REMARK    1  A    between atoms: O_2  and  C_22 
REMARK    2  A    between atoms: O_2  and  C_26 
REMARK    3  A    between atoms: O_4  and  C_18 
REMARK    4  A    between atoms: O_5  and  C_19 
REMARK    5  A    between atoms: O_6  and  C_25 
REMARK    6  A    between atoms: O_6  and  C_29 
REMARK    7  A    between atoms: O_7  and  C_20 
REMARK    8  A    between atoms: O_8  and  C_21 
REMARK    9  A    between atoms: O_9  and  C_23 
REMARK   10  A    between atoms: O_10  and  C_24 
REMARK   11  A    between atoms: O_13  and  C_35 
REMARK   12  A    between atoms: O_14  and  C_40 
REMARK   13  A    between atoms: O_15  and  C_41 
REMARK   14  A    between atoms: O_16  and  C_43 
REMARK   15  A    between atoms: C_17  and  C_26 
REMARK   16  A    between atoms: C_30  and  C_33 
ROOT
HETATM    1  O   UNK     0       6.920  43.538  25.252  0.00  0.00    -0.348 OA
HETATM    2  C   UNK     0       8.250  43.122  25.569  0.00  0.00     0.180 C 
HETATM    3  C   UNK     0       9.190  44.330  25.567  0.00  0.00     0.180 C 
HETATM    4  C   UNK     0       9.129  45.062  24.226  0.00  0.00     0.183 C 
HETATM    5  C   UNK     0       7.684  45.340  23.812  0.00  0.00     0.205 C 
HETATM    6  C   UNK     0       6.819  44.086  23.939  0.00  0.00     0.298 C 
ENDROOT
BRANCH   2   7
HETATM    7  C   UNK     0       8.204  42.444  26.935  0.00  0.00     0.205 C 
BRANCH   7   8
HETATM    8  O   UNK     0       6.848  42.236  27.303  0.00  0.00    -0.356 OA
BRANCH   8   9
HETATM    9  C   UNK     0       6.738  41.772  28.644  0.00  0.00     0.291 C 
HETATM   10  O   UNK     0       6.182  40.456  28.722  0.00  0.00    -0.351 OA
HETATM   11  C   UNK     0       4.831  40.362  28.259  0.00  0.00     0.152 C 
HETATM   12  C   UNK     0       3.905  41.281  29.069  0.00  0.00     0.178 C 
HETATM   13  C   UNK     0       4.421  38.895  28.372  0.00  0.00     0.042 C 
HETATM   14  C   UNK     0       4.438  42.714  29.047  0.00  0.00     0.183 C 
HETATM   15  C   UNK     0       5.909  42.758  29.466  0.00  0.00     0.204 C 
BRANCH  12  16
HETATM   16  O   UNK     0       2.596  41.285  28.504  0.00  0.00    -0.390 OA
HETATM   17  H   UNK     0       2.544  42.027  27.877  0.00  0.00     0.210 HD
ENDBRANCH  12  16
BRANCH  14  18
HETATM   18  O   UNK     0       3.658  43.518  29.929  0.00  0.00    -0.390 OA
HETATM   19  H   UNK     0       3.015  44.012  29.391  0.00  0.00     0.210 HD
ENDBRANCH  14  18
BRANCH  15  20
HETATM   20  O   UNK     0       6.035  42.393  30.841  0.00  0.00    -0.388 OA
HETATM   21  H   UNK     0       5.396  42.914  31.357  0.00  0.00     0.210 HD
ENDBRANCH  15  20
ENDBRANCH   8   9
ENDBRANCH   7   8
ENDBRANCH   2   7
BRANCH   6  22
HETATM   22  O   UNK     0       5.466  44.457  23.675  0.00  0.00    -0.311 OA
BRANCH  22  23
HETATM   23  C   UNK     0       4.729  43.390  23.209  0.00  0.00     0.157 A 
HETATM   24  C   UNK     0       4.680  43.042  21.911  0.00  0.00     0.124 A 
HETATM   25  O   UNK     0       3.924  41.996  21.405  0.00  0.00    -0.306 OA
HETATM   26  C   UNK     0       3.185  41.241  22.279  0.00  0.00     0.096 A 
HETATM   27  C   UNK     0       3.153  41.488  23.649  0.00  0.00     0.084 A 
HETATM   28  C   UNK     0       2.442  40.189  21.741  0.00  0.00     0.075 A 
HETATM   29  C   UNK     0       3.942  42.605  24.190  0.00  0.00     0.223 A 
HETATM   30  C   UNK     0       2.379  40.686  24.493  0.00  0.00     0.085 A 
HETATM   31  O   UNK     0       3.949  42.873  25.385  0.00  0.00    -0.284 OA
HETATM   32  C   UNK     0       1.638  39.634  23.952  0.00  0.00     0.074 A 
HETATM   33  C   UNK     0       1.670  39.386  22.580  0.00  0.00     0.071 A 
BRANCH  24  34
HETATM   34  C   UNK     0       5.424  43.770  20.867  0.00  0.00     0.004 A 
HETATM   35  C   UNK     0       4.987  45.026  20.446  0.00  0.00     0.053 A 
HETATM   36  C   UNK     0       5.692  45.715  19.459  0.00  0.00     0.099 A 
HETATM   37  C   UNK     0       6.833  45.149  18.893  0.00  0.00     0.098 A 
HETATM   38  C   UNK     0       7.270  43.893  19.314  0.00  0.00     0.040 A 
HETATM   39  C   UNK     0       6.567  43.204  20.301  0.00  0.00     0.017 A 
BRANCH  36  40
HETATM   40  O   UNK     0       5.254  46.941  19.054  0.00  0.00    -0.358 OA
HETATM   41  H   UNK     0       4.408  47.144  19.486  0.00  0.00     0.217 HD
ENDBRANCH  36  40
BRANCH  37  42
HETATM   42  O   UNK     0       7.530  45.813  17.929  0.00  0.00    -0.358 OA
HETATM   43  H   UNK     0       8.456  45.909  18.202  0.00  0.00     0.217 HD
ENDBRANCH  37  42
ENDBRANCH  24  34
BRANCH  30  44
HETATM   44  O   UNK     0       2.313  40.884  25.838  0.00  0.00    -0.360 OA
HETATM   45  H   UNK     0       2.325  41.839  26.027  0.00  0.00     0.217 HD
ENDBRANCH  30  44
BRANCH  33  46
HETATM   46  O   UNK     0       0.944  38.360  22.057  0.00  0.00    -0.361 OA
HETATM   47  H   UNK     0       1.142  38.284  21.108  0.00  0.00     0.217 HD
ENDBRANCH  33  46
ENDBRANCH  22  23
ENDBRANCH   6  22
BRANCH   3  48
HETATM   48  O   UNK     0      10.524  43.889  25.803  0.00  0.00    -0.390 OA
HETATM   49  H   UNK     0      10.583  42.954  25.542  0.00  0.00     0.210 HD
ENDBRANCH   3  48
BRANCH   5  50
HETATM   50  O   UNK     0       7.656  45.768  22.451  0.00  0.00    -0.388 OA
HETATM   51  H   UNK     0       7.450  46.718  22.437  0.00  0.00     0.210 HD
ENDBRANCH   5  50
BRANCH   4  52
HETATM   52  O   UNK     0       9.830  46.299  24.367  0.00  0.00    -0.390 OA
HETATM   53  H   UNK     0       9.703  46.801  23.544  0.00  0.00     0.210 HD
ENDBRANCH   4  52
TORSDOF 16
ENDMDL
MODEL 2
REMARK VINA RESULT:      -8.4      1.261      1.363
REMARK  16 active torsions:
REMARK  status: ('A' for Active; 'I' for Inactive)
REMARK    1  A    between atoms: O_2  and  C_22 
REMARK    2  A    between atoms: O_2  and  C_26 
REMARK    3  A    between atoms: O_4  and  C_18 
REMARK    4  A    between atoms: O_5  and  C_19 
REMARK    5  A    between atoms: O_6  and  C_25 
REMARK    6  A    between atoms: O_6  and  C_29 
REMARK    7  A    between atoms: O_7  and  C_20 
REMARK    8  A    between atoms: O_8  and  C_21 
REMARK    9  A    between atoms: O_9  and  C_23 
REMARK   10  A    between atoms: O_10  and  C_24 
REMARK   11  A    between atoms: O_13  and  C_35 
REMARK   12  A    between atoms: O_14  and  C_40 
REMARK   13  A    between atoms: O_15  and  C_41 
REMARK   14  A    between atoms: O_16  and  C_43 
REMARK   15  A    between atoms: C_17  and  C_26 
REMARK   16  A    between atoms: C_30  and  C_33 
ROOT
HETATM    1  O   UNK     0       7.864  43.869  25.784  0.00  0.00    -0.348 OA
HETATM    2  C   UNK     0       9.166  43.291  25.893  0.00  0.00     0.180 C 
HETATM    3  C   UNK     0      10.232  44.385  25.796  0.00  0.00     0.180 C 
HETATM    4  C   UNK     0      10.073  45.185  24.503  0.00  0.00     0.183 C 
HETATM    5  C   UNK     0       8.628  45.644  24.310  0.00  0.00     0.205 C 
HETATM    6  C   UNK     0       7.646  44.490  24.518  0.00  0.00     0.298 C 
ENDROOT
BRANCH   2   7
HETATM    7  C   UNK     0       9.231  42.555  27.228  0.00  0.00     0.205 C 
BRANCH   7   8
HETATM    8  O   UNK     0       7.926  42.494  27.785  0.00  0.00    -0.356 OA
BRANCH   8   9
HETATM    9  C   UNK     0       7.961  42.069  29.144  0.00  0.00     0.291 C 
HETATM   10  O   UNK     0       7.880  40.646  29.273  0.00  0.00    -0.351 OA
HETATM   11  C   UNK     0       6.646  40.084  28.813  0.00  0.00     0.152 C 
HETATM   12  C   UNK     0       5.454  40.666  29.586  0.00  0.00     0.178 C 
HETATM   13  C   UNK     0       6.754  38.571  28.984  0.00  0.00     0.042 C 
HETATM   14  C   UNK     0       5.472  42.193  29.508  0.00  0.00     0.183 C 
HETATM   15  C   UNK     0       6.836  42.746  29.925  0.00  0.00     0.204 C 
BRANCH  12  16
HETATM   16  O   UNK     0       4.228  40.208  29.020  0.00  0.00    -0.390 OA
HETATM   17  H   UNK     0       3.956  39.410  29.504  0.00  0.00     0.210 HD
ENDBRANCH  12  16
BRANCH  14  18
HETATM   18  O   UNK     0       4.454  42.718  30.357  0.00  0.00    -0.390 OA
HETATM   19  H   UNK     0       4.315  42.084  31.081  0.00  0.00     0.210 HD
ENDBRANCH  14  18
BRANCH  15  20
HETATM   20  O   UNK     0       7.059  42.496  31.314  0.00  0.00    -0.388 OA
HETATM   21  H   UNK     0       6.378  41.877  31.627  0.00  0.00     0.210 HD
ENDBRANCH  15  20
ENDBRANCH   8   9
ENDBRANCH   7   8
ENDBRANCH   2   7
BRANCH   6  22
HETATM   22  O   UNK     0       6.323  45.023  24.465  0.00  0.00    -0.311 OA
BRANCH  22  23
HETATM   23  C   UNK     0       5.413  44.079  24.043  0.00  0.00     0.157 A 
HETATM   24  C   UNK     0       5.115  43.873  22.747  0.00  0.00     0.124 A 
HETATM   25  O   UNK     0       4.182  42.955  22.291  0.00  0.00    -0.306 OA
HETATM   26  C   UNK     0       3.521  42.182  23.211  0.00  0.00     0.096 A 
HETATM   27  C   UNK     0       3.741  42.287  24.582  0.00  0.00     0.084 A 
HETATM   28  C   UNK     0       2.595  41.260  22.720  0.00  0.00     0.075 A 
HETATM   29  C   UNK     0       4.721  43.268  25.073  0.00  0.00     0.223 A 
HETATM   30  C   UNK     0       3.037  41.473  25.474  0.00  0.00     0.085 A 
HETATM   31  O   UNK     0       4.951  43.409  26.267  0.00  0.00    -0.284 OA
HETATM   32  C   UNK     0       2.112  40.552  24.981  0.00  0.00     0.074 A 
HETATM   33  C   UNK     0       1.891  40.445  23.607  0.00  0.00     0.071 A 
BRANCH  24  34
HETATM   34  C   UNK     0       5.749  44.637  21.658  0.00  0.00     0.004 A 
HETATM   35  C   UNK     0       5.362  45.954  21.411  0.00  0.00     0.053 A 
HETATM   36  C   UNK     0       5.963  46.678  20.382  0.00  0.00     0.099 A 
HETATM   37  C   UNK     0       6.950  46.084  19.596  0.00  0.00     0.098 A 
HETATM   38  C   UNK     0       7.338  44.766  19.842  0.00  0.00     0.040 A 
HETATM   39  C   UNK     0       6.738  44.043  20.872  0.00  0.00     0.017 A 
BRANCH  36  40
HETATM   40  O   UNK     0       5.574  47.963  20.150  0.00  0.00    -0.358 OA
HETATM   41  H   UNK     0       5.208  48.346  20.964  0.00  0.00     0.217 HD
ENDBRANCH  36  40
BRANCH  37  42
HETATM   42  O   UNK     0       7.545  46.780  18.588  0.00  0.00    -0.358 OA
HETATM   43  H   UNK     0       6.904  47.389  18.189  0.00  0.00     0.217 HD
ENDBRANCH  37  42
ENDBRANCH  24  34
BRANCH  30  44
HETATM   44  O   UNK     0       3.214  41.536  26.822  0.00  0.00    -0.360 OA
HETATM   45  H   UNK     0       2.775  42.332  27.171  0.00  0.00     0.217 HD
ENDBRANCH  30  44
BRANCH  33  46
HETATM   46  O   UNK     0       0.987  39.546  23.131  0.00  0.00    -0.361 OA
HETATM   47  H   UNK     0       1.153  38.682  23.546  0.00  0.00     0.217 HD
ENDBRANCH  33  46
ENDBRANCH  22  23
ENDBRANCH   6  22
BRANCH   3  48
HETATM   48  O   UNK     0      11.525  43.785  25.823  0.00  0.00    -0.390 OA
HETATM   49  H   UNK     0      12.176  44.461  25.568  0.00  0.00     0.210 HD
ENDBRANCH   3  48
BRANCH   5  50
HETATM   50  O   UNK     0       8.461  46.140  22.983  0.00  0.00    -0.388 OA
HETATM   51  H   UNK     0       8.546  45.391  22.368  0.00  0.00     0.210 HD
ENDBRANCH   5  50
BRANCH   4  52
HETATM   52  O   UNK     0      10.928  46.327  24.583  0.00  0.00    -0.390 OA
HETATM   53  H   UNK     0      11.641  46.204  23.934  0.00  0.00     0.210 HD
ENDBRANCH   4  52
TORSDOF 16
ENDMDL
MODEL 3
REMARK VINA RESULT:      -8.4      2.251      2.997
REMARK  16 active torsions:
REMARK  status: ('A' for Active; 'I' for Inactive)
REMARK    1  A    between atoms: O_2  and  C_22 
REMARK    2  A    between atoms: O_2  and  C_26 
REMARK    3  A    between atoms: O_4  and  C_18 
REMARK    4  A    between atoms: O_5  and  C_19 
REMARK    5  A    between atoms: O_6  and  C_25 
REMARK    6  A    between atoms: O_6  and  C_29 
REMARK    7  A    between atoms: O_7  and  C_20 
REMARK    8  A    between atoms: O_8  and  C_21 
REMARK    9  A    between atoms: O_9  and  C_23 
REMARK   10  A    between atoms: O_10  and  C_24 
REMARK   11  A    between atoms: O_13  and  C_35 
REMARK   12  A    between atoms: O_14  and  C_40 
REMARK   13  A    between atoms: O_15  and  C_41 
REMARK   14  A    between atoms: O_16  and  C_43 
REMARK   15  A    between atoms: C_17  and  C_26 
REMARK   16  A    between atoms: C_30  and  C_33 
ROOT
HETATM    1  O   UNK     0       7.873  43.882  25.808  0.00  0.00    -0.348 OA
HETATM    2  C   UNK     0       9.173  43.300  25.925  0.00  0.00     0.180 C 
HETATM    3  C   UNK     0      10.244  44.390  25.830  0.00  0.00     0.180 C 
HETATM    4  C   UNK     0      10.093  45.186  24.533  0.00  0.00     0.183 C 
HETATM    5  C   UNK     0       8.650  45.649  24.332  0.00  0.00     0.205 C 
HETATM    6  C   UNK     0       7.664  44.499  24.540  0.00  0.00     0.298 C 
ENDROOT
BRANCH   2   7
HETATM    7  C   UNK     0       9.229  42.569  27.263  0.00  0.00     0.205 C 
BRANCH   7   8
HETATM    8  O   UNK     0       9.711  43.460  28.258  0.00  0.00    -0.356 OA
BRANCH   8   9
HETATM    9  C   UNK     0      10.489  42.777  29.236  0.00  0.00     0.291 C 
HETATM   10  O   UNK     0       9.754  41.737  29.888  0.00  0.00    -0.351 OA
HETATM   11  C   UNK     0       8.641  42.200  30.659  0.00  0.00     0.152 C 
HETATM   12  C   UNK     0       9.095  43.174  31.755  0.00  0.00     0.178 C 
HETATM   13  C   UNK     0       7.955  40.966  31.240  0.00  0.00     0.042 C 
HETATM   14  C   UNK     0       9.903  44.317  31.140  0.00  0.00     0.183 C 
HETATM   15  C   UNK     0      11.029  43.778  30.256  0.00  0.00     0.204 C 
BRANCH  12  16
HETATM   16  O   UNK     0       7.964  43.736  32.417  0.00  0.00    -0.390 OA
HETATM   17  H   UNK     0       7.616  43.068  33.032  0.00  0.00     0.210 HD
ENDBRANCH  12  16
BRANCH  14  18
HETATM   18  O   UNK     0      10.448  45.121  32.184  0.00  0.00    -0.390 OA
HETATM   19  H   UNK     0      10.482  44.578  32.990  0.00  0.00     0.210 HD
ENDBRANCH  14  18
BRANCH  15  20
HETATM   20  O   UNK     0      11.998  43.101  31.058  0.00  0.00    -0.388 OA
HETATM   21  H   UNK     0      11.542  42.706  31.822  0.00  0.00     0.210 HD
ENDBRANCH  15  20
ENDBRANCH   8   9
ENDBRANCH   7   8
ENDBRANCH   2   7
BRANCH   6  22
HETATM   22  O   UNK     0       6.343  45.036  24.478  0.00  0.00    -0.311 OA
BRANCH  22  23
HETATM   23  C   UNK     0       5.432  44.094  24.054  0.00  0.00     0.157 A 
HETATM   24  C   UNK     0       5.133  43.892  22.758  0.00  0.00     0.124 A 
HETATM   25  O   UNK     0       4.198  42.976  22.300  0.00  0.00    -0.306 OA
HETATM   26  C   UNK     0       3.538  42.201  23.218  0.00  0.00     0.096 A 
HETATM   27  C   UNK     0       3.759  42.302  24.590  0.00  0.00     0.084 A 
HETATM   28  C   UNK     0       2.611  41.281  22.726  0.00  0.00     0.075 A 
HETATM   29  C   UNK     0       4.739  43.281  25.083  0.00  0.00     0.223 A 
HETATM   30  C   UNK     0       3.055  41.486  25.480  0.00  0.00     0.085 A 
HETATM   31  O   UNK     0       4.970  43.419  26.277  0.00  0.00    -0.284 OA
HETATM   32  C   UNK     0       2.128  40.567  24.985  0.00  0.00     0.074 A 
HETATM   33  C   UNK     0       1.907  40.464  23.611  0.00  0.00     0.071 A 
BRANCH  24  34
HETATM   34  C   UNK     0       5.767  44.658  21.671  0.00  0.00     0.004 A 
HETATM   35  C   UNK     0       5.378  45.975  21.426  0.00  0.00     0.053 A 
HETATM   36  C   UNK     0       5.979  46.701  20.398  0.00  0.00     0.099 A 
HETATM   37  C   UNK     0       6.967  46.110  19.612  0.00  0.00     0.098 A 
HETATM   38  C   UNK     0       7.356  44.792  19.856  0.00  0.00     0.040 A 
HETATM   39  C   UNK     0       6.756  44.067  20.885  0.00  0.00     0.017 A 
BRANCH  36  40
HETATM   40  O   UNK     0       5.589  47.987  20.168  0.00  0.00    -0.358 OA
HETATM   41  H   UNK     0       6.369  48.536  19.986  0.00  0.00     0.217 HD
ENDBRANCH  36  40
BRANCH  37  42
HETATM   42  O   UNK     0       7.562  46.809  18.605  0.00  0.00    -0.358 OA
HETATM   43  H   UNK     0       8.499  46.949  18.813  0.00  0.00     0.217 HD
ENDBRANCH  37  42
ENDBRANCH  24  34
BRANCH  30  44
HETATM   44  O   UNK     0       3.232  41.545  26.828  0.00  0.00    -0.360 OA
HETATM   45  H   UNK     0       2.851  40.751  27.242  0.00  0.00     0.217 HD
ENDBRANCH  30  44
BRANCH  33  46
HETATM   46  O   UNK     0       1.002  39.567  23.133  0.00  0.00    -0.361 OA
HETATM   47  H   UNK     0       0.955  39.651  22.166  0.00  0.00     0.217 HD
ENDBRANCH  33  46
ENDBRANCH  22  23
ENDBRANCH   6  22
BRANCH   3  48
HETATM   48  O   UNK     0      11.534  43.787  25.864  0.00  0.00    -0.390 OA
HETATM   49  H   UNK     0      11.973  43.966  25.015  0.00  0.00     0.210 HD
ENDBRANCH   3  48
BRANCH   5  50
HETATM   50  O   UNK     0       8.490  46.141  23.002  0.00  0.00    -0.388 OA
HETATM   51  H   UNK     0       7.547  46.091  22.773  0.00  0.00     0.210 HD
ENDBRANCH   5  50
BRANCH   4  52
HETATM   52  O   UNK     0      10.951  46.326  24.613  0.00  0.00    -0.390 OA
HETATM   53  H   UNK     0      10.388  47.104  24.771  0.00  0.00     0.210 HD
ENDBRANCH   4  52
TORSDOF 16
ENDMDL
MODEL 4
REMARK VINA RESULT:      -7.9      4.715      8.720
REMARK  16 active torsions:
REMARK  status: ('A' for Active; 'I' for Inactive)
REMARK    1  A    between atoms: O_2  and  C_22 
REMARK    2  A    between atoms: O_2  and  C_26 
REMARK    3  A    between atoms: O_4  and  C_18 
REMARK    4  A    between atoms: O_5  and  C_19 
REMARK    5  A    between atoms: O_6  and  C_25 
REMARK    6  A    between atoms: O_6  and  C_29 
REMARK    7  A    between atoms: O_7  and  C_20 
REMARK    8  A    between atoms: O_8  and  C_21 
REMARK    9  A    between atoms: O_9  and  C_23 
REMARK   10  A    between atoms: O_10  and  C_24 
REMARK   11  A    between atoms: O_13  and  C_35 
REMARK   12  A    between atoms: O_14  and  C_40 
REMARK   13  A    between atoms: O_15  and  C_41 
REMARK   14  A    between atoms: O_16  and  C_43 
REMARK   15  A    between atoms: C_17  and  C_26 
REMARK   16  A    between atoms: C_30  and  C_33 
ROOT
HETATM    1  O   UNK     0      10.792  43.660  20.980  0.00  0.00    -0.348 OA
HETATM    2  C   UNK     0      11.727  42.745  20.404  0.00  0.00     0.180 C 
HETATM    3  C   UNK     0      12.601  43.469  19.378  0.00  0.00     0.180 C 
HETATM    4  C   UNK     0      11.738  44.146  18.312  0.00  0.00     0.183 C 
HETATM    5  C   UNK     0      10.625  44.979  18.947  0.00  0.00     0.205 C 
HETATM    6  C   UNK     0       9.879  44.185  20.019  0.00  0.00     0.298 C 
ENDROOT
BRANCH   2   7
HETATM    7  C   UNK     0      12.558  42.162  21.543  0.00  0.00     0.205 C 
BRANCH   7   8
HETATM    8  O   UNK     0      13.827  42.798  21.562  0.00  0.00    -0.356 OA
BRANCH   8   9
HETATM    9  C   UNK     0      14.745  42.103  22.400  0.00  0.00     0.291 C 
HETATM   10  O   UNK     0      15.509  42.988  23.224  0.00  0.00    -0.351 OA
HETATM   11  C   UNK     0      16.372  43.868  22.497  0.00  0.00     0.152 C 
HETATM   12  C   UNK     0      17.377  43.078  21.648  0.00  0.00     0.178 C 
HETATM   13  C   UNK     0      17.067  44.760  23.523  0.00  0.00     0.042 C 
HETATM   14  C   UNK     0      16.639  42.093  20.741  0.00  0.00     0.183 C 
HETATM   15  C   UNK     0      15.665  41.232  21.546  0.00  0.00     0.204 C 
BRANCH  12  16
HETATM   16  O   UNK     0      18.130  43.963  20.822  0.00  0.00    -0.390 OA
HETATM   17  H   UNK     0      17.531  44.664  20.512  0.00  0.00     0.210 HD
ENDBRANCH  12  16
BRANCH  14  18
HETATM   18  O   UNK     0      17.589  41.262  20.078  0.00  0.00    -0.390 OA
HETATM   19  H   UNK     0      18.474  41.630  20.247  0.00  0.00     0.210 HD
ENDBRANCH  14  18
BRANCH  15  20
HETATM   20  O   UNK     0      16.389  40.370  22.426  0.00  0.00    -0.388 OA
HETATM   21  H   UNK     0      15.749  39.891  22.980  0.00  0.00     0.210 HD
ENDBRANCH  15  20
ENDBRANCH   8   9
ENDBRANCH   7   8
ENDBRANCH   2   7
BRANCH   6  22
HETATM   22  O   UNK     0       8.959  45.068  20.660  0.00  0.00    -0.311 OA
BRANCH  22  23
HETATM   23  C   UNK     0       7.778  44.432  20.971  0.00  0.00     0.157 A 
HETATM   24  C   UNK     0       7.511  43.933  22.192  0.00  0.00     0.124 A 
HETATM   25  O   UNK     0       6.347  43.259  22.529  0.00  0.00    -0.306 OA
HETATM   26  C   UNK     0       5.382  43.099  21.568  0.00  0.00     0.096 A 
HETATM   27  C   UNK     0       5.527  43.574  20.266  0.00  0.00     0.084 A 
HETATM   28  C   UNK     0       4.218  42.425  21.940  0.00  0.00     0.075 A 
HETATM   29  C   UNK     0       6.765  44.278  19.899  0.00  0.00     0.223 A 
HETATM   30  C   UNK     0       4.510  43.380  19.327  0.00  0.00     0.085 A 
HETATM   31  O   UNK     0       6.950  44.712  18.770  0.00  0.00    -0.284 OA
HETATM   32  C   UNK     0       3.347  42.707  19.702  0.00  0.00     0.074 A 
HETATM   33  C   UNK     0       3.201  42.231  21.005  0.00  0.00     0.071 A 
BRANCH  24  34
HETATM   34  C   UNK     0       8.461  44.034  23.314  0.00  0.00     0.004 A 
HETATM   35  C   UNK     0       9.076  42.886  23.813  0.00  0.00     0.053 A 
HETATM   36  C   UNK     0       9.976  42.981  24.874  0.00  0.00     0.099 A 
HETATM   37  C   UNK     0      10.261  44.225  25.437  0.00  0.00     0.098 A 
HETATM   38  C   UNK     0       9.646  45.373  24.938  0.00  0.00     0.040 A 
HETATM   39  C   UNK     0       8.747  45.278  23.877  0.00  0.00     0.017 A 
BRANCH  36  40
HETATM   40  O   UNK     0      10.570  41.852  25.354  0.00  0.00    -0.358 OA
HETATM   41  H   UNK     0      11.518  41.867  25.144  0.00  0.00     0.217 HD
ENDBRANCH  36  40
BRANCH  37  42
HETATM   42  O   UNK     0      11.139  44.331  26.473  0.00  0.00    -0.358 OA
HETATM   43  H   UNK     0      10.895  43.707  27.174  0.00  0.00     0.217 HD
ENDBRANCH  37  42
ENDBRANCH  24  34
BRANCH  30  44
HETATM   44  O   UNK     0       4.601  43.824  18.043  0.00  0.00    -0.360 OA
HETATM   45  H   UNK     0       5.436  43.514  17.651  0.00  0.00     0.217 HD
ENDBRANCH  30  44
BRANCH  33  46
HETATM   46  O   UNK     0       2.065  41.574  21.366  0.00  0.00    -0.361 OA
HETATM   47  H   UNK     0       2.024  40.727  20.890  0.00  0.00     0.217 HD
ENDBRANCH  33  46
ENDBRANCH  22  23
ENDBRANCH   6  22
BRANCH   3  48
HETATM   48  O   UNK     0      13.470  42.529  18.753  0.00  0.00    -0.390 OA
HETATM   49  H   UNK     0      14.132  43.025  18.241  0.00  0.00     0.210 HD
ENDBRANCH   3  48
BRANCH   5  50
HETATM   50  O   UNK     0       9.689  45.365  17.941  0.00  0.00    -0.388 OA
HETATM   51  H   UNK     0       8.798  45.138  18.256  0.00  0.00     0.210 HD
ENDBRANCH   5  50
BRANCH   4  52
HETATM   52  O   UNK     0      12.584  44.995  17.534  0.00  0.00    -0.390 OA
HETATM   53  H   UNK     0      13.261  44.433  17.120  0.00  0.00     0.210 HD
ENDBRANCH   4  52
TORSDOF 16
ENDMDL
MODEL 5
REMARK VINA RESULT:      -7.9      1.718      6.837
REMARK  16 active torsions:
REMARK  status: ('A' for Active; 'I' for Inactive)
REMARK    1  A    between atoms: O_2  and  C_22 
REMARK    2  A    between atoms: O_2  and  C_26 
REMARK    3  A    between atoms: O_4  and  C_18 
REMARK    4  A    between atoms: O_5  and  C_19 
REMARK    5  A    between atoms: O_6  and  C_25 
REMARK    6  A    between atoms: O_6  and  C_29 
REMARK    7  A    between atoms: O_7  and  C_20 
REMARK    8  A    between atoms: O_8  and  C_21 
REMARK    9  A    between atoms: O_9  and  C_23 
REMARK   10  A    between atoms: O_10  and  C_24 
REMARK   11  A    between atoms: O_13  and  C_35 
REMARK   12  A    between atoms: O_14  and  C_40 
REMARK   13  A    between atoms: O_15  and  C_41 
REMARK   14  A    between atoms: O_16  and  C_43 
REMARK   15  A    between atoms: C_17  and  C_26 
REMARK   16  A    between atoms: C_30  and  C_33 
ROOT
HETATM    1  O   UNK     0       5.370  41.693  24.887  0.00  0.00    -0.348 OA
HETATM    2  C   UNK     0       6.613  41.621  25.588  0.00  0.00     0.180 C 
HETATM    3  C   UNK     0       6.490  40.661  26.773  0.00  0.00     0.180 C 
HETATM    4  C   UNK     0       5.343  41.080  27.693  0.00  0.00     0.183 C 
HETATM    5  C   UNK     0       4.060  41.330  26.900  0.00  0.00     0.205 C 
HETATM    6  C   UNK     0       4.320  42.227  25.690  0.00  0.00     0.298 C 
ENDROOT
BRANCH   2   7
HETATM    7  C   UNK     0       7.674  41.159  24.594  0.00  0.00     0.205 C 
BRANCH   7   8
HETATM    8  O   UNK     0       8.500  42.262  24.252  0.00  0.00    -0.356 OA
BRANCH   8   9
HETATM    9  C   UNK     0       7.726  43.387  23.850  0.00  0.00     0.291 C 
HETATM   10  O   UNK     0       7.681  43.539  22.428  0.00  0.00    -0.351 OA
HETATM   11  C   UNK     0       8.950  43.817  21.827  0.00  0.00     0.152 C 
HETATM   12  C   UNK     0       9.555  45.111  22.390  0.00  0.00     0.178 C 
HETATM   13  C   UNK     0       8.721  43.902  20.320  0.00  0.00     0.042 C 
HETATM   14  C   UNK     0       9.628  45.036  23.916  0.00  0.00     0.183 C 
HETATM   15  C   UNK     0       8.272  44.652  24.511  0.00  0.00     0.204 C 
BRANCH  12  16
HETATM   16  O   UNK     0      10.878  45.295  21.891  0.00  0.00    -0.390 OA
HETATM   17  H   UNK     0      11.500  45.018  22.585  0.00  0.00     0.210 HD
ENDBRANCH  12  16
BRANCH  14  18
HETATM   18  O   UNK     0      10.042  46.300  24.428  0.00  0.00    -0.390 OA
HETATM   19  H   UNK     0       9.450  46.979  24.059  0.00  0.00     0.210 HD
ENDBRANCH  14  18
BRANCH  15  20
HETATM   20  O   UNK     0       7.328  45.701  24.289  0.00  0.00    -0.388 OA
HETATM   21  H   UNK     0       7.441  46.368  24.987  0.00  0.00     0.210 HD
ENDBRANCH  15  20
ENDBRANCH   8   9
ENDBRANCH   7   8
ENDBRANCH   2   7
BRANCH   6  22
HETATM   22  O   UNK     0       3.117  42.295  24.927  0.00  0.00    -0.311 OA
BRANCH  22  23
HETATM   23  C   UNK     0       3.375  42.516  23.592  0.00  0.00     0.157 A 
HETATM   24  C   UNK     0       3.022  41.653  22.623  0.00  0.00     0.124 A 
HETATM   25  O   UNK     0       3.295  41.828  21.275  0.00  0.00    -0.306 OA
HETATM   26  C   UNK     0       3.953  42.966  20.884  0.00  0.00     0.096 A 
HETATM   27  C   UNK     0       4.367  43.945  21.783  0.00  0.00     0.084 A 
HETATM   28  C   UNK     0       4.204  43.119  19.520  0.00  0.00     0.075 A 
HETATM   29  C   UNK     0       4.092  43.758  23.216  0.00  0.00     0.223 A 
HETATM   30  C   UNK     0       5.036  45.085  21.328  0.00  0.00     0.085 A 
HETATM   31  O   UNK     0       4.437  44.582  24.053  0.00  0.00    -0.284 OA
HETATM   32  C   UNK     0       5.286  45.236  19.963  0.00  0.00     0.074 A 
HETATM   33  C   UNK     0       4.871  44.256  19.061  0.00  0.00     0.071 A 
BRANCH  24  34
HETATM   34  C   UNK     0       2.313  40.392  22.905  0.00  0.00     0.004 A 
HETATM   35  C   UNK     0       2.328  39.358  21.968  0.00  0.00     0.053 A 
HETATM   36  C   UNK     0       1.659  38.164  22.235  0.00  0.00     0.099 A 
HETATM   37  C   UNK     0       0.973  38.003  23.439  0.00  0.00     0.098 A 
HETATM   38  C   UNK     0       0.957  39.037  24.376  0.00  0.00     0.040 A 
HETATM   39  C   UNK     0       1.627  40.230  24.109  0.00  0.00     0.017 A 
BRANCH  36  40
HETATM   40  O   UNK     0       1.679  37.162  21.311  0.00  0.00    -0.358 OA
HETATM   41  H   UNK     0       1.091  37.387  20.572  0.00  0.00     0.217 HD
ENDBRANCH  36  40
BRANCH  37  42
HETATM   42  O   UNK     0       0.316  36.842  23.711  0.00  0.00    -0.358 OA
HETATM   43  H   UNK     0       0.290  36.286  22.917  0.00  0.00     0.217 HD
ENDBRANCH  37  42
ENDBRANCH  24  34
BRANCH  30  44
HETATM   44  O   UNK     0       5.462  46.071  22.164  0.00  0.00    -0.360 OA
HETATM   45  H   UNK     0       6.019  45.686  22.863  0.00  0.00     0.217 HD
ENDBRANCH  30  44
BRANCH  33  46
HETATM   46  O   UNK     0       5.118  44.407  17.731  0.00  0.00    -0.361 OA
HETATM   47  H   UNK     0       4.839  45.298  17.457  0.00  0.00     0.217 HD
ENDBRANCH  33  46
ENDBRANCH  22  23
ENDBRANCH   6  22
BRANCH   3  48
HETATM   48  O   UNK     0       7.710  40.664  27.510  0.00  0.00    -0.390 OA
HETATM   49  H   UNK     0       8.436  40.845  26.890  0.00  0.00     0.210 HD
ENDBRANCH   3  48
BRANCH   5  50
HETATM   50  O   UNK     0       3.102  41.975  27.739  0.00  0.00    -0.388 OA
HETATM   51  H   UNK     0       2.705  42.705  27.236  0.00  0.00     0.210 HD
ENDBRANCH   5  50
BRANCH   4  52
HETATM   52  O   UNK     0       5.124  40.026  28.633  0.00  0.00    -0.390 OA
HETATM   53  H   UNK     0       4.808  40.433  29.458  0.00  0.00     0.210 HD
ENDBRANCH   4  52
TORSDOF 16
ENDMDL
MODEL 6
REMARK VINA RESULT:      -7.8      2.836      7.414
REMARK  16 active torsions:
REMARK  status: ('A' for Active; 'I' for Inactive)
REMARK    1  A    between atoms: O_2  and  C_22 
REMARK    2  A    between atoms: O_2  and  C_26 
REMARK    3  A    between atoms: O_4  and  C_18 
REMARK    4  A    between atoms: O_5  and  C_19 
REMARK    5  A    between atoms: O_6  and  C_25 
REMARK    6  A    between atoms: O_6  and  C_29 
REMARK    7  A    between atoms: O_7  and  C_20 
REMARK    8  A    between atoms: O_8  and  C_21 
REMARK    9  A    between atoms: O_9  and  C_23 
REMARK   10  A    between atoms: O_10  and  C_24 
REMARK   11  A    between atoms: O_13  and  C_35 
REMARK   12  A    between atoms: O_14  and  C_40 
REMARK   13  A    between atoms: O_15  and  C_41 
REMARK   14  A    between atoms: O_16  and  C_43 
REMARK   15  A    between atoms: C_17  and  C_26 
REMARK   16  A    between atoms: C_30  and  C_33 
ROOT
HETATM    1  O   UNK     0       8.969  43.156  20.297  0.00  0.00    -0.348 OA
HETATM    2  C   UNK     0       9.248  44.351  19.564  0.00  0.00     0.180 C 
HETATM    3  C   UNK     0      10.537  44.177  18.756  0.00  0.00     0.180 C 
HETATM    4  C   UNK     0      11.700  43.784  19.667  0.00  0.00     0.183 C 
HETATM    5  C   UNK     0      11.320  42.615  20.576  0.00  0.00     0.205 C 
HETATM    6  C   UNK     0       9.976  42.858  21.261  0.00  0.00     0.298 C 
ENDROOT
BRANCH   2   7
HETATM    7  C   UNK     0       8.049  44.628  18.663  0.00  0.00     0.205 C 
BRANCH   7   8
HETATM    8  O   UNK     0       6.984  43.764  19.032  0.00  0.00    -0.356 OA
BRANCH   8   9
HETATM    9  C   UNK     0       5.738  44.225  18.519  0.00  0.00     0.291 C 
HETATM   10  O   UNK     0       5.451  45.570  18.910  0.00  0.00    -0.351 OA
HETATM   11  C   UNK     0       5.279  45.747  20.320  0.00  0.00     0.152 C 
HETATM   12  C   UNK     0       4.129  44.878  20.848  0.00  0.00     0.178 C 
HETATM   13  C   UNK     0       5.026  47.234  20.556  0.00  0.00     0.042 C 
HETATM   14  C   UNK     0       4.353  43.417  20.460  0.00  0.00     0.183 C 
HETATM   15  C   UNK     0       4.619  43.283  18.960  0.00  0.00     0.204 C 
BRANCH  12  16
HETATM   16  O   UNK     0       4.065  44.955  22.271  0.00  0.00    -0.390 OA
HETATM   17  H   UNK     0       3.129  45.018  22.525  0.00  0.00     0.210 HD
ENDBRANCH  12  16
BRANCH  14  18
HETATM   18  O   UNK     0       3.204  42.653  20.820  0.00  0.00    -0.390 OA
HETATM   19  H   UNK     0       2.491  42.880  20.198  0.00  0.00     0.210 HD
ENDBRANCH  14  18
BRANCH  15  20
HETATM   20  O   UNK     0       3.444  43.630  18.224  0.00  0.00    -0.388 OA
HETATM   21  H   UNK     0       3.656  43.602  17.276  0.00  0.00     0.210 HD
ENDBRANCH  15  20
ENDBRANCH   8   9
ENDBRANCH   7   8
ENDBRANCH   2   7
BRANCH   6  22
HETATM   22  O   UNK     0       9.624  41.672  21.973  0.00  0.00    -0.311 OA
BRANCH  22  23
HETATM   23  C   UNK     0       8.681  41.925  22.945  0.00  0.00     0.157 A 
HETATM   24  C   UNK     0       8.978  42.490  24.129  0.00  0.00     0.124 A 
HETATM   25  O   UNK     0       8.060  42.728  25.140  0.00  0.00    -0.306 OA
HETATM   26  C   UNK     0       6.749  42.387  24.926  0.00  0.00     0.096 A 
HETATM   27  C   UNK     0       6.304  41.803  23.742  0.00  0.00     0.084 A 
HETATM   28  C   UNK     0       5.846  42.648  25.958  0.00  0.00     0.075 A 
HETATM   29  C   UNK     0       7.277  41.536  22.671  0.00  0.00     0.223 A 
HETATM   30  C   UNK     0       4.955  41.475  23.580  0.00  0.00     0.085 A 
HETATM   31  O   UNK     0       6.945  41.019  21.612  0.00  0.00    -0.284 OA
HETATM   32  C   UNK     0       4.055  41.737  24.614  0.00  0.00     0.074 A 
HETATM   33  C   UNK     0       4.499  42.322  25.799  0.00  0.00     0.071 A 
BRANCH  24  34
HETATM   34  C   UNK     0      10.347  42.902  24.488  0.00  0.00     0.004 A 
HETATM   35  C   UNK     0      10.680  44.256  24.531  0.00  0.00     0.053 A 
HETATM   36  C   UNK     0      11.974  44.646  24.873  0.00  0.00     0.099 A 
HETATM   37  C   UNK     0      12.937  43.682  25.172  0.00  0.00     0.098 A 
HETATM   38  C   UNK     0      12.605  42.328  25.129  0.00  0.00     0.040 A 
HETATM   39  C   UNK     0      11.310  41.938  24.788  0.00  0.00     0.017 A 
BRANCH  36  40
HETATM   40  O   UNK     0      12.288  45.972  24.909  0.00  0.00    -0.358 OA
HETATM   41  H   UNK     0      13.233  46.089  24.718  0.00  0.00     0.217 HD
ENDBRANCH  36  40
BRANCH  37  42
HETATM   42  O   UNK     0      14.205  44.051  25.508  0.00  0.00    -0.358 OA
HETATM   43  H   UNK     0      14.273  44.146  26.470  0.00  0.00     0.217 HD
ENDBRANCH  37  42
ENDBRANCH  24  34
BRANCH  30  44
HETATM   44  O   UNK     0       4.470  40.902  22.444  0.00  0.00    -0.360 OA
HETATM   45  H   UNK     0       3.899  40.150  22.678  0.00  0.00     0.217 HD
ENDBRANCH  30  44
BRANCH  33  46
HETATM   46  O   UNK     0       3.617  42.576  26.805  0.00  0.00    -0.361 OA
HETATM   47  H   UNK     0       3.539  41.783  27.363  0.00  0.00     0.217 HD
ENDBRANCH  33  46
ENDBRANCH  22  23
ENDBRANCH   6  22
BRANCH   3  48
HETATM   48  O   UNK     0      10.848  45.403  18.098  0.00  0.00    -0.390 OA
HETATM   49  H   UNK     0      11.087  45.198  17.178  0.00  0.00     0.210 HD
ENDBRANCH   3  48
BRANCH   5  50
HETATM   50  O   UNK     0      12.316  42.458  21.586  0.00  0.00    -0.388 OA
HETATM   51  H   UNK     0      13.159  42.251  21.149  0.00  0.00     0.210 HD
ENDBRANCH   5  50
BRANCH   4  52
HETATM   52  O   UNK     0      12.800  43.404  18.838  0.00  0.00    -0.390 OA
HETATM   53  H   UNK     0      12.969  44.138  18.223  0.00  0.00     0.210 HD
ENDBRANCH   4  52
TORSDOF 16
ENDMDL
MODEL 7
REMARK VINA RESULT:      -7.8      2.221      3.328
REMARK  16 active torsions:
REMARK  status: ('A' for Active; 'I' for Inactive)
REMARK    1  A    between atoms: O_2  and  C_22 
REMARK    2  A    between atoms: O_2  and  C_26 
REMARK    3  A    between atoms: O_4  and  C_18 
REMARK    4  A    between atoms: O_5  and  C_19 
REMARK    5  A    between atoms: O_6  and  C_25 
REMARK    6  A    between atoms: O_6  and  C_29 
REMARK    7  A    between atoms: O_7  and  C_20 
REMARK    8  A    between atoms: O_8  and  C_21 
REMARK    9  A    between atoms: O_9  and  C_23 
REMARK   10  A    between atoms: O_10  and  C_24 
REMARK   11  A    between atoms: O_13  and  C_35 
REMARK   12  A    between atoms: O_14  and  C_40 
REMARK   13  A    between atoms: O_15  and  C_41 
REMARK   14  A    between atoms: O_16  and  C_43 
REMARK   15  A    between atoms: C_17  and  C_26 
REMARK   16  A    between atoms: C_30  and  C_33 
ROOT
HETATM    1  O   UNK     0       7.700  43.741  25.847  0.00  0.00    -0.348 OA
HETATM    2  C   UNK     0       8.998  43.153  25.956  0.00  0.00     0.180 C 
HETATM    3  C   UNK     0      10.072  44.240  25.875  0.00  0.00     0.180 C 
HETATM    4  C   UNK     0       9.924  45.054  24.590  0.00  0.00     0.183 C 
HETATM    5  C   UNK     0       8.483  45.525  24.396  0.00  0.00     0.205 C 
HETATM    6  C   UNK     0       7.492  44.376  24.588  0.00  0.00     0.298 C 
ENDROOT
BRANCH   2   7
HETATM    7  C   UNK     0       9.051  42.402  27.283  0.00  0.00     0.205 C 
BRANCH   7   8
HETATM    8  O   UNK     0       9.864  43.129  28.193  0.00  0.00    -0.356 OA
BRANCH   8   9
HETATM    9  C   UNK     0       9.113  43.580  29.316  0.00  0.00     0.291 C 
HETATM   10  O   UNK     0       9.942  44.151  30.333  0.00  0.00    -0.351 OA
HETATM   11  C   UNK     0      10.855  43.227  30.933  0.00  0.00     0.152 C 
HETATM   12  C   UNK     0      10.107  42.054  31.581  0.00  0.00     0.178 C 
HETATM   13  C   UNK     0      11.680  44.011  31.951  0.00  0.00     0.042 C 
HETATM   14  C   UNK     0       9.183  41.391  30.559  0.00  0.00     0.183 C 
HETATM   15  C   UNK     0       8.285  42.426  29.880  0.00  0.00     0.204 C 
BRANCH  12  16
HETATM   16  O   UNK     0      11.032  41.073  32.044  0.00  0.00    -0.390 OA
HETATM   17  H   UNK     0      11.025  40.334  31.413  0.00  0.00     0.210 HD
ENDBRANCH  12  16
BRANCH  14  18
HETATM   18  O   UNK     0       8.383  40.410  31.215  0.00  0.00    -0.390 OA
HETATM   19  H   UNK     0       7.998  39.835  30.531  0.00  0.00     0.210 HD
ENDBRANCH  14  18
BRANCH  15  20
HETATM   20  O   UNK     0       7.367  42.972  30.829  0.00  0.00    -0.388 OA
HETATM   21  H   UNK     0       6.529  42.485  30.760  0.00  0.00     0.210 HD
ENDBRANCH  15  20
ENDBRANCH   8   9
ENDBRANCH   7   8
ENDBRANCH   2   7
BRANCH   6  22
HETATM   22  O   UNK     0       6.174  44.919  24.534  0.00  0.00    -0.311 OA
BRANCH  22  23
HETATM   23  C   UNK     0       5.253  43.976  24.134  0.00  0.00     0.157 A 
HETATM   24  C   UNK     0       4.910  43.783  22.847  0.00  0.00     0.124 A 
HETATM   25  O   UNK     0       3.965  42.866  22.414  0.00  0.00    -0.306 OA
HETATM   26  C   UNK     0       3.341  42.080  23.347  0.00  0.00     0.096 A 
HETATM   27  C   UNK     0       3.609  42.170  24.711  0.00  0.00     0.084 A 
HETATM   28  C   UNK     0       2.402  41.160  22.880  0.00  0.00     0.075 A 
HETATM   29  C   UNK     0       4.601  43.151  25.179  0.00  0.00     0.223 A 
HETATM   30  C   UNK     0       2.940  41.343  25.618  0.00  0.00     0.085 A 
HETATM   31  O   UNK     0       4.873  43.279  26.365  0.00  0.00    -0.284 OA
HETATM   32  C   UNK     0       2.001  40.423  25.148  0.00  0.00     0.074 A 
HETATM   33  C   UNK     0       1.733  40.332  23.782  0.00  0.00     0.071 A 
BRANCH  24  34
HETATM   34  C   UNK     0       5.502  44.562  21.745  0.00  0.00     0.004 A 
HETATM   35  C   UNK     0       6.566  44.036  21.012  0.00  0.00     0.053 A 
HETATM   36  C   UNK     0       7.126  44.771  19.967  0.00  0.00     0.099 A 
HETATM   37  C   UNK     0       6.622  46.034  19.656  0.00  0.00     0.098 A 
HETATM   38  C   UNK     0       5.558  46.561  20.389  0.00  0.00     0.040 A 
HETATM   39  C   UNK     0       4.999  45.824  21.432  0.00  0.00     0.017 A 
BRANCH  36  40
HETATM   40  O   UNK     0       8.166  44.248  19.259  0.00  0.00    -0.358 OA
HETATM   41  H   UNK     0       8.065  44.468  18.319  0.00  0.00     0.217 HD
ENDBRANCH  36  40
BRANCH  37  42
HETATM   42  O   UNK     0       7.160  46.762  18.638  0.00  0.00    -0.358 OA
HETATM   43  H   UNK     0       7.677  47.498  18.999  0.00  0.00     0.217 HD
ENDBRANCH  37  42
ENDBRANCH  24  34
BRANCH  30  44
HETATM   44  O   UNK     0       3.164  41.392  26.960  0.00  0.00    -0.360 OA
HETATM   45  H   UNK     0       4.002  41.854  27.133  0.00  0.00     0.217 HD
ENDBRANCH  30  44
BRANCH  33  46
HETATM   46  O   UNK     0       0.817  39.433  23.328  0.00  0.00    -0.361 OA
HETATM   47  H   UNK     0       0.509  39.714  22.449  0.00  0.00     0.217 HD
ENDBRANCH  33  46
ENDBRANCH  22  23
ENDBRANCH   6  22
BRANCH   3  48
HETATM   48  O   UNK     0      11.361  43.631  25.901  0.00  0.00    -0.390 OA
HETATM   49  H   UNK     0      11.327  42.881  26.518  0.00  0.00     0.210 HD
ENDBRANCH   3  48
BRANCH   5  50
HETATM   50  O   UNK     0       8.325  46.036  23.073  0.00  0.00    -0.388 OA
HETATM   51  H   UNK     0       8.907  45.529  22.482  0.00  0.00     0.210 HD
ENDBRANCH   5  50
BRANCH   4  52
HETATM   52  O   UNK     0      10.786  46.190  24.686  0.00  0.00    -0.390 OA
HETATM   53  H   UNK     0      10.250  46.979  24.498  0.00  0.00     0.210 HD
ENDBRANCH   4  52
TORSDOF 16
ENDMDL
MODEL 8
REMARK VINA RESULT:      -7.7      4.895     10.286
REMARK  16 active torsions:
REMARK  status: ('A' for Active; 'I' for Inactive)
REMARK    1  A    between atoms: O_2  and  C_22 
REMARK    2  A    between atoms: O_2  and  C_26 
REMARK    3  A    between atoms: O_4  and  C_18 
REMARK    4  A    between atoms: O_5  and  C_19 
REMARK    5  A    between atoms: O_6  and  C_25 
REMARK    6  A    between atoms: O_6  and  C_29 
REMARK    7  A    between atoms: O_7  and  C_20 
REMARK    8  A    between atoms: O_8  and  C_21 
REMARK    9  A    between atoms: O_9  and  C_23 
REMARK   10  A    between atoms: O_10  and  C_24 
REMARK   11  A    between atoms: O_13  and  C_35 
REMARK   12  A    between atoms: O_14  and  C_40 
REMARK   13  A    between atoms: O_15  and  C_41 
REMARK   14  A    between atoms: O_16  and  C_43 
REMARK   15  A    between atoms: C_17  and  C_26 
REMARK   16  A    between atoms: C_30  and  C_33 
ROOT
HETATM    1  O   UNK     0      10.933  43.856  21.529  0.00  0.00    -0.348 OA
HETATM    2  C   UNK     0      10.247  45.034  21.101  0.00  0.00     0.180 C 
HETATM    3  C   UNK     0       9.820  44.887  19.638  0.00  0.00     0.180 C 
HETATM    4  C   UNK     0      11.025  44.576  18.750  0.00  0.00     0.183 C 
HETATM    5  C   UNK     0      11.853  43.426  19.323  0.00  0.00     0.205 C 
HETATM    6  C   UNK     0      12.144  43.636  20.809  0.00  0.00     0.298 C 
ENDROOT
BRANCH   2   7
HETATM    7  C   UNK     0       9.047  45.228  22.023  0.00  0.00     0.205 C 
BRANCH   7   8
HETATM    8  O   UNK     0       7.935  44.525  21.489  0.00  0.00    -0.356 OA
BRANCH   8   9
HETATM    9  C   UNK     0       6.709  45.179  21.797  0.00  0.00     0.291 C 
HETATM   10  O   UNK     0       5.697  44.265  22.231  0.00  0.00    -0.351 OA
HETATM   11  C   UNK     0       5.292  43.322  21.235  0.00  0.00     0.152 C 
HETATM   12  C   UNK     0       4.740  44.035  19.992  0.00  0.00     0.178 C 
HETATM   13  C   UNK     0       4.252  42.409  21.880  0.00  0.00     0.042 C 
HETATM   14  C   UNK     0       5.761  45.045  19.468  0.00  0.00     0.183 C 
HETATM   15  C   UNK     0       6.231  45.978  20.586  0.00  0.00     0.204 C 
BRANCH  12  16
HETATM   16  O   UNK     0       4.478  43.091  18.956  0.00  0.00    -0.390 OA
HETATM   17  H   UNK     0       4.788  42.221  19.260  0.00  0.00     0.210 HD
ENDBRANCH  12  16
BRANCH  14  18
HETATM   18  O   UNK     0       5.172  45.805  18.416  0.00  0.00    -0.390 OA
HETATM   19  H   UNK     0       4.955  46.685  18.771  0.00  0.00     0.210 HD
ENDBRANCH  14  18
BRANCH  15  20
HETATM   20  O   UNK     0       5.151  46.810  21.012  0.00  0.00    -0.388 OA
HETATM   21  H   UNK     0       4.429  46.239  21.325  0.00  0.00     0.210 HD
ENDBRANCH  15  20
ENDBRANCH   8   9
ENDBRANCH   7   8
ENDBRANCH   2   7
BRANCH   6  22
HETATM   22  O   UNK     0      12.790  42.463  21.301  0.00  0.00    -0.311 OA
BRANCH  22  23
HETATM   23  C   UNK     0      13.836  42.775  22.142  0.00  0.00     0.157 A 
HETATM   24  C   UNK     0      13.720  42.795  23.482  0.00  0.00     0.124 A 
HETATM   25  O   UNK     0      14.742  43.136  24.355  0.00  0.00    -0.306 OA
HETATM   26  C   UNK     0      15.968  43.459  23.832  0.00  0.00     0.096 A 
HETATM   27  C   UNK     0      16.226  43.470  22.463  0.00  0.00     0.084 A 
HETATM   28  C   UNK     0      16.979  43.788  24.736  0.00  0.00     0.075 A 
HETATM   29  C   UNK     0      15.142  43.122  21.531  0.00  0.00     0.223 A 
HETATM   30  C   UNK     0      17.496  43.809  21.987  0.00  0.00     0.085 A 
HETATM   31  O   UNK     0      15.308  43.120  20.319  0.00  0.00    -0.284 OA
HETATM   32  C   UNK     0      18.505  44.137  22.893  0.00  0.00     0.074 A 
HETATM   33  C   UNK     0      18.248  44.127  24.264  0.00  0.00     0.071 A 
BRANCH  24  34
HETATM   34  C   UNK     0      12.460  42.472  24.173  0.00  0.00     0.004 A 
HETATM   35  C   UNK     0      11.670  43.494  24.700  0.00  0.00     0.053 A 
HETATM   36  C   UNK     0      10.476  43.188  25.353  0.00  0.00     0.099 A 
HETATM   37  C   UNK     0      10.072  41.860  25.480  0.00  0.00     0.098 A 
HETATM   38  C   UNK     0      10.861  40.837  24.954  0.00  0.00     0.040 A 
HETATM   39  C   UNK     0      12.054  41.143  24.301  0.00  0.00     0.017 A 
BRANCH  36  40
HETATM   40  O   UNK     0       9.715  44.196  25.865  0.00  0.00    -0.358 OA
HETATM   41  H   UNK     0       9.181  44.593  25.158  0.00  0.00     0.217 HD
ENDBRANCH  36  40
BRANCH  37  42
HETATM   42  O   UNK     0       8.907  41.549  26.116  0.00  0.00    -0.358 OA
HETATM   43  H   UNK     0       8.587  42.321  26.608  0.00  0.00     0.217 HD
ENDBRANCH  37  42
ENDBRANCH  24  34
BRANCH  30  44
HETATM   44  O   UNK     0      17.800  43.835  20.660  0.00  0.00    -0.360 OA
HETATM   45  H   UNK     0      17.173  43.274  20.172  0.00  0.00     0.217 HD
ENDBRANCH  30  44
BRANCH  33  46
HETATM   46  O   UNK     0      19.235  44.448  25.144  0.00  0.00    -0.361 OA
HETATM   47  H   UNK     0      19.317  43.736  25.801  0.00  0.00     0.217 HD
ENDBRANCH  33  46
ENDBRANCH  22  23
ENDBRANCH   6  22
BRANCH   3  48
HETATM   48  O   UNK     0       9.213  46.099  19.200  0.00  0.00    -0.390 OA
HETATM   49  H   UNK     0       8.256  46.030  19.356  0.00  0.00     0.210 HD
ENDBRANCH   3  48
BRANCH   5  50
HETATM   50  O   UNK     0      13.099  43.348  18.630  0.00  0.00    -0.388 OA
HETATM   51  H   UNK     0      13.758  43.849  19.138  0.00  0.00     0.210 HD
ENDBRANCH   5  50
BRANCH   4  52
HETATM   52  O   UNK     0      10.538  44.214  17.457  0.00  0.00    -0.390 OA
HETATM   53  H   UNK     0       9.743  43.670  17.587  0.00  0.00     0.210 HD
ENDBRANCH   4  52
TORSDOF 16
ENDMDL
MODEL 9
REMARK VINA RESULT:      -7.6      3.007      8.378
REMARK  16 active torsions:
REMARK  status: ('A' for Active; 'I' for Inactive)
REMARK    1  A    between atoms: O_2  and  C_22 
REMARK    2  A    between atoms: O_2  and  C_26 
REMARK    3  A    between atoms: O_4  and  C_18 
REMARK    4  A    between atoms: O_5  and  C_19 
REMARK    5  A    between atoms: O_6  and  C_25 
REMARK    6  A    between atoms: O_6  and  C_29 
REMARK    7  A    between atoms: O_7  and  C_20 
REMARK    8  A    between atoms: O_8  and  C_21 
REMARK    9  A    between atoms: O_9  and  C_23 
REMARK   10  A    between atoms: O_10  and  C_24 
REMARK   11  A    between atoms: O_13  and  C_35 
REMARK   12  A    between atoms: O_14  and  C_40 
REMARK   13  A    between atoms: O_15  and  C_41 
REMARK   14  A    between atoms: O_16  and  C_43 
REMARK   15  A    between atoms: C_17  and  C_26 
REMARK   16  A    between atoms: C_30  and  C_33 
ROOT
HETATM    1  O   UNK     0       8.558  45.511  21.341  0.00  0.00    -0.348 OA
HETATM    2  C   UNK     0       8.612  45.062  19.986  0.00  0.00     0.180 C 
HETATM    3  C   UNK     0       7.612  45.848  19.135  0.00  0.00     0.180 C 
HETATM    4  C   UNK     0       6.201  45.735  19.714  0.00  0.00     0.183 C 
HETATM    5  C   UNK     0       6.191  46.043  21.211  0.00  0.00     0.205 C 
HETATM    6  C   UNK     0       7.288  45.272  21.945  0.00  0.00     0.298 C 
ENDROOT
BRANCH   2   7
HETATM    7  C   UNK     0      10.044  45.255  19.496  0.00  0.00     0.205 C 
BRANCH   7   8
HETATM    8  O   UNK     0      10.935  44.650  20.422  0.00  0.00    -0.356 OA
BRANCH   8   9
HETATM    9  C   UNK     0      11.301  43.337  20.010  0.00  0.00     0.291 C 
HETATM   10  O   UNK     0      10.821  42.330  20.906  0.00  0.00    -0.351 OA
HETATM   11  C   UNK     0      11.380  42.400  22.221  0.00  0.00     0.152 C 
HETATM   12  C   UNK     0      12.909  42.260  22.178  0.00  0.00     0.178 C 
HETATM   13  C   UNK     0      10.728  41.291  23.043  0.00  0.00     0.042 C 
HETATM   14  C   UNK     0      13.505  43.298  21.228  0.00  0.00     0.183 C 
HETATM   15  C   UNK     0      12.819  43.248  19.861  0.00  0.00     0.204 C 
BRANCH  12  16
HETATM   16  O   UNK     0      13.461  42.477  23.475  0.00  0.00    -0.390 OA
HETATM   17  H   UNK     0      14.185  41.840  23.601  0.00  0.00     0.210 HD
ENDBRANCH  12  16
BRANCH  14  18
HETATM   18  O   UNK     0      14.902  43.052  21.080  0.00  0.00    -0.390 OA
HETATM   19  H   UNK     0      15.160  42.397  21.751  0.00  0.00     0.210 HD
ENDBRANCH  14  18
BRANCH  15  20
HETATM   20  O   UNK     0      13.121  42.012  19.211  0.00  0.00    -0.388 OA
HETATM   21  H   UNK     0      12.359  41.762  18.660  0.00  0.00     0.210 HD
ENDBRANCH  15  20
ENDBRANCH   8   9
ENDBRANCH   7   8
ENDBRANCH   2   7
BRANCH   6  22
HETATM   22  O   UNK     0       7.308  45.717  23.301  0.00  0.00    -0.311 OA
BRANCH  22  23
HETATM   23  C   UNK     0       8.061  44.883  24.097  0.00  0.00     0.157 A 
HETATM   24  C   UNK     0       7.596  43.722  24.592  0.00  0.00     0.124 A 
HETATM   25  O   UNK     0       8.315  42.876  25.422  0.00  0.00    -0.306 OA
HETATM   26  C   UNK     0       9.599  43.223  25.756  0.00  0.00     0.096 A 
HETATM   27  C   UNK     0      10.205  44.394  25.306  0.00  0.00     0.084 A 
HETATM   28  C   UNK     0      10.300  42.347  26.585  0.00  0.00     0.075 A 
HETATM   29  C   UNK     0       9.443  45.302  24.436  0.00  0.00     0.223 A 
HETATM   30  C   UNK     0      11.517  44.698  25.680  0.00  0.00     0.085 A 
HETATM   31  O   UNK     0       9.921  46.346  24.014  0.00  0.00    -0.284 OA
HETATM   32  C   UNK     0      12.217  43.819  26.509  0.00  0.00     0.074 A 
HETATM   33  C   UNK     0      11.610  42.647  26.960  0.00  0.00     0.071 A 
BRANCH  24  34
HETATM   34  C   UNK     0       6.235  43.231  24.313  0.00  0.00     0.004 A 
HETATM   35  C   UNK     0       6.020  42.317  23.281  0.00  0.00     0.053 A 
HETATM   36  C   UNK     0       4.732  41.851  23.018  0.00  0.00     0.099 A 
HETATM   37  C   UNK     0       3.658  42.300  23.786  0.00  0.00     0.098 A 
HETATM   38  C   UNK     0       3.872  43.214  24.817  0.00  0.00     0.040 A 
HETATM   39  C   UNK     0       5.160  43.679  25.081  0.00  0.00     0.017 A 
BRANCH  36  40
HETATM   40  O   UNK     0       4.534  40.960  22.006  0.00  0.00    -0.358 OA
HETATM   41  H   UNK     0       5.316  40.942  21.430  0.00  0.00     0.217 HD
ENDBRANCH  36  40
BRANCH  37  42
HETATM   42  O   UNK     0       2.395  41.851  23.539  0.00  0.00    -0.358 OA
HETATM   43  H   UNK     0       1.997  41.526  24.361  0.00  0.00     0.217 HD
ENDBRANCH  37  42
ENDBRANCH  24  34
BRANCH  30  44
HETATM   44  O   UNK     0      12.156  45.827  25.269  0.00  0.00    -0.360 OA
HETATM   45  H   UNK     0      11.499  46.489  24.992  0.00  0.00     0.217 HD
ENDBRANCH  30  44
BRANCH  33  46
HETATM   46  O   UNK     0      12.296  41.794  27.769  0.00  0.00    -0.361 OA
HETATM   47  H   UNK     0      12.288  40.906  27.371  0.00  0.00     0.217 HD
ENDBRANCH  33  46
ENDBRANCH  22  23
ENDBRANCH   6  22
BRANCH   3  48
HETATM   48  O   UNK     0       7.617  45.334  17.806  0.00  0.00    -0.390 OA
HETATM   49  H   UNK     0       6.700  45.321  17.484  0.00  0.00     0.210 HD
ENDBRANCH   3  48
BRANCH   5  50
HETATM   50  O   UNK     0       4.931  45.665  21.765  0.00  0.00    -0.388 OA
HETATM   51  H   UNK     0       4.387  46.466  21.852  0.00  0.00     0.210 HD
ENDBRANCH   5  50
BRANCH   4  52
HETATM   52  O   UNK     0       5.367  46.673  19.030  0.00  0.00    -0.390 OA
HETATM   53  H   UNK     0       4.540  46.215  18.802  0.00  0.00     0.210 HD
ENDBRANCH   4  52
TORSDOF 16
ENDMDL
