MODEL 1
REMARK VINA RESULT:      -8.4      0.000      0.000
REMARK  11 active torsions:
REMARK  status: ('A' for Active; 'I' for Inactive)
REMARK    1  A    between atoms: O_1  and  C_9 
REMARK    2  A    between atoms: O_2  and  C_19 
REMARK    3  A    between atoms: O_3  and  C_26 
REMARK    4  A    between atoms: O_4  and  C_27 
REMARK    5  A    between atoms: O_6  and  C_28 
REMARK    6  A    between atoms: O_7  and  C_32 
REMARK    7  A    between atoms: C_10  and  C_19 
REMARK    8  A    between atoms: C_19  and  C_27 
REMARK    9  A    between atoms: C_27  and  C_30 
REMARK   10  A    between atoms: C_30  and  C_31 
REMARK   11  A    between atoms: C_31  and  C_32 
ROOT
HETATM    1  O   UNK     0       7.754  42.281  22.091  0.00  0.00    -0.384 OA
HETATM    2  H   UNK     0       7.005  41.670  21.982  0.00  0.00     0.211 HD
ENDROOT
BRANCH   1   3
HETATM    3  C   UNK     0       7.223  43.623  22.167  0.00  0.00     0.089 C 
HETATM    4  C   UNK     0       7.167  44.235  20.743  0.00  0.00    -0.002 C 
HETATM    5  C   UNK     0       8.676  44.289  20.391  0.00  0.00     0.034 C 
HETATM    6  C   UNK     0       6.349  43.296  19.838  0.00  0.00     0.014 C 
HETATM    7  C   UNK     0       6.543  45.657  20.720  0.00  0.00     0.019 C 
HETATM    8  C   UNK     0       9.346  44.729  21.713  0.00  0.00     0.012 C 
HETATM    9  C   UNK     0       8.321  44.463  22.838  0.00  0.00     0.044 C 
HETATM   10  C   UNK     0       4.924  43.108  20.383  0.00  0.00     0.011 C 
HETATM   11  C   UNK     0       4.837  42.720  21.892  0.00  0.00     0.027 C 
HETATM   12  C   UNK     0       3.359  42.779  22.443  0.00  0.00    -0.023 C 
HETATM   13  C   UNK     0       5.842  43.482  22.770  0.00  0.00    -0.037 C 
HETATM   14  C   UNK     0       3.357  42.580  23.985  0.00  0.00     0.071 C 
HETATM   15  C   UNK     0       2.465  41.678  21.803  0.00  0.00     0.044 C 
HETATM   16  C   UNK     0       2.687  44.144  22.133  0.00  0.00     0.016 C 
HETATM   17  C   UNK     0       3.723  41.151  24.421  0.00  0.00     0.047 C 
HETATM   18  C   UNK     0       4.283  43.570  24.666  0.00  0.00     0.154 C 
HETATM   19  C   UNK     0       2.819  40.110  23.764  0.00  0.00     0.147 C 
HETATM   20  C   UNK     0       2.832  40.256  22.242  0.00  0.00     0.147 C 
HETATM   21  O   UNK     0       4.024  44.040  25.773  0.00  0.00    -0.293 OA
HETATM   22  C   UNK     0       5.566  43.908  24.012  0.00  0.00     0.057 C 
BRANCH   5  23
HETATM   23  C   UNK     0       9.069  45.167  19.209  0.00  0.00     0.084 C 
HETATM   24  C   UNK     0       8.182  44.836  17.997  0.00  0.00     0.049 C 
BRANCH  23  25
HETATM   25  O   UNK     0       8.821  46.535  19.559  0.00  0.00    -0.387 OA
HETATM   26  H   UNK     0       7.862  46.674  19.629  0.00  0.00     0.210 HD
ENDBRANCH  23  25
BRANCH  23  27
HETATM   27  C   UNK     0      10.572  45.024  18.845  0.00  0.00     0.152 C 
BRANCH  27  28
HETATM   28  O   UNK     0      10.785  45.475  17.504  0.00  0.00    -0.393 OA
HETATM   29  H   UNK     0       9.995  45.977  17.237  0.00  0.00     0.210 HD
ENDBRANCH  27  28
BRANCH  27  30
HETATM   30  C   UNK     0      11.118  43.588  18.966  0.00  0.00     0.037 C 
BRANCH  30  31
HETATM   31  C   UNK     0      12.636  43.568  19.227  0.00  0.00     0.040 C 
BRANCH  31  32
HETATM   32  C   UNK     0      13.070  42.678  20.410  0.00  0.00     0.051 C 
HETATM   33  C   UNK     0      14.566  42.364  20.293  0.00  0.00     0.045 C 
HETATM   34  C   UNK     0      12.777  43.320  21.767  0.00  0.00     0.045 C 
BRANCH  32  35
HETATM   35  O   UNK     0      12.356  41.443  20.329  0.00  0.00    -0.391 OA
HETATM   36  H   UNK     0      11.458  41.637  20.011  0.00  0.00     0.210 HD
ENDBRANCH  32  35
ENDBRANCH  31  32
ENDBRANCH  30  31
ENDBRANCH  27  30
ENDBRANCH  23  27
ENDBRANCH   5  23
BRANCH  19  37
HETATM   37  O   UNK     0       1.484  40.280  24.243  0.00  0.00    -0.393 OA
HETATM   38  H   UNK     0       1.216  39.449  24.670  0.00  0.00     0.210 HD
ENDBRANCH  19  37
BRANCH  20  39
HETATM   39  O   UNK     0       1.907  39.328  21.679  0.00  0.00    -0.393 OA
HETATM   40  H   UNK     0       2.414  38.551  21.387  0.00  0.00     0.210 HD
ENDBRANCH  20  39
ENDBRANCH   1   3
TORSDOF 11
ENDMDL
MODEL 2
REMARK VINA RESULT:      -8.4      1.792      8.732
REMARK  11 active torsions:
REMARK  status: ('A' for Active; 'I' for Inactive)
REMARK    1  A    between atoms: O_1  and  C_9 
REMARK    2  A    between atoms: O_2  and  C_19 
REMARK    3  A    between atoms: O_3  and  C_26 
REMARK    4  A    between atoms: O_4  and  C_27 
REMARK    5  A    between atoms: O_6  and  C_28 
REMARK    6  A    between atoms: O_7  and  C_32 
REMARK    7  A    between atoms: C_10  and  C_19 
REMARK    8  A    between atoms: C_19  and  C_27 
REMARK    9  A    between atoms: C_27  and  C_30 
REMARK   10  A    between atoms: C_30  and  C_31 
REMARK   11  A    between atoms: C_31  and  C_32 
ROOT
HETATM    1  O   UNK     0       5.027  42.486  20.279  0.00  0.00    -0.384 OA
HETATM    2  H   UNK     0       4.529  42.787  19.499  0.00  0.00     0.211 HD
ENDROOT
BRANCH   1   3
HETATM    3  C   UNK     0       5.004  43.550  21.257  0.00  0.00     0.089 C 
HETATM    4  C   UNK     0       5.189  42.950  22.675  0.00  0.00    -0.002 C 
HETATM    5  C   UNK     0       3.899  42.099  22.799  0.00  0.00     0.034 C 
HETATM    6  C   UNK     0       6.486  42.121  22.691  0.00  0.00     0.014 C 
HETATM    7  C   UNK     0       5.246  44.032  23.787  0.00  0.00     0.019 C 
HETATM    8  C   UNK     0       2.810  42.985  22.152  0.00  0.00     0.012 C 
HETATM    9  C   UNK     0       3.549  44.040  21.298  0.00  0.00     0.044 C 
HETATM   10  C   UNK     0       7.701  42.992  22.330  0.00  0.00     0.011 C 
HETATM   11  C   UNK     0       7.544  43.843  21.032  0.00  0.00     0.027 C 
HETATM   12  C   UNK     0       8.717  44.885  20.850  0.00  0.00    -0.023 C 
HETATM   13  C   UNK     0       6.148  44.469  20.885  0.00  0.00    -0.037 C 
HETATM   14  C   UNK     0       8.407  45.833  19.658  0.00  0.00     0.071 C 
HETATM   15  C   UNK     0      10.074  44.177  20.577  0.00  0.00     0.044 C 
HETATM   16  C   UNK     0       8.908  45.756  22.121  0.00  0.00     0.016 C 
HETATM   17  C   UNK     0       8.482  45.141  18.286  0.00  0.00     0.047 C 
HETATM   18  C   UNK     0       7.050  46.491  19.819  0.00  0.00     0.154 C 
HETATM   19  C   UNK     0       9.832  44.461  18.069  0.00  0.00     0.147 C 
HETATM   20  C   UNK     0      10.146  43.491  19.209  0.00  0.00     0.147 C 
HETATM   21  O   UNK     0       6.839  47.640  19.435  0.00  0.00    -0.293 OA
HETATM   22  C   UNK     0       5.936  45.693  20.379  0.00  0.00     0.057 C 
BRANCH   5  23
HETATM   23  C   UNK     0       3.524  41.631  24.199  0.00  0.00     0.084 C 
HETATM   24  C   UNK     0       4.647  40.751  24.773  0.00  0.00     0.049 C 
BRANCH  23  25
HETATM   25  O   UNK     0       3.407  42.782  25.046  0.00  0.00    -0.387 OA
HETATM   26  H   UNK     0       4.216  43.314  24.966  0.00  0.00     0.210 HD
ENDBRANCH  23  25
BRANCH  23  27
HETATM   27  C   UNK     0       2.168  40.874  24.222  0.00  0.00     0.152 C 
BRANCH  27  28
HETATM   28  O   UNK     0       1.924  40.367  25.538  0.00  0.00    -0.393 OA
HETATM   29  H   UNK     0       2.648  39.752  25.752  0.00  0.00     0.210 HD
ENDBRANCH  27  28
BRANCH  27  30
HETATM   30  C   UNK     0       2.082  39.700  23.227  0.00  0.00     0.037 C 
BRANCH  30  31
HETATM   31  C   UNK     0       1.816  38.359  23.938  0.00  0.00     0.040 C 
BRANCH  31  32
HETATM   32  C   UNK     0       0.639  37.549  23.355  0.00  0.00     0.051 C 
HETATM   33  C   UNK     0       0.810  37.416  21.838  0.00  0.00     0.045 C 
HETATM   34  C   UNK     0       0.510  36.163  23.989  0.00  0.00     0.045 C 
BRANCH  32  35
HETATM   35  O   UNK     0      -0.569  38.273  23.598  0.00  0.00    -0.391 OA
HETATM   36  H   UNK     0      -0.330  39.195  23.792  0.00  0.00     0.210 HD
ENDBRANCH  32  35
ENDBRANCH  31  32
ENDBRANCH  30  31
ENDBRANCH  27  30
ENDBRANCH  23  27
ENDBRANCH   5  23
BRANCH  19  37
HETATM   37  O   UNK     0      10.854  45.457  18.004  0.00  0.00    -0.393 OA
HETATM   38  H   UNK     0      11.067  45.719  18.916  0.00  0.00     0.210 HD
ENDBRANCH  19  37
BRANCH  20  39
HETATM   39  O   UNK     0      11.450  42.950  19.012  0.00  0.00    -0.393 OA
HETATM   40  H   UNK     0      11.383  41.984  19.104  0.00  0.00     0.210 HD
ENDBRANCH  20  39
ENDBRANCH   1   3
TORSDOF 11
ENDMDL
MODEL 3
REMARK VINA RESULT:      -8.3      2.443      7.424
REMARK  11 active torsions:
REMARK  status: ('A' for Active; 'I' for Inactive)
REMARK    1  A    between atoms: O_1  and  C_9 
REMARK    2  A    between atoms: O_2  and  C_19 
REMARK    3  A    between atoms: O_3  and  C_26 
REMARK    4  A    between atoms: O_4  and  C_27 
REMARK    5  A    between atoms: O_6  and  C_28 
REMARK    6  A    between atoms: O_7  and  C_32 
REMARK    7  A    between atoms: C_10  and  C_19 
REMARK    8  A    between atoms: C_19  and  C_27 
REMARK    9  A    between atoms: C_27  and  C_30 
REMARK   10  A    between atoms: C_30  and  C_31 
REMARK   11  A    between atoms: C_31  and  C_32 
ROOT
HETATM    1  O   UNK     0       9.563  44.009  19.282  0.00  0.00    -0.384 OA
HETATM    2  H   UNK     0       9.880  43.122  19.525  0.00  0.00     0.211 HD
ENDROOT
BRANCH   1   3
HETATM    3  C   UNK     0       9.013  44.621  20.471  0.00  0.00     0.089 C 
HETATM    4  C   UNK     0       7.548  44.151  20.661  0.00  0.00    -0.002 C 
HETATM    5  C   UNK     0       6.882  44.764  19.402  0.00  0.00     0.034 C 
HETATM    6  C   UNK     0       7.526  42.612  20.692  0.00  0.00     0.014 C 
HETATM    7  C   UNK     0       6.897  44.708  21.957  0.00  0.00     0.019 C 
HETATM    8  C   UNK     0       7.545  46.154  19.275  0.00  0.00     0.012 C 
HETATM    9  C   UNK     0       8.835  46.107  20.123  0.00  0.00     0.044 C 
HETATM   10  C   UNK     0       8.402  42.071  21.834  0.00  0.00     0.011 C 
HETATM   11  C   UNK     0       9.846  42.657  21.897  0.00  0.00     0.027 C 
HETATM   12  C   UNK     0      10.604  42.247  23.220  0.00  0.00    -0.023 C 
HETATM   13  C   UNK     0       9.899  44.166  21.611  0.00  0.00    -0.037 C 
HETATM   14  C   UNK     0      11.952  43.015  23.322  0.00  0.00     0.071 C 
HETATM   15  C   UNK     0      10.902  40.721  23.260  0.00  0.00     0.044 C 
HETATM   16  C   UNK     0       9.765  42.577  24.485  0.00  0.00     0.016 C 
HETATM   17  C   UNK     0      12.999  42.559  22.291  0.00  0.00     0.047 C 
HETATM   18  C   UNK     0      11.740  44.512  23.200  0.00  0.00     0.154 C 
HETATM   19  C   UNK     0      13.253  41.055  22.370  0.00  0.00     0.147 C 
HETATM   20  C   UNK     0      11.947  40.272  22.233  0.00  0.00     0.147 C 
HETATM   21  O   UNK     0      12.433  45.315  23.824  0.00  0.00    -0.293 OA
HETATM   22  C   UNK     0      10.728  45.011  22.242  0.00  0.00     0.057 C 
BRANCH   5  23
HETATM   23  C   UNK     0       5.360  44.834  19.403  0.00  0.00     0.084 C 
HETATM   24  C   UNK     0       4.885  45.845  20.460  0.00  0.00     0.049 C 
BRANCH  23  25
HETATM   25  O   UNK     0       4.928  45.317  18.124  0.00  0.00    -0.387 OA
HETATM   26  H   UNK     0       4.743  44.558  17.547  0.00  0.00     0.210 HD
ENDBRANCH  23  25
BRANCH  23  27
HETATM   27  C   UNK     0       4.708  43.445  19.641  0.00  0.00     0.152 C 
BRANCH  27  28
HETATM   28  O   UNK     0       3.999  43.040  18.466  0.00  0.00    -0.393 OA
HETATM   29  H   UNK     0       3.220  43.618  18.382  0.00  0.00     0.210 HD
ENDBRANCH  27  28
BRANCH  27  30
HETATM   30  C   UNK     0       3.733  43.400  20.834  0.00  0.00     0.037 C 
BRANCH  30  31
HETATM   31  C   UNK     0       3.865  42.092  21.638  0.00  0.00     0.040 C 
BRANCH  31  32
HETATM   32  C   UNK     0       2.562  41.627  22.321  0.00  0.00     0.051 C 
HETATM   33  C   UNK     0       2.310  40.152  21.992  0.00  0.00     0.045 C 
HETATM   34  C   UNK     0       2.591  41.826  23.838  0.00  0.00     0.045 C 
BRANCH  32  35
HETATM   35  O   UNK     0       1.477  42.387  21.785  0.00  0.00    -0.391 OA
HETATM   36  H   UNK     0       1.473  43.254  22.226  0.00  0.00     0.210 HD
ENDBRANCH  32  35
ENDBRANCH  31  32
ENDBRANCH  30  31
ENDBRANCH  27  30
ENDBRANCH  23  27
ENDBRANCH   5  23
BRANCH  19  37
HETATM   37  O   UNK     0      13.857  40.747  23.627  0.00  0.00    -0.393 OA
HETATM   38  H   UNK     0      14.717  40.333  23.446  0.00  0.00     0.210 HD
ENDBRANCH  19  37
BRANCH  20  39
HETATM   39  O   UNK     0      12.219  38.883  22.403  0.00  0.00    -0.393 OA
HETATM   40  H   UNK     0      11.487  38.389  21.995  0.00  0.00     0.210 HD
ENDBRANCH  20  39
ENDBRANCH   1   3
TORSDOF 11
ENDMDL
MODEL 4
REMARK VINA RESULT:      -8.0      2.502      7.714
REMARK  11 active torsions:
REMARK  status: ('A' for Active; 'I' for Inactive)
REMARK    1  A    between atoms: O_1  and  C_9 
REMARK    2  A    between atoms: O_2  and  C_19 
REMARK    3  A    between atoms: O_3  and  C_26 
REMARK    4  A    between atoms: O_4  and  C_27 
REMARK    5  A    between atoms: O_6  and  C_28 
REMARK    6  A    between atoms: O_7  and  C_32 
REMARK    7  A    between atoms: C_10  and  C_19 
REMARK    8  A    between atoms: C_19  and  C_27 
REMARK    9  A    between atoms: C_27  and  C_30 
REMARK   10  A    between atoms: C_30  and  C_31 
REMARK   11  A    between atoms: C_31  and  C_32 
ROOT
HETATM    1  O   UNK     0       9.136  45.823  23.103  0.00  0.00    -0.384 OA
HETATM    2  H   UNK     0      10.108  45.862  23.101  0.00  0.00     0.211 HD
ENDROOT
BRANCH   1   3
HETATM    3  C   UNK     0       8.741  44.605  22.432  0.00  0.00     0.089 C 
HETATM    4  C   UNK     0       8.564  44.886  20.917  0.00  0.00    -0.002 C 
HETATM    5  C   UNK     0       7.372  45.877  20.945  0.00  0.00     0.034 C 
HETATM    6  C   UNK     0       9.869  45.497  20.376  0.00  0.00     0.014 C 
HETATM    7  C   UNK     0       8.205  43.613  20.103  0.00  0.00     0.019 C 
HETATM    8  C   UNK     0       6.441  45.302  22.036  0.00  0.00     0.012 C 
HETATM    9  C   UNK     0       7.297  44.335  22.883  0.00  0.00     0.044 C 
HETATM   10  C   UNK     0      11.056  44.544  20.595  0.00  0.00     0.011 C 
HETATM   11  C   UNK     0      11.203  43.991  22.047  0.00  0.00     0.027 C 
HETATM   12  C   UNK     0      12.283  42.844  22.147  0.00  0.00    -0.023 C 
HETATM   13  C   UNK     0       9.859  43.617  22.690  0.00  0.00    -0.037 C 
HETATM   14  C   UNK     0      12.246  42.199  23.561  0.00  0.00     0.071 C 
HETATM   15  C   UNK     0      13.719  43.384  21.889  0.00  0.00     0.044 C 
HETATM   16  C   UNK     0      12.026  41.725  21.101  0.00  0.00     0.016 C 
HETATM   17  C   UNK     0      12.770  43.124  24.673  0.00  0.00     0.047 C 
HETATM   18  C   UNK     0      10.848  41.729  23.912  0.00  0.00     0.154 C 
HETATM   19  C   UNK     0      14.181  43.629  24.370  0.00  0.00     0.147 C 
HETATM   20  C   UNK     0      14.238  44.304  23.000  0.00  0.00     0.147 C 
HETATM   21  O   UNK     0      10.656  40.719  24.588  0.00  0.00    -0.293 OA
HETATM   22  C   UNK     0       9.694  42.558  23.498  0.00  0.00     0.057 C 
BRANCH   5  23
HETATM   23  C   UNK     0       6.654  46.116  19.622  0.00  0.00     0.084 C 
HETATM   24  C   UNK     0       5.428  47.016  19.850  0.00  0.00     0.049 C 
BRANCH  23  25
HETATM   25  O   UNK     0       7.543  46.818  18.744  0.00  0.00    -0.387 OA
HETATM   26  H   UNK     0       8.364  47.021  19.223  0.00  0.00     0.210 HD
ENDBRANCH  23  25
BRANCH  23  27
HETATM   27  C   UNK     0       6.239  44.788  18.931  0.00  0.00     0.152 C 
BRANCH  27  28
HETATM   28  O   UNK     0       6.443  44.898  17.519  0.00  0.00    -0.393 OA
HETATM   29  H   UNK     0       5.585  45.121  17.118  0.00  0.00     0.210 HD
ENDBRANCH  27  28
BRANCH  27  30
HETATM   30  C   UNK     0       4.775  44.377  19.179  0.00  0.00     0.037 C 
BRANCH  30  31
HETATM   31  C   UNK     0       4.666  42.970  19.795  0.00  0.00     0.040 C 
BRANCH  31  32
HETATM   32  C   UNK     0       3.442  42.765  20.712  0.00  0.00     0.051 C 
HETATM   33  C   UNK     0       3.689  41.568  21.636  0.00  0.00     0.045 C 
HETATM   34  C   UNK     0       3.117  44.008  21.543  0.00  0.00     0.045 C 
BRANCH  32  35
HETATM   35  O   UNK     0       2.312  42.460  19.891  0.00  0.00    -0.391 OA
HETATM   36  H   UNK     0       1.674  41.968  20.434  0.00  0.00     0.210 HD
ENDBRANCH  32  35
ENDBRANCH  31  32
ENDBRANCH  30  31
ENDBRANCH  27  30
ENDBRANCH  23  27
ENDBRANCH   5  23
BRANCH  19  37
HETATM   37  O   UNK     0      15.087  42.524  24.390  0.00  0.00    -0.393 OA
HETATM   38  H   UNK     0      14.633  41.780  24.820  0.00  0.00     0.210 HD
ENDBRANCH  19  37
BRANCH  20  39
HETATM   39  O   UNK     0      15.586  44.675  22.722  0.00  0.00    -0.393 OA
HETATM   40  H   UNK     0      16.055  43.876  22.425  0.00  0.00     0.210 HD
ENDBRANCH  20  39
ENDBRANCH   1   3
TORSDOF 11
ENDMDL
MODEL 5
REMARK VINA RESULT:      -8.0      3.726      9.006
REMARK  11 active torsions:
REMARK  status: ('A' for Active; 'I' for Inactive)
REMARK    1  A    between atoms: O_1  and  C_9 
REMARK    2  A    between atoms: O_2  and  C_19 
REMARK    3  A    between atoms: O_3  and  C_26 
REMARK    4  A    between atoms: O_4  and  C_27 
REMARK    5  A    between atoms: O_6  and  C_28 
REMARK    6  A    between atoms: O_7  and  C_32 
REMARK    7  A    between atoms: C_10  and  C_19 
REMARK    8  A    between atoms: C_19  and  C_27 
REMARK    9  A    between atoms: C_27  and  C_30 
REMARK   10  A    between atoms: C_30  and  C_31 
REMARK   11  A    between atoms: C_31  and  C_32 
ROOT
HETATM    1  O   UNK     0       7.361  43.249  25.056  0.00  0.00    -0.384 OA
HETATM    2  H   UNK     0       7.165  43.654  25.918  0.00  0.00     0.211 HD
ENDROOT
BRANCH   1   3
HETATM    3  C   UNK     0       6.363  42.233  24.808  0.00  0.00     0.089 C 
HETATM    4  C   UNK     0       5.229  42.358  25.858  0.00  0.00    -0.002 C 
HETATM    5  C   UNK     0       6.002  42.024  27.159  0.00  0.00     0.034 C 
HETATM    6  C   UNK     0       4.675  43.793  25.813  0.00  0.00     0.014 C 
HETATM    7  C   UNK     0       4.075  41.345  25.625  0.00  0.00     0.019 C 
HETATM    8  C   UNK     0       6.944  40.871  26.742  0.00  0.00     0.012 C 
HETATM    9  C   UNK     0       7.024  40.902  25.200  0.00  0.00     0.044 C 
HETATM   10  C   UNK     0       4.133  44.132  24.415  0.00  0.00     0.011 C 
HETATM   11  C   UNK     0       5.104  43.821  23.234  0.00  0.00     0.027 C 
HETATM   12  C   UNK     0       4.403  43.963  21.826  0.00  0.00    -0.023 C 
HETATM   13  C   UNK     0       5.857  42.493  23.405  0.00  0.00    -0.037 C 
HETATM   14  C   UNK     0       5.351  43.453  20.705  0.00  0.00     0.071 C 
HETATM   15  C   UNK     0       4.028  45.442  21.520  0.00  0.00     0.044 C 
HETATM   16  C   UNK     0       3.088  43.139  21.757  0.00  0.00     0.016 C 
HETATM   17  C   UNK     0       6.566  44.365  20.465  0.00  0.00     0.047 C 
HETATM   18  C   UNK     0       5.827  42.041  20.990  0.00  0.00     0.154 C 
HETATM   19  C   UNK     0       6.144  45.804  20.171  0.00  0.00     0.147 C 
HETATM   20  C   UNK     0       5.241  46.346  21.279  0.00  0.00     0.147 C 
HETATM   21  O   UNK     0       6.023  41.231  20.086  0.00  0.00    -0.293 OA
HETATM   22  C   UNK     0       6.139  41.665  22.387  0.00  0.00     0.057 C 
BRANCH   5  23
HETATM   23  C   UNK     0       5.161  41.684  28.383  0.00  0.00     0.084 C 
HETATM   24  C   UNK     0       5.183  40.166  28.627  0.00  0.00     0.049 C 
BRANCH  23  25
HETATM   25  O   UNK     0       5.754  42.310  29.529  0.00  0.00    -0.387 OA
HETATM   26  H   UNK     0       6.702  42.438  29.362  0.00  0.00     0.210 HD
ENDBRANCH  23  25
BRANCH  23  27
HETATM   27  C   UNK     0       3.701  42.197  28.253  0.00  0.00     0.152 C 
BRANCH  27  28
HETATM   28  O   UNK     0       3.586  43.481  28.875  0.00  0.00    -0.393 OA
HETATM   29  H   UNK     0       4.372  43.997  28.623  0.00  0.00     0.210 HD
ENDBRANCH  27  28
BRANCH  27  30
HETATM   30  C   UNK     0       2.644  41.262  28.872  0.00  0.00     0.037 C 
BRANCH  30  31
HETATM   31  C   UNK     0       2.006  41.869  30.136  0.00  0.00     0.040 C 
BRANCH  31  32
HETATM   32  C   UNK     0       2.625  41.382  31.462  0.00  0.00     0.051 C 
HETATM   33  C   UNK     0       1.673  41.702  32.620  0.00  0.00     0.045 C 
HETATM   34  C   UNK     0       2.942  39.885  31.447  0.00  0.00     0.045 C 
BRANCH  32  35
HETATM   35  O   UNK     0       3.840  42.101  31.682  0.00  0.00    -0.391 OA
HETATM   36  H   UNK     0       3.608  42.993  31.990  0.00  0.00     0.210 HD
ENDBRANCH  32  35
ENDBRANCH  31  32
ENDBRANCH  30  31
ENDBRANCH  27  30
ENDBRANCH  23  27
ENDBRANCH   5  23
BRANCH  19  37
HETATM   37  O   UNK     0       5.440  45.841  18.929  0.00  0.00    -0.393 OA
HETATM   38  H   UNK     0       4.531  46.133  19.115  0.00  0.00     0.210 HD
ENDBRANCH  19  37
BRANCH  20  39
HETATM   39  O   UNK     0       4.799  47.653  20.920  0.00  0.00    -0.393 OA
HETATM   40  H   UNK     0       3.827  47.655  20.961  0.00  0.00     0.210 HD
ENDBRANCH  20  39
ENDBRANCH   1   3
TORSDOF 11
ENDMDL
MODEL 6
REMARK VINA RESULT:      -8.0      2.155      4.011
REMARK  11 active torsions:
REMARK  status: ('A' for Active; 'I' for Inactive)
REMARK    1  A    between atoms: O_1  and  C_9 
REMARK    2  A    between atoms: O_2  and  C_19 
REMARK    3  A    between atoms: O_3  and  C_26 
REMARK    4  A    between atoms: O_4  and  C_27 
REMARK    5  A    between atoms: O_6  and  C_28 
REMARK    6  A    between atoms: O_7  and  C_32 
REMARK    7  A    between atoms: C_10  and  C_19 
REMARK    8  A    between atoms: C_19  and  C_27 
REMARK    9  A    between atoms: C_27  and  C_30 
REMARK   10  A    between atoms: C_30  and  C_31 
REMARK   11  A    between atoms: C_31  and  C_32 
ROOT
HETATM    1  O   UNK     0       8.398  44.273  23.600  0.00  0.00    -0.384 OA
HETATM    2  H   UNK     0       8.164  45.130  23.997  0.00  0.00     0.211 HD
ENDROOT
BRANCH   1   3
HETATM    3  C   UNK     0       8.747  44.507  22.216  0.00  0.00     0.089 C 
HETATM    4  C   UNK     0       9.610  43.329  21.696  0.00  0.00    -0.002 C 
HETATM    5  C   UNK     0      10.871  43.480  22.585  0.00  0.00     0.034 C 
HETATM    6  C   UNK     0       8.838  42.017  21.927  0.00  0.00     0.014 C 
HETATM    7  C   UNK     0       9.974  43.463  20.193  0.00  0.00     0.019 C 
HETATM    8  C   UNK     0      11.089  45.008  22.657  0.00  0.00     0.012 C 
HETATM    9  C   UNK     0       9.756  45.665  22.236  0.00  0.00     0.044 C 
HETATM   10  C   UNK     0       7.486  42.037  21.196  0.00  0.00     0.011 C 
HETATM   11  C   UNK     0       6.613  43.304  21.451  0.00  0.00     0.027 C 
HETATM   12  C   UNK     0       5.359  43.373  20.493  0.00  0.00    -0.023 C 
HETATM   13  C   UNK     0       7.430  44.605  21.475  0.00  0.00    -0.037 C 
HETATM   14  C   UNK     0       4.642  44.743  20.653  0.00  0.00     0.071 C 
HETATM   15  C   UNK     0       4.337  42.243  20.805  0.00  0.00     0.044 C 
HETATM   16  C   UNK     0       5.769  43.215  19.004  0.00  0.00     0.016 C 
HETATM   17  C   UNK     0       3.926  44.909  22.004  0.00  0.00     0.047 C 
HETATM   18  C   UNK     0       5.608  45.895  20.448  0.00  0.00     0.154 C 
HETATM   19  C   UNK     0       2.936  43.774  22.262  0.00  0.00     0.147 C 
HETATM   20  C   UNK     0       3.624  42.412  22.151  0.00  0.00     0.147 C 
HETATM   21  O   UNK     0       5.255  46.949  19.922  0.00  0.00    -0.293 OA
HETATM   22  C   UNK     0       6.986  45.768  20.974  0.00  0.00     0.057 C 
BRANCH   5  23
HETATM   23  C   UNK     0      12.116  42.726  22.134  0.00  0.00     0.084 C 
HETATM   24  C   UNK     0      12.813  42.095  23.351  0.00  0.00     0.049 C 
BRANCH  23  25
HETATM   25  O   UNK     0      11.710  41.656  21.271  0.00  0.00    -0.387 OA
HETATM   26  H   UNK     0      11.246  40.985  21.798  0.00  0.00     0.210 HD
ENDBRANCH  23  25
BRANCH  23  27
HETATM   27  C   UNK     0      13.101  43.635  21.349  0.00  0.00     0.152 C 
BRANCH  27  28
HETATM   28  O   UNK     0      13.384  43.046  20.075  0.00  0.00    -0.393 OA
HETATM   29  H   UNK     0      14.125  42.427  20.200  0.00  0.00     0.210 HD
ENDBRANCH  27  28
BRANCH  27  30
HETATM   30  C   UNK     0      14.437  43.893  22.072  0.00  0.00     0.037 C 
BRANCH  30  31
HETATM   31  C   UNK     0      15.644  43.734  21.128  0.00  0.00     0.040 C 
BRANCH  31  32
HETATM   32  C   UNK     0      16.697  42.713  21.604  0.00  0.00     0.051 C 
HETATM   33  C   UNK     0      16.937  42.886  23.108  0.00  0.00     0.045 C 
HETATM   34  C   UNK     0      16.291  41.268  21.305  0.00  0.00     0.045 C 
BRANCH  32  35
HETATM   35  O   UNK     0      17.927  42.987  20.929  0.00  0.00    -0.391 OA
HETATM   36  H   UNK     0      18.574  43.277  21.594  0.00  0.00     0.210 HD
ENDBRANCH  32  35
ENDBRANCH  31  32
ENDBRANCH  30  31
ENDBRANCH  27  30
ENDBRANCH  23  27
ENDBRANCH   5  23
BRANCH  19  37
HETATM   37  O   UNK     0       1.879  43.847  21.304  0.00  0.00    -0.393 OA
HETATM   38  H   UNK     0       1.271  44.549  21.592  0.00  0.00     0.210 HD
ENDBRANCH  19  37
BRANCH  20  39
HETATM   39  O   UNK     0       2.648  41.385  22.308  0.00  0.00    -0.393 OA
HETATM   40  H   UNK     0       3.037  40.559  21.973  0.00  0.00     0.210 HD
ENDBRANCH  20  39
ENDBRANCH   1   3
TORSDOF 11
ENDMDL
MODEL 7
REMARK VINA RESULT:      -7.9      1.867      2.626
REMARK  11 active torsions:
REMARK  status: ('A' for Active; 'I' for Inactive)
REMARK    1  A    between atoms: O_1  and  C_9 
REMARK    2  A    between atoms: O_2  and  C_19 
REMARK    3  A    between atoms: O_3  and  C_26 
REMARK    4  A    between atoms: O_4  and  C_27 
REMARK    5  A    between atoms: O_6  and  C_28 
REMARK    6  A    between atoms: O_7  and  C_32 
REMARK    7  A    between atoms: C_10  and  C_19 
REMARK    8  A    between atoms: C_19  and  C_27 
REMARK    9  A    between atoms: C_27  and  C_30 
REMARK   10  A    between atoms: C_30  and  C_31 
REMARK   11  A    between atoms: C_31  and  C_32 
ROOT
HETATM    1  O   UNK     0       7.883  41.287  22.279  0.00  0.00    -0.384 OA
HETATM    2  H   UNK     0       8.496  41.127  21.540  0.00  0.00     0.211 HD
ENDROOT
BRANCH   1   3
HETATM    3  C   UNK     0       8.038  42.664  22.692  0.00  0.00     0.089 C 
HETATM    4  C   UNK     0       8.787  43.452  21.586  0.00  0.00    -0.002 C 
HETATM    5  C   UNK     0      10.165  42.741  21.607  0.00  0.00     0.034 C 
HETATM    6  C   UNK     0       8.021  43.285  20.261  0.00  0.00     0.014 C 
HETATM    7  C   UNK     0       8.938  44.962  21.915  0.00  0.00     0.019 C 
HETATM    8  C   UNK     0      10.432  42.503  23.111  0.00  0.00     0.012 C 
HETATM    9  C   UNK     0       9.071  42.639  23.829  0.00  0.00     0.044 C 
HETATM   10  C   UNK     0       6.580  43.805  20.389  0.00  0.00     0.011 C 
HETATM   11  C   UNK     0       5.786  43.264  21.618  0.00  0.00     0.027 C 
HETATM   12  C   UNK     0       4.412  44.014  21.824  0.00  0.00    -0.023 C 
HETATM   13  C   UNK     0       6.633  43.188  22.898  0.00  0.00    -0.037 C 
HETATM   14  C   UNK     0       3.761  43.577  23.166  0.00  0.00     0.071 C 
HETATM   15  C   UNK     0       3.414  43.709  20.670  0.00  0.00     0.044 C 
HETATM   16  C   UNK     0       4.602  45.555  21.861  0.00  0.00     0.016 C 
HETATM   17  C   UNK     0       3.248  42.126  23.156  0.00  0.00     0.047 C 
HETATM   18  C   UNK     0       4.720  43.766  24.327  0.00  0.00     0.154 C 
HETATM   19  C   UNK     0       2.275  41.879  22.005  0.00  0.00     0.147 C 
HETATM   20  C   UNK     0       2.903  42.264  20.665  0.00  0.00     0.147 C 
HETATM   21  O   UNK     0       4.324  44.094  25.444  0.00  0.00    -0.293 OA
HETATM   22  C   UNK     0       6.154  43.465  24.120  0.00  0.00     0.057 C 
BRANCH   5  23
HETATM   23  C   UNK     0      11.313  43.461  20.910  0.00  0.00     0.084 C 
HETATM   24  C   UNK     0      10.757  44.559  19.989  0.00  0.00     0.049 C 
BRANCH  23  25
HETATM   25  O   UNK     0      12.116  44.105  21.908  0.00  0.00    -0.387 OA
HETATM   26  H   UNK     0      12.636  44.809  21.487  0.00  0.00     0.210 HD
ENDBRANCH  23  25
BRANCH  23  27
HETATM   27  C   UNK     0      12.221  42.484  20.114  0.00  0.00     0.152 C 
BRANCH  27  28
HETATM   28  O   UNK     0      12.271  41.221  20.785  0.00  0.00    -0.393 OA
HETATM   29  H   UNK     0      12.546  40.555  20.131  0.00  0.00     0.210 HD
ENDBRANCH  27  28
BRANCH  27  30
HETATM   30  C   UNK     0      13.664  42.984  19.913  0.00  0.00     0.037 C 
BRANCH  30  31
HETATM   31  C   UNK     0      14.703  41.972  20.431  0.00  0.00     0.040 C 
BRANCH  31  32
HETATM   32  C   UNK     0      15.318  42.331  21.801  0.00  0.00     0.051 C 
HETATM   33  C   UNK     0      16.403  41.310  22.158  0.00  0.00     0.045 C 
HETATM   34  C   UNK     0      15.902  43.744  21.829  0.00  0.00     0.045 C 
BRANCH  32  35
HETATM   35  O   UNK     0      14.291  42.244  22.791  0.00  0.00    -0.391 OA
HETATM   36  H   UNK     0      13.479  42.622  22.413  0.00  0.00     0.210 HD
ENDBRANCH  32  35
ENDBRANCH  31  32
ENDBRANCH  30  31
ENDBRANCH  27  30
ENDBRANCH  23  27
ENDBRANCH   5  23
BRANCH  19  37
HETATM   37  O   UNK     0       1.095  42.657  22.213  0.00  0.00    -0.393 OA
HETATM   38  H   UNK     0       1.096  43.373  21.557  0.00  0.00     0.210 HD
ENDBRANCH  19  37
BRANCH  20  39
HETATM   39  O   UNK     0       1.932  42.104  19.634  0.00  0.00    -0.393 OA
HETATM   40  H   UNK     0       2.158  41.295  19.143  0.00  0.00     0.210 HD
ENDBRANCH  20  39
ENDBRANCH   1   3
TORSDOF 11
ENDMDL
MODEL 8
REMARK VINA RESULT:      -7.8      2.850      6.980
REMARK  11 active torsions:
REMARK  status: ('A' for Active; 'I' for Inactive)
REMARK    1  A    between atoms: O_1  and  C_9 
REMARK    2  A    between atoms: O_2  and  C_19 
REMARK    3  A    between atoms: O_3  and  C_26 
REMARK    4  A    between atoms: O_4  and  C_27 
REMARK    5  A    between atoms: O_6  and  C_28 
REMARK    6  A    between atoms: O_7  and  C_32 
REMARK    7  A    between atoms: C_10  and  C_19 
REMARK    8  A    between atoms: C_19  and  C_27 
REMARK    9  A    between atoms: C_27  and  C_30 
REMARK   10  A    between atoms: C_30  and  C_31 
REMARK   11  A    between atoms: C_31  and  C_32 
ROOT
HETATM    1  O   UNK     0       9.542  42.429  20.946  0.00  0.00    -0.384 OA
HETATM    2  H   UNK     0      10.129  41.982  21.582  0.00  0.00     0.211 HD
ENDROOT
BRANCH   1   3
HETATM    3  C   UNK     0       9.946  43.815  20.873  0.00  0.00     0.089 C 
HETATM    4  C   UNK     0       8.688  44.710  20.724  0.00  0.00    -0.002 C 
HETATM    5  C   UNK     0       8.163  44.244  19.341  0.00  0.00     0.034 C 
HETATM    6  C   UNK     0       7.729  44.405  21.889  0.00  0.00     0.014 C 
HETATM    7  C   UNK     0       9.022  46.226  20.706  0.00  0.00     0.019 C 
HETATM    8  C   UNK     0       9.449  44.067  18.501  0.00  0.00     0.012 C 
HETATM    9  C   UNK     0      10.622  43.975  19.502  0.00  0.00     0.044 C 
HETATM   10  C   UNK     0       8.405  44.674  23.244  0.00  0.00     0.011 C 
HETATM   11  C   UNK     0       9.807  44.016  23.427  0.00  0.00     0.027 C 
HETATM   12  C   UNK     0      10.544  44.523  24.729  0.00  0.00    -0.023 C 
HETATM   13  C   UNK     0      10.681  44.095  22.166  0.00  0.00    -0.037 C 
HETATM   14  C   UNK     0      12.005  43.993  24.756  0.00  0.00     0.071 C 
HETATM   15  C   UNK     0       9.821  44.044  26.020  0.00  0.00     0.044 C 
HETATM   16  C   UNK     0      10.595  46.075  24.788  0.00  0.00     0.016 C 
HETATM   17  C   UNK     0      12.103  42.476  24.996  0.00  0.00     0.047 C 
HETATM   18  C   UNK     0      12.742  44.351  23.479  0.00  0.00     0.154 C 
HETATM   19  C   UNK     0      11.376  42.057  26.273  0.00  0.00     0.147 C 
HETATM   20  C   UNK     0       9.923  42.533  26.257  0.00  0.00     0.147 C 
HETATM   21  O   UNK     0      13.943  44.616  23.480  0.00  0.00    -0.293 OA
HETATM   22  C   UNK     0      12.008  44.297  22.195  0.00  0.00     0.057 C 
BRANCH   5  23
HETATM   23  C   UNK     0       7.135  45.142  18.665  0.00  0.00     0.084 C 
HETATM   24  C   UNK     0       6.586  46.161  19.678  0.00  0.00     0.049 C 
BRANCH  23  25
HETATM   25  O   UNK     0       7.792  45.882  17.628  0.00  0.00    -0.387 OA
HETATM   26  H   UNK     0       8.515  46.400  18.020  0.00  0.00     0.210 HD
ENDBRANCH  23  25
BRANCH  23  27
HETATM   27  C   UNK     0       5.978  44.330  18.022  0.00  0.00     0.152 C 
BRANCH  27  28
HETATM   28  O   UNK     0       4.828  45.169  17.873  0.00  0.00    -0.393 OA
HETATM   29  H   UNK     0       4.133  44.637  17.447  0.00  0.00     0.210 HD
ENDBRANCH  27  28
BRANCH  27  30
HETATM   30  C   UNK     0       5.565  43.078  18.819  0.00  0.00     0.037 C 
BRANCH  30  31
HETATM   31  C   UNK     0       4.053  43.053  19.112  0.00  0.00     0.040 C 
BRANCH  31  32
HETATM   32  C   UNK     0       3.692  42.901  20.604  0.00  0.00     0.051 C 
HETATM   33  C   UNK     0       3.830  44.257  21.305  0.00  0.00     0.045 C 
HETATM   34  C   UNK     0       2.282  42.347  20.814  0.00  0.00     0.045 C 
BRANCH  32  35
HETATM   35  O   UNK     0       4.627  42.001  21.203  0.00  0.00    -0.391 OA
HETATM   36  H   UNK     0       5.234  41.695  20.509  0.00  0.00     0.210 HD
ENDBRANCH  32  35
ENDBRANCH  31  32
ENDBRANCH  30  31
ENDBRANCH  27  30
ENDBRANCH  23  27
ENDBRANCH   5  23
BRANCH  19  37
HETATM   37  O   UNK     0      12.046  42.625  27.400  0.00  0.00    -0.393 OA
HETATM   38  H   UNK     0      12.992  42.420  27.314  0.00  0.00     0.210 HD
ENDBRANCH  19  37
BRANCH  20  39
HETATM   39  O   UNK     0       9.313  42.202  27.502  0.00  0.00    -0.393 OA
HETATM   40  H   UNK     0       9.142  41.244  27.498  0.00  0.00     0.210 HD
ENDBRANCH  20  39
ENDBRANCH   1   3
TORSDOF 11
ENDMDL
MODEL 9
REMARK VINA RESULT:      -7.6      2.656      7.875
REMARK  11 active torsions:
REMARK  status: ('A' for Active; 'I' for Inactive)
REMARK    1  A    between atoms: O_1  and  C_9 
REMARK    2  A    between atoms: O_2  and  C_19 
REMARK    3  A    between atoms: O_3  and  C_26 
REMARK    4  A    between atoms: O_4  and  C_27 
REMARK    5  A    between atoms: O_6  and  C_28 
REMARK    6  A    between atoms: O_7  and  C_32 
REMARK    7  A    between atoms: C_10  and  C_19 
REMARK    8  A    between atoms: C_19  and  C_27 
REMARK    9  A    between atoms: C_27  and  C_30 
REMARK   10  A    between atoms: C_30  and  C_31 
REMARK   11  A    between atoms: C_31  and  C_32 
ROOT
HETATM    1  O   UNK     0      10.778  42.387  19.055  0.00  0.00    -0.384 OA
HETATM    2  H   UNK     0      10.584  41.745  19.760  0.00  0.00     0.211 HD
ENDROOT
BRANCH   1   3
HETATM    3  C   UNK     0      10.991  43.675  19.676  0.00  0.00     0.089 C 
HETATM    4  C   UNK     0       9.648  44.200  20.247  0.00  0.00    -0.002 C 
HETATM    5  C   UNK     0       8.830  44.378  18.942  0.00  0.00     0.034 C 
HETATM    6  C   UNK     0       9.073  43.139  21.203  0.00  0.00     0.014 C 
HETATM    7  C   UNK     0       9.796  45.552  20.996  0.00  0.00     0.019 C 
HETATM    8  C   UNK     0       9.857  44.952  17.940  0.00  0.00     0.012 C 
HETATM    9  C   UNK     0      11.257  44.651  18.520  0.00  0.00     0.044 C 
HETATM   10  C   UNK     0      10.050  42.846  22.352  0.00  0.00     0.011 C 
HETATM   11  C   UNK     0      11.515  42.535  21.915  0.00  0.00     0.027 C 
HETATM   12  C   UNK     0      12.510  42.481  23.140  0.00  0.00    -0.023 C 
HETATM   13  C   UNK     0      12.008  43.436  20.772  0.00  0.00    -0.037 C 
HETATM   14  C   UNK     0      13.975  42.368  22.632  0.00  0.00     0.071 C 
HETATM   15  C   UNK     0      12.214  41.267  24.066  0.00  0.00     0.044 C 
HETATM   16  C   UNK     0      12.403  43.757  24.018  0.00  0.00     0.016 C 
HETATM   17  C   UNK     0      14.301  41.006  21.994  0.00  0.00     0.047 C 
HETATM   18  C   UNK     0      14.302  43.477  21.651  0.00  0.00     0.154 C 
HETATM   19  C   UNK     0      13.991  39.849  22.942  0.00  0.00     0.147 C 
HETATM   20  C   UNK     0      12.542  39.913  23.428  0.00  0.00     0.147 C 
HETATM   21  O   UNK     0      15.423  43.980  21.594  0.00  0.00    -0.293 OA
HETATM   22  C   UNK     0      13.264  43.900  20.685  0.00  0.00     0.057 C 
BRANCH   5  23
HETATM   23  C   UNK     0       7.566  45.224  19.041  0.00  0.00     0.084 C 
HETATM   24  C   UNK     0       7.170  45.399  20.517  0.00  0.00     0.049 C 
BRANCH  23  25
HETATM   25  O   UNK     0       7.851  46.528  18.517  0.00  0.00    -0.387 OA
HETATM   26  H   UNK     0       8.729  46.515  18.101  0.00  0.00     0.210 HD
ENDBRANCH  23  25
BRANCH  23  27
HETATM   27  C   UNK     0       6.390  44.621  18.225  0.00  0.00     0.152 C 
BRANCH  27  28
HETATM   28  O   UNK     0       5.268  45.507  18.275  0.00  0.00    -0.393 OA
HETATM   29  H   UNK     0       4.468  44.958  18.363  0.00  0.00     0.210 HD
ENDBRANCH  27  28
BRANCH  27  30
HETATM   30  C   UNK     0       5.933  43.231  18.708  0.00  0.00     0.037 C 
BRANCH  30  31
HETATM   31  C   UNK     0       4.412  43.174  18.945  0.00  0.00     0.040 C 
BRANCH  31  32
HETATM   32  C   UNK     0       4.000  43.064  20.428  0.00  0.00     0.051 C 
HETATM   33  C   UNK     0       2.605  42.437  20.527  0.00  0.00     0.045 C 
HETATM   34  C   UNK     0       4.997  42.251  21.256  0.00  0.00     0.045 C 
BRANCH  32  35
HETATM   35  O   UNK     0       3.927  44.383  20.974  0.00  0.00    -0.391 OA
HETATM   36  H   UNK     0       4.773  44.572  21.412  0.00  0.00     0.210 HD
ENDBRANCH  32  35
ENDBRANCH  31  32
ENDBRANCH  30  31
ENDBRANCH  27  30
ENDBRANCH  23  27
ENDBRANCH   5  23
BRANCH  19  37
HETATM   37  O   UNK     0      14.868  39.917  24.067  0.00  0.00    -0.393 OA
HETATM   38  H   UNK     0      14.321  40.062  24.858  0.00  0.00     0.210 HD
ENDBRANCH  19  37
BRANCH  20  39
HETATM   39  O   UNK     0      12.325  38.872  24.377  0.00  0.00    -0.393 OA
HETATM   40  H   UNK     0      11.651  38.275  24.007  0.00  0.00     0.210 HD
ENDBRANCH  20  39
ENDBRANCH   1   3
TORSDOF 11
ENDMDL
