MODEL 1
REMARK VINA RESULT:      -8.5      0.000      0.000
REMARK  11 active torsions:
REMARK  status: ('A' for Active; 'I' for Inactive)
REMARK    1  A    between atoms: O_1  and  C_9 
REMARK    2  A    between atoms: O_2  and  C_19 
REMARK    3  A    between atoms: O_3  and  C_26 
REMARK    4  A    between atoms: O_4  and  C_27 
REMARK    5  A    between atoms: O_6  and  C_28 
REMARK    6  A    between atoms: O_7  and  C_32 
REMARK    7  A    between atoms: C_10  and  C_19 
REMARK    8  A    between atoms: C_19  and  C_27 
REMARK    9  A    between atoms: C_27  and  C_30 
REMARK   10  A    between atoms: C_30  and  C_31 
REMARK   11  A    between atoms: C_31  and  C_32 
ROOT
HETATM    1  O   UNK     0       5.031  42.457  20.295  0.00  0.00    -0.384 OA
HETATM    2  H   UNK     0       5.764  42.637  19.681  0.00  0.00     0.211 HD
ENDROOT
BRANCH   1   3
HETATM    3  C   UNK     0       4.996  43.527  21.267  0.00  0.00     0.089 C 
HETATM    4  C   UNK     0       5.179  42.937  22.690  0.00  0.00    -0.002 C 
HETATM    5  C   UNK     0       3.895  42.077  22.813  0.00  0.00     0.034 C 
HETATM    6  C   UNK     0       6.482  42.118  22.717  0.00  0.00     0.014 C 
HETATM    7  C   UNK     0       5.223  44.026  23.796  0.00  0.00     0.019 C 
HETATM    8  C   UNK     0       2.802  42.951  22.156  0.00  0.00     0.012 C 
HETATM    9  C   UNK     0       3.536  44.006  21.300  0.00  0.00     0.044 C 
HETATM   10  C   UNK     0       7.692  42.996  22.355  0.00  0.00     0.011 C 
HETATM   11  C   UNK     0       7.534  43.838  21.051  0.00  0.00     0.027 C 
HETATM   12  C   UNK     0       8.700  44.888  20.869  0.00  0.00    -0.023 C 
HETATM   13  C   UNK     0       6.134  44.453  20.896  0.00  0.00    -0.037 C 
HETATM   14  C   UNK     0       8.388  45.827  19.670  0.00  0.00     0.071 C 
HETATM   15  C   UNK     0      10.064  44.189  20.606  0.00  0.00     0.044 C 
HETATM   16  C   UNK     0       8.879  45.768  22.136  0.00  0.00     0.016 C 
HETATM   17  C   UNK     0       8.474  45.127  18.303  0.00  0.00     0.047 C 
HETATM   18  C   UNK     0       7.025  46.475  19.822  0.00  0.00     0.154 C 
HETATM   19  C   UNK     0       9.831  44.456  18.095  0.00  0.00     0.147 C 
HETATM   20  C   UNK     0      10.147  43.495  19.242  0.00  0.00     0.147 C 
HETATM   21  O   UNK     0       6.807  47.621  19.430  0.00  0.00    -0.293 OA
HETATM   22  C   UNK     0       5.915  45.672  20.381  0.00  0.00     0.057 C 
BRANCH   5  23
HETATM   23  C   UNK     0       3.517  41.614  24.215  0.00  0.00     0.084 C 
HETATM   24  C   UNK     0       4.649  40.754  24.803  0.00  0.00     0.049 C 
BRANCH  23  25
HETATM   25  O   UNK     0       3.379  42.770  25.051  0.00  0.00    -0.387 OA
HETATM   26  H   UNK     0       4.047  42.731  25.755  0.00  0.00     0.210 HD
ENDBRANCH  23  25
BRANCH  23  27
HETATM   27  C   UNK     0       2.172  40.838  24.234  0.00  0.00     0.152 C 
BRANCH  27  28
HETATM   28  O   UNK     0       1.879  40.421  25.572  0.00  0.00    -0.393 OA
HETATM   29  H   UNK     0       0.995  40.762  25.796  0.00  0.00     0.210 HD
ENDBRANCH  27  28
BRANCH  27  30
HETATM   30  C   UNK     0       2.144  39.597  23.322  0.00  0.00     0.037 C 
BRANCH  30  31
HETATM   31  C   UNK     0       1.663  38.340  24.071  0.00  0.00     0.040 C 
BRANCH  31  32
HETATM   32  C   UNK     0       0.537  37.563  23.359  0.00  0.00     0.051 C 
HETATM   33  C   UNK     0       0.818  37.518  21.853  0.00  0.00     0.045 C 
HETATM   34  C   UNK     0       0.371  36.141  23.900  0.00  0.00     0.045 C 
BRANCH  32  35
HETATM   35  O   UNK     0      -0.691  38.268  23.554  0.00  0.00    -0.391 OA
HETATM   36  H   UNK     0      -1.262  38.092  22.788  0.00  0.00     0.210 HD
ENDBRANCH  32  35
ENDBRANCH  31  32
ENDBRANCH  30  31
ENDBRANCH  27  30
ENDBRANCH  23  27
ENDBRANCH   5  23
BRANCH  19  37
HETATM   37  O   UNK     0      10.845  45.460  18.029  0.00  0.00    -0.393 OA
HETATM   38  H   UNK     0      11.329  45.445  18.872  0.00  0.00     0.210 HD
ENDBRANCH  19  37
BRANCH  20  39
HETATM   39  O   UNK     0      11.456  42.963  19.054  0.00  0.00    -0.393 OA
HETATM   40  H   UNK     0      12.075  43.713  19.027  0.00  0.00     0.210 HD
ENDBRANCH  20  39
ENDBRANCH   1   3
TORSDOF 11
ENDMDL
MODEL 2
REMARK VINA RESULT:      -8.3      2.799      5.312
REMARK  11 active torsions:
REMARK  status: ('A' for Active; 'I' for Inactive)
REMARK    1  A    between atoms: O_1  and  C_9 
REMARK    2  A    between atoms: O_2  and  C_19 
REMARK    3  A    between atoms: O_3  and  C_26 
REMARK    4  A    between atoms: O_4  and  C_27 
REMARK    5  A    between atoms: O_6  and  C_28 
REMARK    6  A    between atoms: O_7  and  C_32 
REMARK    7  A    between atoms: C_10  and  C_19 
REMARK    8  A    between atoms: C_19  and  C_27 
REMARK    9  A    between atoms: C_27  and  C_30 
REMARK   10  A    between atoms: C_30  and  C_31 
REMARK   11  A    between atoms: C_31  and  C_32 
ROOT
HETATM    1  O   UNK     0       9.472  43.884  19.175  0.00  0.00    -0.384 OA
HETATM    2  H   UNK     0       9.030  44.269  18.398  0.00  0.00     0.211 HD
ENDROOT
BRANCH   1   3
HETATM    3  C   UNK     0       8.951  44.542  20.352  0.00  0.00     0.089 C 
HETATM    4  C   UNK     0       7.483  44.099  20.582  0.00  0.00    -0.002 C 
HETATM    5  C   UNK     0       6.804  44.679  19.315  0.00  0.00     0.034 C 
HETATM    6  C   UNK     0       7.442  42.562  20.663  0.00  0.00     0.014 C 
HETATM    7  C   UNK     0       6.862  44.706  21.869  0.00  0.00     0.019 C 
HETATM    8  C   UNK     0       7.483  46.055  19.131  0.00  0.00     0.012 C 
HETATM    9  C   UNK     0       8.787  46.018  19.959  0.00  0.00     0.044 C 
HETATM   10  C   UNK     0       8.330  42.046  21.807  0.00  0.00     0.011 C 
HETATM   11  C   UNK     0       9.783  42.614  21.827  0.00  0.00     0.027 C 
HETATM   12  C   UNK     0      10.558  42.236  23.149  0.00  0.00    -0.023 C 
HETATM   13  C   UNK     0       9.850  44.112  21.491  0.00  0.00    -0.037 C 
HETATM   14  C   UNK     0      11.917  42.988  23.204  0.00  0.00     0.071 C 
HETATM   15  C   UNK     0      10.836  40.708  23.234  0.00  0.00     0.044 C 
HETATM   16  C   UNK     0       9.745  42.618  24.416  0.00  0.00     0.016 C 
HETATM   17  C   UNK     0      12.940  42.485  22.170  0.00  0.00     0.047 C 
HETATM   18  C   UNK     0      11.723  44.483  23.037  0.00  0.00     0.154 C 
HETATM   19  C   UNK     0      13.175  40.980  22.294  0.00  0.00     0.147 C 
HETATM   20  C   UNK     0      11.857  40.211  22.204  0.00  0.00     0.147 C 
HETATM   21  O   UNK     0      12.437  45.296  23.622  0.00  0.00    -0.293 OA
HETATM   22  C   UNK     0      10.702  44.965  22.081  0.00  0.00     0.057 C 
BRANCH   5  23
HETATM   23  C   UNK     0       5.283  44.770  19.339  0.00  0.00     0.084 C 
HETATM   24  C   UNK     0       4.838  45.785  20.406  0.00  0.00     0.049 C 
BRANCH  23  25
HETATM   25  O   UNK     0       4.838  45.263  18.068  0.00  0.00    -0.387 OA
HETATM   26  H   UNK     0       5.612  45.541  17.550  0.00  0.00     0.210 HD
ENDBRANCH  23  25
BRANCH  23  27
HETATM   27  C   UNK     0       4.615  43.390  19.584  0.00  0.00     0.152 C 
BRANCH  27  28
HETATM   28  O   UNK     0       3.802  43.044  18.458  0.00  0.00    -0.393 OA
HETATM   29  H   UNK     0       4.312  42.421  17.911  0.00  0.00     0.210 HD
ENDBRANCH  27  28
BRANCH  27  30
HETATM   30  C   UNK     0       3.741  43.325  20.851  0.00  0.00     0.037 C 
BRANCH  30  31
HETATM   31  C   UNK     0       3.763  41.927  21.497  0.00  0.00     0.040 C 
BRANCH  31  32
HETATM   32  C   UNK     0       2.512  41.591  22.336  0.00  0.00     0.051 C 
HETATM   33  C   UNK     0       2.200  40.096  22.213  0.00  0.00     0.045 C 
HETATM   34  C   UNK     0       2.675  41.970  23.810  0.00  0.00     0.045 C 
BRANCH  32  35
HETATM   35  O   UNK     0       1.403  42.316  21.802  0.00  0.00    -0.391 OA
HETATM   36  H   UNK     0       1.710  42.791  21.011  0.00  0.00     0.210 HD
ENDBRANCH  32  35
ENDBRANCH  31  32
ENDBRANCH  30  31
ENDBRANCH  27  30
ENDBRANCH  23  27
ENDBRANCH   5  23
BRANCH  19  37
HETATM   37  O   UNK     0      13.797  40.705  23.550  0.00  0.00    -0.393 OA
HETATM   38  H   UNK     0      13.359  41.255  24.221  0.00  0.00     0.210 HD
ENDBRANCH  19  37
BRANCH  20  39
HETATM   39  O   UNK     0      12.113  38.825  22.415  0.00  0.00    -0.393 OA
HETATM   40  H   UNK     0      12.928  38.601  21.933  0.00  0.00     0.210 HD
ENDBRANCH  20  39
ENDBRANCH   1   3
TORSDOF 11
ENDMDL
MODEL 3
REMARK VINA RESULT:      -8.2      2.640      8.240
REMARK  11 active torsions:
REMARK  status: ('A' for Active; 'I' for Inactive)
REMARK    1  A    between atoms: O_1  and  C_9 
REMARK    2  A    between atoms: O_2  and  C_19 
REMARK    3  A    between atoms: O_3  and  C_26 
REMARK    4  A    between atoms: O_4  and  C_27 
REMARK    5  A    between atoms: O_6  and  C_28 
REMARK    6  A    between atoms: O_7  and  C_32 
REMARK    7  A    between atoms: C_10  and  C_19 
REMARK    8  A    between atoms: C_19  and  C_27 
REMARK    9  A    between atoms: C_27  and  C_30 
REMARK   10  A    between atoms: C_30  and  C_31 
REMARK   11  A    between atoms: C_31  and  C_32 
ROOT
HETATM    1  O   UNK     0       7.583  40.543  23.245  0.00  0.00    -0.384 OA
HETATM    2  H   UNK     0       6.731  40.555  22.777  0.00  0.00     0.211 HD
ENDROOT
BRANCH   1   3
HETATM    3  C   UNK     0       7.848  41.884  23.717  0.00  0.00     0.089 C 
HETATM    4  C   UNK     0       8.868  42.570  22.773  0.00  0.00    -0.002 C 
HETATM    5  C   UNK     0      10.117  41.680  23.000  0.00  0.00     0.034 C 
HETATM    6  C   UNK     0       8.318  42.517  21.336  0.00  0.00     0.014 C 
HETATM    7  C   UNK     0       9.160  44.044  23.166  0.00  0.00     0.019 C 
HETATM    8  C   UNK     0      10.096  41.399  24.520  0.00  0.00     0.012 C 
HETATM    9  C   UNK     0       8.664  41.712  25.008  0.00  0.00     0.044 C 
HETATM   10  C   UNK     0       6.957  43.225  21.239  0.00  0.00     0.011 C 
HETATM   11  C   UNK     0       5.905  42.789  22.306  0.00  0.00     0.027 C 
HETATM   12  C   UNK     0       4.627  43.716  22.304  0.00  0.00    -0.023 C 
HETATM   13  C   UNK     0       6.509  42.591  23.705  0.00  0.00    -0.037 C 
HETATM   14  C   UNK     0       3.710  43.362  23.508  0.00  0.00     0.071 C 
HETATM   15  C   UNK     0       3.804  43.555  20.993  0.00  0.00     0.044 C 
HETATM   16  C   UNK     0       5.010  45.217  22.416  0.00  0.00     0.016 C 
HETATM   17  C   UNK     0       3.019  41.993  23.372  0.00  0.00     0.047 C 
HETATM   18  C   UNK     0       4.477  43.413  24.815  0.00  0.00     0.154 C 
HETATM   19  C   UNK     0       2.227  41.886  22.070  0.00  0.00     0.147 C 
HETATM   20  C   UNK     0       3.116  42.192  20.863  0.00  0.00     0.147 C 
HETATM   21  O   UNK     0       3.948  43.784  25.861  0.00  0.00    -0.293 OA
HETATM   22  C   UNK     0       5.874  42.923  24.839  0.00  0.00     0.057 C 
BRANCH   5  23
HETATM   23  C   UNK     0      11.450  42.243  22.522  0.00  0.00     0.084 C 
HETATM   24  C   UNK     0      11.599  43.700  22.992  0.00  0.00     0.049 C 
BRANCH  23  25
HETATM   25  O   UNK     0      12.505  41.487  23.131  0.00  0.00    -0.387 OA
HETATM   26  H   UNK     0      12.335  40.540  22.991  0.00  0.00     0.210 HD
ENDBRANCH  23  25
BRANCH  23  27
HETATM   27  C   UNK     0      11.610  42.145  20.981  0.00  0.00     0.152 C 
BRANCH  27  28
HETATM   28  O   UNK     0      12.782  41.386  20.668  0.00  0.00    -0.393 OA
HETATM   29  H   UNK     0      12.989  41.543  19.730  0.00  0.00     0.210 HD
ENDBRANCH  27  28
BRANCH  27  30
HETATM   30  C   UNK     0      11.710  43.507  20.267  0.00  0.00     0.037 C 
BRANCH  30  31
HETATM   31  C   UNK     0      10.807  43.573  19.021  0.00  0.00     0.040 C 
BRANCH  31  32
HETATM   32  C   UNK     0      10.076  44.918  18.831  0.00  0.00     0.051 C 
HETATM   33  C   UNK     0       8.690  44.668  18.226  0.00  0.00     0.045 C 
HETATM   34  C   UNK     0       9.939  45.701  20.139  0.00  0.00     0.045 C 
BRANCH  32  35
HETATM   35  O   UNK     0      10.823  45.709  17.905  0.00  0.00    -0.391 OA
HETATM   36  H   UNK     0      10.891  45.211  17.074  0.00  0.00     0.210 HD
ENDBRANCH  32  35
ENDBRANCH  31  32
ENDBRANCH  30  31
ENDBRANCH  27  30
ENDBRANCH  23  27
ENDBRANCH   5  23
BRANCH  19  37
HETATM   37  O   UNK     0       1.142  42.815  22.104  0.00  0.00    -0.393 OA
HETATM   38  H   UNK     0       0.350  42.331  22.392  0.00  0.00     0.210 HD
ENDBRANCH  19  37
BRANCH  20  39
HETATM   39  O   UNK     0       2.317  42.170  19.682  0.00  0.00    -0.393 OA
HETATM   40  H   UNK     0       1.386  42.228  19.958  0.00  0.00     0.210 HD
ENDBRANCH  20  39
ENDBRANCH   1   3
TORSDOF 11
ENDMDL
MODEL 4
REMARK VINA RESULT:      -8.1      3.341      6.424
REMARK  11 active torsions:
REMARK  status: ('A' for Active; 'I' for Inactive)
REMARK    1  A    between atoms: O_1  and  C_9 
REMARK    2  A    between atoms: O_2  and  C_19 
REMARK    3  A    between atoms: O_3  and  C_26 
REMARK    4  A    between atoms: O_4  and  C_27 
REMARK    5  A    between atoms: O_6  and  C_28 
REMARK    6  A    between atoms: O_7  and  C_32 
REMARK    7  A    between atoms: C_10  and  C_19 
REMARK    8  A    between atoms: C_19  and  C_27 
REMARK    9  A    between atoms: C_27  and  C_30 
REMARK   10  A    between atoms: C_30  and  C_31 
REMARK   11  A    between atoms: C_31  and  C_32 
ROOT
HETATM    1  O   UNK     0       9.201  45.832  23.034  0.00  0.00    -0.384 OA
HETATM    2  H   UNK     0       8.867  46.581  22.511  0.00  0.00     0.211 HD
ENDROOT
BRANCH   1   3
HETATM    3  C   UNK     0       8.770  44.613  22.385  0.00  0.00     0.089 C 
HETATM    4  C   UNK     0       8.571  44.879  20.871  0.00  0.00    -0.002 C 
HETATM    5  C   UNK     0       7.400  45.894  20.906  0.00  0.00     0.034 C 
HETATM    6  C   UNK     0       9.879  45.455  20.298  0.00  0.00     0.014 C 
HETATM    7  C   UNK     0       8.173  43.603  20.080  0.00  0.00     0.019 C 
HETATM    8  C   UNK     0       6.478  45.352  22.022  0.00  0.00     0.012 C 
HETATM    9  C   UNK     0       7.330  44.379  22.866  0.00  0.00     0.044 C 
HETATM   10  C   UNK     0      11.050  44.482  20.509  0.00  0.00     0.011 C 
HETATM   11  C   UNK     0      11.212  43.945  21.965  0.00  0.00     0.027 C 
HETATM   12  C   UNK     0      12.271  42.778  22.061  0.00  0.00    -0.023 C 
HETATM   13  C   UNK     0       9.872  43.606  22.637  0.00  0.00    -0.037 C 
HETATM   14  C   UNK     0      12.246  42.152  23.484  0.00  0.00     0.071 C 
HETATM   15  C   UNK     0      13.712  43.285  21.770  0.00  0.00     0.044 C 
HETATM   16  C   UNK     0      11.972  41.651  21.035  0.00  0.00     0.016 C 
HETATM   17  C   UNK     0      12.809  43.081  24.574  0.00  0.00     0.047 C 
HETATM   18  C   UNK     0      10.845  41.715  23.866  0.00  0.00     0.154 C 
HETATM   19  C   UNK     0      14.224  43.552  24.240  0.00  0.00     0.147 C 
HETATM   20  C   UNK     0      14.270  44.208  22.859  0.00  0.00     0.147 C 
HETATM   21  O   UNK     0      10.646  40.718  24.559  0.00  0.00    -0.293 OA
HETATM   22  C   UNK     0       9.701  42.562  23.461  0.00  0.00     0.057 C 
BRANCH   5  23
HETATM   23  C   UNK     0       6.663  46.130  19.594  0.00  0.00     0.084 C 
HETATM   24  C   UNK     0       5.494  47.103  19.820  0.00  0.00     0.049 C 
BRANCH  23  25
HETATM   25  O   UNK     0       7.567  46.754  18.672  0.00  0.00    -0.387 OA
HETATM   26  H   UNK     0       7.883  46.087  18.040  0.00  0.00     0.210 HD
ENDBRANCH  23  25
BRANCH  23  27
HETATM   27  C   UNK     0       6.160  44.806  18.957  0.00  0.00     0.152 C 
BRANCH  27  28
HETATM   28  O   UNK     0       6.295  44.877  17.534  0.00  0.00    -0.393 OA
HETATM   29  H   UNK     0       5.548  45.401  17.196  0.00  0.00     0.210 HD
ENDBRANCH  27  28
BRANCH  27  30
HETATM   30  C   UNK     0       4.694  44.463  19.287  0.00  0.00     0.037 C 
BRANCH  30  31
HETATM   31  C   UNK     0       4.542  43.021  19.808  0.00  0.00     0.040 C 
BRANCH  31  32
HETATM   32  C   UNK     0       3.490  42.852  20.924  0.00  0.00     0.051 C 
HETATM   33  C   UNK     0       3.243  44.203  21.605  0.00  0.00     0.045 C 
HETATM   34  C   UNK     0       2.170  42.281  20.404  0.00  0.00     0.045 C 
BRANCH  32  35
HETATM   35  O   UNK     0       4.016  41.956  21.905  0.00  0.00    -0.391 OA
HETATM   36  H   UNK     0       4.977  41.899  21.774  0.00  0.00     0.210 HD
ENDBRANCH  32  35
ENDBRANCH  31  32
ENDBRANCH  30  31
ENDBRANCH  27  30
ENDBRANCH  23  27
ENDBRANCH   5  23
BRANCH  19  37
HETATM   37  O   UNK     0      15.108  42.430  24.258  0.00  0.00    -0.393 OA
HETATM   38  H   UNK     0      14.571  41.631  24.123  0.00  0.00     0.210 HD
ENDBRANCH  19  37
BRANCH  20  39
HETATM   39  O   UNK     0      15.620  44.549  22.552  0.00  0.00    -0.393 OA
HETATM   40  H   UNK     0      16.113  43.717  22.442  0.00  0.00     0.210 HD
ENDBRANCH  20  39
ENDBRANCH   1   3
TORSDOF 11
ENDMDL
MODEL 5
REMARK VINA RESULT:      -8.1      3.628      5.917
REMARK  11 active torsions:
REMARK  status: ('A' for Active; 'I' for Inactive)
REMARK    1  A    between atoms: O_1  and  C_9 
REMARK    2  A    between atoms: O_2  and  C_19 
REMARK    3  A    between atoms: O_3  and  C_26 
REMARK    4  A    between atoms: O_4  and  C_27 
REMARK    5  A    between atoms: O_6  and  C_28 
REMARK    6  A    between atoms: O_7  and  C_32 
REMARK    7  A    between atoms: C_10  and  C_19 
REMARK    8  A    between atoms: C_19  and  C_27 
REMARK    9  A    between atoms: C_27  and  C_30 
REMARK   10  A    between atoms: C_30  and  C_31 
REMARK   11  A    between atoms: C_31  and  C_32 
ROOT
HETATM    1  O   UNK     0       7.404  43.316  25.119  0.00  0.00    -0.384 OA
HETATM    2  H   UNK     0       8.019  43.277  24.365  0.00  0.00     0.211 HD
ENDROOT
BRANCH   1   3
HETATM    3  C   UNK     0       6.396  42.299  24.918  0.00  0.00     0.089 C 
HETATM    4  C   UNK     0       5.271  42.476  25.971  0.00  0.00    -0.002 C 
HETATM    5  C   UNK     0       6.051  42.187  27.279  0.00  0.00     0.034 C 
HETATM    6  C   UNK     0       4.729  43.913  25.872  0.00  0.00     0.014 C 
HETATM    7  C   UNK     0       4.106  41.465  25.787  0.00  0.00     0.019 C 
HETATM    8  C   UNK     0       6.979  41.011  26.901  0.00  0.00     0.012 C 
HETATM    9  C   UNK     0       7.048  40.980  25.358  0.00  0.00     0.044 C 
HETATM   10  C   UNK     0       4.179  44.200  24.466  0.00  0.00     0.011 C 
HETATM   11  C   UNK     0       5.139  43.835  23.291  0.00  0.00     0.027 C 
HETATM   12  C   UNK     0       4.428  43.927  21.884  0.00  0.00    -0.023 C 
HETATM   13  C   UNK     0       5.882  42.508  23.510  0.00  0.00    -0.037 C 
HETATM   14  C   UNK     0       5.364  43.364  20.777  0.00  0.00     0.071 C 
HETATM   15  C   UNK     0       4.064  45.395  21.521  0.00  0.00     0.044 C 
HETATM   16  C   UNK     0       3.107  43.112  21.857  0.00  0.00     0.016 C 
HETATM   17  C   UNK     0       6.585  44.255  20.492  0.00  0.00     0.047 C 
HETATM   18  C   UNK     0       5.830  41.961  21.115  0.00  0.00     0.154 C 
HETATM   19  C   UNK     0       6.173  45.685  20.144  0.00  0.00     0.147 C 
HETATM   20  C   UNK     0       5.283  46.279  21.236  0.00  0.00     0.147 C 
HETATM   21  O   UNK     0       6.013  41.113  20.242  0.00  0.00    -0.293 OA
HETATM   22  C   UNK     0       6.149  41.638  22.523  0.00  0.00     0.057 C 
BRANCH   5  23
HETATM   23  C   UNK     0       5.215  41.904  28.521  0.00  0.00     0.084 C 
HETATM   24  C   UNK     0       5.321  40.416  28.892  0.00  0.00     0.049 C 
BRANCH  23  25
HETATM   25  O   UNK     0       5.759  42.657  29.614  0.00  0.00    -0.387 OA
HETATM   26  H   UNK     0       6.577  43.092  29.321  0.00  0.00     0.210 HD
ENDBRANCH  23  25
BRANCH  23  27
HETATM   27  C   UNK     0       3.730  42.320  28.338  0.00  0.00     0.152 C 
BRANCH  27  28
HETATM   28  O   UNK     0       3.507  43.590  28.961  0.00  0.00    -0.393 OA
HETATM   29  H   UNK     0       3.885  43.544  29.857  0.00  0.00     0.210 HD
ENDBRANCH  27  28
BRANCH  27  30
HETATM   30  C   UNK     0       2.716  41.314  28.913  0.00  0.00     0.037 C 
BRANCH  30  31
HETATM   31  C   UNK     0       2.009  41.859  30.168  0.00  0.00     0.040 C 
BRANCH  31  32
HETATM   32  C   UNK     0       2.598  41.357  31.503  0.00  0.00     0.051 C 
HETATM   33  C   UNK     0       1.630  41.682  32.645  0.00  0.00     0.045 C 
HETATM   34  C   UNK     0       2.898  39.857  31.485  0.00  0.00     0.045 C 
BRANCH  32  35
HETATM   35  O   UNK     0       3.818  42.060  31.748  0.00  0.00    -0.391 OA
HETATM   36  H   UNK     0       3.682  42.633  32.521  0.00  0.00     0.210 HD
ENDBRANCH  32  35
ENDBRANCH  31  32
ENDBRANCH  30  31
ENDBRANCH  27  30
ENDBRANCH  23  27
ENDBRANCH   5  23
BRANCH  19  37
HETATM   37  O   UNK     0       5.460  45.678  18.906  0.00  0.00    -0.393 OA
HETATM   38  H   UNK     0       5.345  46.603  18.629  0.00  0.00     0.210 HD
ENDBRANCH  19  37
BRANCH  20  39
HETATM   39  O   UNK     0       4.849  47.574  20.828  0.00  0.00    -0.393 OA
HETATM   40  H   UNK     0       4.379  47.975  21.579  0.00  0.00     0.210 HD
ENDBRANCH  20  39
ENDBRANCH   1   3
TORSDOF 11
ENDMDL
MODEL 6
REMARK VINA RESULT:      -7.9      3.133      9.143
REMARK  11 active torsions:
REMARK  status: ('A' for Active; 'I' for Inactive)
REMARK    1  A    between atoms: O_1  and  C_9 
REMARK    2  A    between atoms: O_2  and  C_19 
REMARK    3  A    between atoms: O_3  and  C_26 
REMARK    4  A    between atoms: O_4  and  C_27 
REMARK    5  A    between atoms: O_6  and  C_28 
REMARK    6  A    between atoms: O_7  and  C_32 
REMARK    7  A    between atoms: C_10  and  C_19 
REMARK    8  A    between atoms: C_19  and  C_27 
REMARK    9  A    between atoms: C_27  and  C_30 
REMARK   10  A    between atoms: C_30  and  C_31 
REMARK   11  A    between atoms: C_31  and  C_32 
ROOT
HETATM    1  O   UNK     0       7.806  40.866  22.654  0.00  0.00    -0.384 OA
HETATM    2  H   UNK     0       7.982  40.255  23.390  0.00  0.00     0.211 HD
ENDROOT
BRANCH   1   3
HETATM    3  C   UNK     0       8.024  42.212  23.135  0.00  0.00     0.089 C 
HETATM    4  C   UNK     0       8.925  42.978  22.131  0.00  0.00    -0.002 C 
HETATM    5  C   UNK     0      10.239  42.164  22.242  0.00  0.00     0.034 C 
HETATM    6  C   UNK     0       8.269  42.916  20.739  0.00  0.00     0.014 C 
HETATM    7  C   UNK     0       9.156  44.459  22.533  0.00  0.00     0.019 C 
HETATM    8  C   UNK     0      10.353  41.855  23.753  0.00  0.00     0.012 C 
HETATM    9  C   UNK     0       8.947  42.069  24.355  0.00  0.00     0.044 C 
HETATM   10  C   UNK     0       6.865  43.540  20.763  0.00  0.00     0.011 C 
HETATM   11  C   UNK     0       5.927  43.020  21.896  0.00  0.00     0.027 C 
HETATM   12  C   UNK     0       4.599  43.866  22.013  0.00  0.00    -0.023 C 
HETATM   13  C   UNK     0       6.649  42.836  23.240  0.00  0.00    -0.037 C 
HETATM   14  C   UNK     0       3.801  43.433  23.275  0.00  0.00     0.071 C 
HETATM   15  C   UNK     0       3.688  43.677  20.766  0.00  0.00     0.044 C 
HETATM   16  C   UNK     0       4.897  45.385  22.130  0.00  0.00     0.016 C 
HETATM   17  C   UNK     0       3.186  42.028  23.162  0.00  0.00     0.047 C 
HETATM   18  C   UNK     0       4.663  43.509  24.521  0.00  0.00     0.154 C 
HETATM   19  C   UNK     0       2.303  41.895  21.921  0.00  0.00     0.147 C 
HETATM   20  C   UNK     0       3.075  42.277  20.658  0.00  0.00     0.147 C 
HETATM   21  O   UNK     0       4.194  43.828  25.612  0.00  0.00    -0.293 OA
HETATM   22  C   UNK     0       6.084  43.107  24.427  0.00  0.00     0.057 C 
BRANCH   5  23
HETATM   23  C   UNK     0      11.495  42.816  21.677  0.00  0.00     0.084 C 
HETATM   24  C   UNK     0      12.157  41.875  20.657  0.00  0.00     0.049 C 
BRANCH  23  25
HETATM   25  O   UNK     0      11.110  44.006  20.974  0.00  0.00    -0.387 OA
HETATM   26  H   UNK     0      10.355  43.801  20.398  0.00  0.00     0.210 HD
ENDBRANCH  23  25
BRANCH  23  27
HETATM   27  C   UNK     0      12.501  43.216  22.790  0.00  0.00     0.152 C 
BRANCH  27  28
HETATM   28  O   UNK     0      12.900  44.578  22.609  0.00  0.00    -0.393 OA
HETATM   29  H   UNK     0      12.257  45.135  23.082  0.00  0.00     0.210 HD
ENDBRANCH  27  28
BRANCH  27  30
HETATM   30  C   UNK     0      13.769  42.342  22.840  0.00  0.00     0.037 C 
BRANCH  30  31
HETATM   31  C   UNK     0      15.055  43.187  22.778  0.00  0.00     0.040 C 
BRANCH  31  32
HETATM   32  C   UNK     0      15.845  43.055  21.459  0.00  0.00     0.051 C 
HETATM   33  C   UNK     0      17.240  43.665  21.633  0.00  0.00     0.045 C 
HETATM   34  C   UNK     0      15.966  41.603  20.990  0.00  0.00     0.045 C 
BRANCH  32  35
HETATM   35  O   UNK     0      15.162  43.802  20.450  0.00  0.00    -0.391 OA
HETATM   36  H   UNK     0      14.698  44.537  20.884  0.00  0.00     0.210 HD
ENDBRANCH  32  35
ENDBRANCH  31  32
ENDBRANCH  30  31
ENDBRANCH  27  30
ENDBRANCH  23  27
ENDBRANCH   5  23
BRANCH  19  37
HETATM   37  O   UNK     0       1.170  42.753  22.059  0.00  0.00    -0.393 OA
HETATM   38  H   UNK     0       0.560  42.335  22.689  0.00  0.00     0.210 HD
ENDBRANCH  19  37
BRANCH  20  39
HETATM   39  O   UNK     0       2.191  42.227  19.541  0.00  0.00    -0.393 OA
HETATM   40  H   UNK     0       1.986  41.291  19.372  0.00  0.00     0.210 HD
ENDBRANCH  20  39
ENDBRANCH   1   3
TORSDOF 11
ENDMDL
MODEL 7
REMARK VINA RESULT:      -7.9      2.500      3.274
REMARK  11 active torsions:
REMARK  status: ('A' for Active; 'I' for Inactive)
REMARK    1  A    between atoms: O_1  and  C_9 
REMARK    2  A    between atoms: O_2  and  C_19 
REMARK    3  A    between atoms: O_3  and  C_26 
REMARK    4  A    between atoms: O_4  and  C_27 
REMARK    5  A    between atoms: O_6  and  C_28 
REMARK    6  A    between atoms: O_7  and  C_32 
REMARK    7  A    between atoms: C_10  and  C_19 
REMARK    8  A    between atoms: C_19  and  C_27 
REMARK    9  A    between atoms: C_27  and  C_30 
REMARK   10  A    between atoms: C_30  and  C_31 
REMARK   11  A    between atoms: C_31  and  C_32 
ROOT
HETATM    1  O   UNK     0       5.394  42.656  20.760  0.00  0.00    -0.384 OA
HETATM    2  H   UNK     0       4.459  42.418  20.633  0.00  0.00     0.211 HD
ENDROOT
BRANCH   1   3
HETATM    3  C   UNK     0       5.441  43.828  21.605  0.00  0.00     0.089 C 
HETATM    4  C   UNK     0       5.713  43.396  23.069  0.00  0.00    -0.002 C 
HETATM    5  C   UNK     0       4.430  42.582  23.375  0.00  0.00     0.034 C 
HETATM    6  C   UNK     0       7.005  42.558  23.101  0.00  0.00     0.014 C 
HETATM    7  C   UNK     0       5.849  44.600  24.040  0.00  0.00     0.019 C 
HETATM    8  C   UNK     0       3.306  43.401  22.698  0.00  0.00     0.012 C 
HETATM    9  C   UNK     0       3.994  44.339  21.681  0.00  0.00     0.044 C 
HETATM   10  C   UNK     0       8.198  43.364  22.562  0.00  0.00     0.011 C 
HETATM   11  C   UNK     0       7.962  44.059  21.186  0.00  0.00     0.027 C 
HETATM   12  C   UNK     0       9.126  45.057  20.808  0.00  0.00    -0.023 C 
HETATM   13  C   UNK     0       6.563  44.682  21.056  0.00  0.00    -0.037 C 
HETATM   14  C   UNK     0       8.745  45.863  19.535  0.00  0.00     0.071 C 
HETATM   15  C   UNK     0      10.460  44.304  20.535  0.00  0.00     0.044 C 
HETATM   16  C   UNK     0       9.405  46.069  21.953  0.00  0.00     0.016 C 
HETATM   17  C   UNK     0       8.727  45.014  18.252  0.00  0.00     0.047 C 
HETATM   18  C   UNK     0       7.405  46.553  19.704  0.00  0.00     0.154 C 
HETATM   19  C   UNK     0      10.057  44.295  18.031  0.00  0.00     0.147 C 
HETATM   20  C   UNK     0      10.438  43.461  19.255  0.00  0.00     0.147 C 
HETATM   21  O   UNK     0       7.176  47.652  19.201  0.00  0.00    -0.293 OA
HETATM   22  C   UNK     0       6.325  45.841  20.423  0.00  0.00     0.057 C 
BRANCH   5  23
HETATM   23  C   UNK     0       4.144  42.287  24.842  0.00  0.00     0.084 C 
HETATM   24  C   UNK     0       4.183  43.593  25.654  0.00  0.00     0.049 C 
BRANCH  23  25
HETATM   25  O   UNK     0       2.815  41.758  24.947  0.00  0.00    -0.387 OA
HETATM   26  H   UNK     0       2.734  40.992  24.355  0.00  0.00     0.210 HD
ENDBRANCH  23  25
BRANCH  23  27
HETATM   27  C   UNK     0       5.129  41.243  25.434  0.00  0.00     0.152 C 
BRANCH  27  28
HETATM   28  O   UNK     0       4.476  39.974  25.539  0.00  0.00    -0.393 OA
HETATM   29  H   UNK     0       3.560  40.140  25.824  0.00  0.00     0.210 HD
ENDBRANCH  27  28
BRANCH  27  30
HETATM   30  C   UNK     0       5.689  41.616  26.820  0.00  0.00     0.037 C 
BRANCH  30  31
HETATM   31  C   UNK     0       5.128  40.711  27.932  0.00  0.00     0.040 C 
BRANCH  31  32
HETATM   32  C   UNK     0       3.981  41.339  28.752  0.00  0.00     0.051 C 
HETATM   33  C   UNK     0       3.670  40.453  29.963  0.00  0.00     0.045 C 
HETATM   34  C   UNK     0       4.302  42.761  29.216  0.00  0.00     0.045 C 
BRANCH  32  35
HETATM   35  O   UNK     0       2.813  41.384  27.930  0.00  0.00    -0.391 OA
HETATM   36  H   UNK     0       2.562  40.469  27.717  0.00  0.00     0.210 HD
ENDBRANCH  32  35
ENDBRANCH  31  32
ENDBRANCH  30  31
ENDBRANCH  27  30
ENDBRANCH  23  27
ENDBRANCH   5  23
BRANCH  19  37
HETATM   37  O   UNK     0      11.078  45.263  17.784  0.00  0.00    -0.393 OA
HETATM   38  H   UNK     0      10.879  46.044  18.329  0.00  0.00     0.210 HD
ENDBRANCH  19  37
BRANCH  20  39
HETATM   39  O   UNK     0      11.724  42.884  19.041  0.00  0.00    -0.393 OA
HETATM   40  H   UNK     0      11.627  42.198  18.357  0.00  0.00     0.210 HD
ENDBRANCH  20  39
ENDBRANCH   1   3
TORSDOF 11
ENDMDL
MODEL 8
REMARK VINA RESULT:      -7.8      2.338      3.543
REMARK  11 active torsions:
REMARK  status: ('A' for Active; 'I' for Inactive)
REMARK    1  A    between atoms: O_1  and  C_9 
REMARK    2  A    between atoms: O_2  and  C_19 
REMARK    3  A    between atoms: O_3  and  C_26 
REMARK    4  A    between atoms: O_4  and  C_27 
REMARK    5  A    between atoms: O_6  and  C_28 
REMARK    6  A    between atoms: O_7  and  C_32 
REMARK    7  A    between atoms: C_10  and  C_19 
REMARK    8  A    between atoms: C_19  and  C_27 
REMARK    9  A    between atoms: C_27  and  C_30 
REMARK   10  A    between atoms: C_30  and  C_31 
REMARK   11  A    between atoms: C_31  and  C_32 
ROOT
HETATM    1  O   UNK     0       6.828  41.747  20.475  0.00  0.00    -0.384 OA
HETATM    2  H   UNK     0       7.760  41.636  20.735  0.00  0.00     0.211 HD
ENDROOT
BRANCH   1   3
HETATM    3  C   UNK     0       6.613  43.148  20.191  0.00  0.00     0.089 C 
HETATM    4  C   UNK     0       5.805  43.790  21.348  0.00  0.00    -0.002 C 
HETATM    5  C   UNK     0       4.465  43.020  21.226  0.00  0.00     0.034 C 
HETATM    6  C   UNK     0       6.552  43.534  22.670  0.00  0.00     0.014 C 
HETATM    7  C   UNK     0       5.585  45.316  21.160  0.00  0.00     0.019 C 
HETATM    8  C   UNK     0       4.239  42.915  19.701  0.00  0.00     0.012 C 
HETATM    9  C   UNK     0       5.605  43.183  19.032  0.00  0.00     0.044 C 
HETATM   10  C   UNK     0       7.968  44.131  22.626  0.00  0.00     0.011 C 
HETATM   11  C   UNK     0       8.812  43.749  21.371  0.00  0.00     0.027 C 
HETATM   12  C   UNK     0      10.151  44.580  21.270  0.00  0.00    -0.023 C 
HETATM   13  C   UNK     0       7.994  43.756  20.070  0.00  0.00    -0.037 C 
HETATM   14  C   UNK     0      10.848  44.304  19.908  0.00  0.00     0.071 C 
HETATM   15  C   UNK     0      11.140  44.213  22.414  0.00  0.00     0.044 C 
HETATM   16  C   UNK     0       9.885  46.106  21.374  0.00  0.00     0.016 C 
HETATM   17  C   UNK     0      11.432  42.885  19.793  0.00  0.00     0.047 C 
HETATM   18  C   UNK     0       9.904  44.558  18.748  0.00  0.00     0.154 C 
HETATM   19  C   UNK     0      12.394  42.575  20.939  0.00  0.00     0.147 C 
HETATM   20  C   UNK     0      11.721  42.800  22.294  0.00  0.00     0.147 C 
HETATM   21  O   UNK     0      10.305  45.010  17.677  0.00  0.00    -0.293 OA
HETATM   22  C   UNK     0       8.483  44.171  18.891  0.00  0.00     0.057 C 
BRANCH   5  23
HETATM   23  C   UNK     0       3.269  43.614  21.961  0.00  0.00     0.084 C 
HETATM   24  C   UNK     0       3.399  45.146  22.016  0.00  0.00     0.049 C 
BRANCH  23  25
HETATM   25  O   UNK     0       2.083  43.312  21.214  0.00  0.00    -0.387 OA
HETATM   26  H   UNK     0       1.308  43.602  21.723  0.00  0.00     0.210 HD
ENDBRANCH  23  25
BRANCH  23  27
HETATM   27  C   UNK     0       3.105  43.026  23.389  0.00  0.00     0.152 C 
BRANCH  27  28
HETATM   28  O   UNK     0       3.875  43.797  24.316  0.00  0.00    -0.393 OA
HETATM   29  H   UNK     0       3.485  44.688  24.348  0.00  0.00     0.210 HD
ENDBRANCH  27  28
BRANCH  27  30
HETATM   30  C   UNK     0       3.528  41.550  23.517  0.00  0.00     0.037 C 
BRANCH  30  31
HETATM   31  C   UNK     0       4.325  41.288  24.809  0.00  0.00     0.040 C 
BRANCH  31  32
HETATM   32  C   UNK     0       3.462  40.883  26.022  0.00  0.00     0.051 C 
HETATM   33  C   UNK     0       2.125  40.315  25.533  0.00  0.00     0.045 C 
HETATM   34  C   UNK     0       4.160  39.865  26.926  0.00  0.00     0.045 C 
BRANCH  32  35
HETATM   35  O   UNK     0       3.185  42.056  26.789  0.00  0.00    -0.391 OA
HETATM   36  H   UNK     0       3.555  42.819  26.313  0.00  0.00     0.210 HD
ENDBRANCH  32  35
ENDBRANCH  31  32
ENDBRANCH  30  31
ENDBRANCH  27  30
ENDBRANCH  23  27
ENDBRANCH   5  23
BRANCH  19  37
HETATM   37  O   UNK     0      13.537  43.424  20.834  0.00  0.00    -0.393 OA
HETATM   38  H   UNK     0      14.106  43.066  20.132  0.00  0.00     0.210 HD
ENDBRANCH  19  37
BRANCH  20  39
HETATM   39  O   UNK     0      12.679  42.588  23.328  0.00  0.00    -0.393 OA
HETATM   40  H   UNK     0      13.378  43.256  23.221  0.00  0.00     0.210 HD
ENDBRANCH  20  39
ENDBRANCH   1   3
TORSDOF 11
ENDMDL
MODEL 9
REMARK VINA RESULT:      -7.8      1.982      3.102
REMARK  11 active torsions:
REMARK  status: ('A' for Active; 'I' for Inactive)
REMARK    1  A    between atoms: O_1  and  C_9 
REMARK    2  A    between atoms: O_2  and  C_19 
REMARK    3  A    between atoms: O_3  and  C_26 
REMARK    4  A    between atoms: O_4  and  C_27 
REMARK    5  A    between atoms: O_6  and  C_28 
REMARK    6  A    between atoms: O_7  and  C_32 
REMARK    7  A    between atoms: C_10  and  C_19 
REMARK    8  A    between atoms: C_19  and  C_27 
REMARK    9  A    between atoms: C_27  and  C_30 
REMARK   10  A    between atoms: C_30  and  C_31 
REMARK   11  A    between atoms: C_31  and  C_32 
ROOT
HETATM    1  O   UNK     0       3.496  43.985  23.611  0.00  0.00    -0.384 OA
HETATM    2  H   UNK     0       3.771  44.902  23.437  0.00  0.00     0.211 HD
ENDROOT
BRANCH   1   3
HETATM    3  C   UNK     0       4.656  43.255  24.071  0.00  0.00     0.089 C 
HETATM    4  C   UNK     0       4.392  41.733  23.940  0.00  0.00    -0.002 C 
HETATM    5  C   UNK     0       3.228  41.553  24.948  0.00  0.00     0.034 C 
HETATM    6  C   UNK     0       4.006  41.427  22.481  0.00  0.00     0.014 C 
HETATM    7  C   UNK     0       5.616  40.869  24.349  0.00  0.00     0.019 C 
HETATM    8  C   UNK     0       3.622  42.467  26.131  0.00  0.00     0.012 C 
HETATM    9  C   UNK     0       4.687  43.449  25.595  0.00  0.00     0.044 C 
HETATM   10  C   UNK     0       5.125  41.849  21.515  0.00  0.00     0.011 C 
HETATM   11  C   UNK     0       5.653  43.304  21.707  0.00  0.00     0.027 C 
HETATM   12  C   UNK     0       6.951  43.590  20.854  0.00  0.00    -0.023 C 
HETATM   13  C   UNK     0       5.798  43.704  23.184  0.00  0.00    -0.037 C 
HETATM   14  C   UNK     0       7.544  44.976  21.234  0.00  0.00     0.071 C 
HETATM   15  C   UNK     0       6.647  43.585  19.329  0.00  0.00     0.044 C 
HETATM   16  C   UNK     0       8.045  42.515  21.101  0.00  0.00     0.016 C 
HETATM   17  C   UNK     0       6.680  46.162  20.769  0.00  0.00     0.047 C 
HETATM   18  C   UNK     0       7.782  45.079  22.728  0.00  0.00     0.154 C 
HETATM   19  C   UNK     0       6.409  46.109  19.267  0.00  0.00     0.147 C 
HETATM   20  C   UNK     0       5.789  44.769  18.869  0.00  0.00     0.147 C 
HETATM   21  O   UNK     0       8.731  45.711  23.189  0.00  0.00    -0.293 OA
HETATM   22  C   UNK     0       6.796  44.471  23.649  0.00  0.00     0.057 C 
BRANCH   5  23
HETATM   23  C   UNK     0       2.917  40.126  25.382  0.00  0.00     0.084 C 
HETATM   24  C   UNK     0       4.169  39.488  26.008  0.00  0.00     0.049 C 
BRANCH  23  25
HETATM   25  O   UNK     0       1.907  40.171  26.398  0.00  0.00    -0.387 OA
HETATM   26  H   UNK     0       1.179  40.738  26.093  0.00  0.00     0.210 HD
ENDBRANCH  23  25
BRANCH  23  27
HETATM   27  C   UNK     0       2.386  39.258  24.209  0.00  0.00     0.152 C 
BRANCH  27  28
HETATM   28  O   UNK     0       1.221  39.871  23.648  0.00  0.00    -0.393 OA
HETATM   29  H   UNK     0       1.152  39.572  22.724  0.00  0.00     0.210 HD
ENDBRANCH  27  28
BRANCH  27  30
HETATM   30  C   UNK     0       2.031  37.811  24.603  0.00  0.00     0.037 C 
BRANCH  30  31
HETATM   31  C   UNK     0       1.558  36.983  23.393  0.00  0.00     0.040 C 
BRANCH  31  32
HETATM   32  C   UNK     0       0.031  36.775  23.318  0.00  0.00     0.051 C 
HETATM   33  C   UNK     0      -0.269  35.344  22.861  0.00  0.00     0.045 C 
HETATM   34  C   UNK     0      -0.665  37.053  24.652  0.00  0.00     0.045 C 
BRANCH  32  35
HETATM   35  O   UNK     0      -0.496  37.669  22.336  0.00  0.00    -0.391 OA
HETATM   36  H   UNK     0       0.193  37.820  21.668  0.00  0.00     0.210 HD
ENDBRANCH  32  35
ENDBRANCH  31  32
ENDBRANCH  30  31
ENDBRANCH  27  30
ENDBRANCH  23  27
ENDBRANCH   5  23
BRANCH  19  37
HETATM   37  O   UNK     0       7.640  46.286  18.562  0.00  0.00    -0.393 OA
HETATM   38  H   UNK     0       8.146  46.975  19.024  0.00  0.00     0.210 HD
ENDBRANCH  19  37
BRANCH  20  39
HETATM   39  O   UNK     0       5.638  44.729  17.452  0.00  0.00    -0.393 OA
HETATM   40  H   UNK     0       6.040  45.539  17.093  0.00  0.00     0.210 HD
ENDBRANCH  20  39
ENDBRANCH   1   3
TORSDOF 11
ENDMDL
