MODEL 1
REMARK VINA RESULT:    -8.247      0.000      0.000
REMARK INTER + INTRA:         -11.867
REMARK INTER:                 -12.414
REMARK INTRA:                   0.546
REMARK UNBOUND:                 0.236
REMARK  11 active torsions:
REMARK  status: ('A' for Active; 'I' for Inactive)
REMARK    1  A    between atoms: O_1  and  C_9 
REMARK    2  A    between atoms: O_2  and  C_19 
REMARK    3  A    between atoms: O_3  and  C_26 
REMARK    4  A    between atoms: O_4  and  C_27 
REMARK    5  A    between atoms: O_6  and  C_28 
REMARK    6  A    between atoms: O_7  and  C_32 
REMARK    7  A    between atoms: C_10  and  C_19 
REMARK    8  A    between atoms: C_19  and  C_27 
REMARK    9  A    between atoms: C_27  and  C_30 
REMARK   10  A    between atoms: C_30  and  C_31 
REMARK   11  A    between atoms: C_31  and  C_32 
ROOT
HETATM    1  O   UNK     0       5.045  42.474  20.276  0.00  0.00    -0.384 OA
HETATM    2  H   UNK     0       5.605  41.765  20.637  0.00  0.00     0.211 HD
ENDROOT
BRANCH   1   3
HETATM    3  C   UNK     0       5.021  43.553  21.239  0.00  0.00     0.089 C 
HETATM    4  C   UNK     0       5.212  42.974  22.665  0.00  0.00    -0.002 C 
HETATM    5  C   UNK     0       3.926  42.120  22.805  0.00  0.00     0.034 C 
HETATM    6  C   UNK     0       6.513  42.151  22.690  0.00  0.00     0.014 C 
HETATM    7  C   UNK     0       5.269  44.072  23.761  0.00  0.00     0.019 C 
HETATM    8  C   UNK     0       2.832  42.993  22.149  0.00  0.00     0.012 C 
HETATM    9  C   UNK     0       3.564  44.038  21.278  0.00  0.00     0.044 C 
HETATM   10  C   UNK     0       7.723  43.020  22.311  0.00  0.00     0.011 C 
HETATM   11  C   UNK     0       7.559  43.852  21.002  0.00  0.00     0.027 C 
HETATM   12  C   UNK     0       8.727  44.895  20.802  0.00  0.00    -0.023 C 
HETATM   13  C   UNK     0       6.161  44.471  20.851  0.00  0.00    -0.037 C 
HETATM   14  C   UNK     0       8.411  45.825  19.597  0.00  0.00     0.071 C 
HETATM   15  C   UNK     0      10.087  44.188  20.535  0.00  0.00     0.044 C 
HETATM   16  C   UNK     0       8.919  45.785  22.059  0.00  0.00     0.016 C 
HETATM   17  C   UNK     0       8.484  45.113  18.235  0.00  0.00     0.047 C 
HETATM   18  C   UNK     0       7.051  46.480  19.753  0.00  0.00     0.154 C 
HETATM   19  C   UNK     0       9.836  44.434  18.023  0.00  0.00     0.147 C 
HETATM   20  C   UNK     0      10.156  43.482  19.176  0.00  0.00     0.147 C 
HETATM   21  O   UNK     0       6.835  47.623  19.352  0.00  0.00    -0.293 OA
HETATM   22  C   UNK     0       5.942  45.686  20.327  0.00  0.00     0.057 C 
BRANCH   5  23
HETATM   23  C   UNK     0       3.557  41.671  24.214  0.00  0.00     0.084 C 
HETATM   24  C   UNK     0       4.696  40.824  24.806  0.00  0.00     0.049 C 
BRANCH  23  25
HETATM   25  O   UNK     0       3.416  42.836  25.038  0.00  0.00    -0.387 OA
HETATM   26  H   UNK     0       3.774  42.643  25.920  0.00  0.00     0.210 HD
ENDBRANCH  23  25
BRANCH  23  27
HETATM   27  C   UNK     0       2.216  40.888  24.248  0.00  0.00     0.152 C 
BRANCH  27  28
HETATM   28  O   UNK     0       1.921  40.502  25.594  0.00  0.00    -0.393 OA
HETATM   29  H   UNK     0       1.472  41.253  26.021  0.00  0.00     0.210 HD
ENDBRANCH  27  28
BRANCH  27  30
HETATM   30  C   UNK     0       2.198  39.625  23.366  0.00  0.00     0.037 C 
BRANCH  30  31
HETATM   31  C   UNK     0       1.655  38.399  24.124  0.00  0.00     0.040 C 
BRANCH  31  32
HETATM   32  C   UNK     0       0.503  37.664  23.409  0.00  0.00     0.051 C 
HETATM   33  C   UNK     0       0.816  37.552  21.913  0.00  0.00     0.045 C 
HETATM   34  C   UNK     0       0.242  36.273  23.992  0.00  0.00     0.045 C 
BRANCH  32  35
HETATM   35  O   UNK     0      -0.686  38.445  23.551  0.00  0.00    -0.391 OA
HETATM   36  H   UNK     0      -0.663  39.147  22.880  0.00  0.00     0.210 HD
ENDBRANCH  32  35
ENDBRANCH  31  32
ENDBRANCH  30  31
ENDBRANCH  27  30
ENDBRANCH  23  27
ENDBRANCH   5  23
BRANCH  19  37
HETATM   37  O   UNK     0      10.854  45.434  17.941  0.00  0.00    -0.393 OA
HETATM   38  H   UNK     0      10.710  46.060  18.670  0.00  0.00     0.210 HD
ENDBRANCH  19  37
BRANCH  20  39
HETATM   39  O   UNK     0      11.462  42.943  18.983  0.00  0.00    -0.393 OA
HETATM   40  H   UNK     0      12.099  43.668  19.108  0.00  0.00     0.210 HD
ENDBRANCH  20  39
ENDBRANCH   1   3
TORSDOF 11
ENDMDL
MODEL 2
REMARK VINA RESULT:    -8.171      1.802      8.841
REMARK INTER + INTRA:         -11.756
REMARK INTER:                 -12.321
REMARK INTRA:                   0.565
REMARK UNBOUND:                 0.236
REMARK  11 active torsions:
REMARK  status: ('A' for Active; 'I' for Inactive)
REMARK    1  A    between atoms: O_1  and  C_9 
REMARK    2  A    between atoms: O_2  and  C_19 
REMARK    3  A    between atoms: O_3  and  C_26 
REMARK    4  A    between atoms: O_4  and  C_27 
REMARK    5  A    between atoms: O_6  and  C_28 
REMARK    6  A    between atoms: O_7  and  C_32 
REMARK    7  A    between atoms: C_10  and  C_19 
REMARK    8  A    between atoms: C_19  and  C_27 
REMARK    9  A    between atoms: C_27  and  C_30 
REMARK   10  A    between atoms: C_30  and  C_31 
REMARK   11  A    between atoms: C_31  and  C_32 
ROOT
HETATM    1  O   UNK     0       7.725  42.295  22.073  0.00  0.00    -0.384 OA
HETATM    2  H   UNK     0       7.034  41.675  22.366  0.00  0.00     0.211 HD
ENDROOT
BRANCH   1   3
HETATM    3  C   UNK     0       7.174  43.630  22.130  0.00  0.00     0.089 C 
HETATM    4  C   UNK     0       7.126  44.229  20.700  0.00  0.00    -0.002 C 
HETATM    5  C   UNK     0       8.638  44.301  20.366  0.00  0.00     0.034 C 
HETATM    6  C   UNK     0       6.333  43.270  19.793  0.00  0.00     0.014 C 
HETATM    7  C   UNK     0       6.482  45.641  20.656  0.00  0.00     0.019 C 
HETATM    8  C   UNK     0       9.285  44.763  21.691  0.00  0.00     0.012 C 
HETATM    9  C   UNK     0       8.251  44.492  22.806  0.00  0.00     0.044 C 
HETATM   10  C   UNK     0       4.904  43.065  20.323  0.00  0.00     0.011 C 
HETATM   11  C   UNK     0       4.804  42.690  21.834  0.00  0.00     0.027 C 
HETATM   12  C   UNK     0       3.318  42.732  22.367  0.00  0.00    -0.023 C 
HETATM   13  C   UNK     0       5.787  43.474  22.717  0.00  0.00    -0.037 C 
HETATM   14  C   UNK     0       3.300  42.547  23.910  0.00  0.00     0.071 C 
HETATM   15  C   UNK     0       2.449  41.612  21.726  0.00  0.00     0.044 C 
HETATM   16  C   UNK     0       2.631  44.084  22.037  0.00  0.00     0.016 C 
HETATM   17  C   UNK     0       3.682  41.127  24.364  0.00  0.00     0.047 C 
HETATM   18  C   UNK     0       4.203  43.556  24.594  0.00  0.00     0.154 C 
HETATM   19  C   UNK     0       2.801  40.067  23.705  0.00  0.00     0.147 C 
HETATM   20  C   UNK     0       2.830  40.200  22.182  0.00  0.00     0.147 C 
HETATM   21  O   UNK     0       3.925  44.032  25.693  0.00  0.00    -0.293 OA
HETATM   22  C   UNK     0       5.490  43.907  23.952  0.00  0.00     0.057 C 
BRANCH   5  23
HETATM   23  C   UNK     0       9.032  45.174  19.181  0.00  0.00     0.084 C 
HETATM   24  C   UNK     0       8.179  44.806  17.955  0.00  0.00     0.049 C 
BRANCH  23  25
HETATM   25  O   UNK     0       8.744  46.540  19.508  0.00  0.00    -0.387 OA
HETATM   26  H   UNK     0       7.944  46.569  20.058  0.00  0.00     0.210 HD
ENDBRANCH  23  25
BRANCH  23  27
HETATM   27  C   UNK     0      10.546  45.065  18.849  0.00  0.00     0.152 C 
BRANCH  27  28
HETATM   28  O   UNK     0      10.768  45.457  17.490  0.00  0.00    -0.393 OA
HETATM   29  H   UNK     0      10.385  46.344  17.377  0.00  0.00     0.210 HD
ENDBRANCH  27  28
BRANCH  27  30
HETATM   30  C   UNK     0      11.137  43.656  19.050  0.00  0.00     0.037 C 
BRANCH  30  31
HETATM   31  C   UNK     0      12.677  43.678  19.097  0.00  0.00     0.040 C 
BRANCH  31  32
HETATM   32  C   UNK     0      13.286  43.062  20.374  0.00  0.00     0.051 C 
HETATM   33  C   UNK     0      14.752  43.492  20.500  0.00  0.00     0.045 C 
HETATM   34  C   UNK     0      12.519  43.452  21.638  0.00  0.00     0.045 C 
BRANCH  32  35
HETATM   35  O   UNK     0      13.256  41.639  20.245  0.00  0.00    -0.391 OA
HETATM   36  H   UNK     0      12.681  41.288  20.946  0.00  0.00     0.210 HD
ENDBRANCH  32  35
ENDBRANCH  31  32
ENDBRANCH  30  31
ENDBRANCH  27  30
ENDBRANCH  23  27
ENDBRANCH   5  23
BRANCH  19  37
HETATM   37  O   UNK     0       1.458  40.222  24.166  0.00  0.00    -0.393 OA
HETATM   38  H   UNK     0       1.388  41.101  24.577  0.00  0.00     0.210 HD
ENDBRANCH  19  37
BRANCH  20  39
HETATM   39  O   UNK     0       1.927  39.254  21.616  0.00  0.00    -0.393 OA
HETATM   40  H   UNK     0       2.283  38.366  21.794  0.00  0.00     0.210 HD
ENDBRANCH  20  39
ENDBRANCH   1   3
TORSDOF 11
ENDMDL
MODEL 3
REMARK VINA RESULT:    -7.963      2.796      5.393
REMARK INTER + INTRA:         -11.450
REMARK INTER:                 -11.506
REMARK INTRA:                   0.056
REMARK UNBOUND:                 0.236
REMARK  11 active torsions:
REMARK  status: ('A' for Active; 'I' for Inactive)
REMARK    1  A    between atoms: O_1  and  C_9 
REMARK    2  A    between atoms: O_2  and  C_19 
REMARK    3  A    between atoms: O_3  and  C_26 
REMARK    4  A    between atoms: O_4  and  C_27 
REMARK    5  A    between atoms: O_6  and  C_28 
REMARK    6  A    between atoms: O_7  and  C_32 
REMARK    7  A    between atoms: C_10  and  C_19 
REMARK    8  A    between atoms: C_19  and  C_27 
REMARK    9  A    between atoms: C_27  and  C_30 
REMARK   10  A    between atoms: C_30  and  C_31 
REMARK   11  A    between atoms: C_31  and  C_32 
ROOT
HETATM    1  O   UNK     0       9.515  44.070  19.303  0.00  0.00    -0.384 OA
HETATM    2  H   UNK     0      10.174  44.656  18.891  0.00  0.00     0.211 HD
ENDROOT
BRANCH   1   3
HETATM    3  C   UNK     0       9.056  44.706  20.517  0.00  0.00     0.089 C 
HETATM    4  C   UNK     0       7.571  44.332  20.765  0.00  0.00    -0.002 C 
HETATM    5  C   UNK     0       6.897  44.999  19.538  0.00  0.00     0.034 C 
HETATM    6  C   UNK     0       7.450  42.798  20.786  0.00  0.00     0.014 C 
HETATM    7  C   UNK     0       7.012  44.919  22.090  0.00  0.00     0.019 C 
HETATM    8  C   UNK     0       7.645  46.343  19.393  0.00  0.00     0.012 C 
HETATM    9  C   UNK     0       8.963  46.204  20.187  0.00  0.00     0.044 C 
HETATM   10  C   UNK     0       8.333  42.190  21.887  0.00  0.00     0.011 C 
HETATM   11  C   UNK     0       9.815  42.679  21.895  0.00  0.00     0.027 C 
HETATM   12  C   UNK     0      10.597  42.207  23.183  0.00  0.00    -0.023 C 
HETATM   13  C   UNK     0       9.955  44.183  21.617  0.00  0.00    -0.037 C 
HETATM   14  C   UNK     0      11.996  42.883  23.234  0.00  0.00     0.071 C 
HETATM   15  C   UNK     0      10.795  40.664  23.200  0.00  0.00     0.044 C 
HETATM   16  C   UNK     0       9.834  42.580  24.483  0.00  0.00     0.016 C 
HETATM   17  C   UNK     0      12.967  42.369  22.157  0.00  0.00     0.047 C 
HETATM   18  C   UNK     0      11.879  44.392  23.131  0.00  0.00     0.154 C 
HETATM   19  C   UNK     0      13.124  40.851  22.215  0.00  0.00     0.147 C 
HETATM   20  C   UNK     0      11.765  40.157  22.127  0.00  0.00     0.147 C 
HETATM   21  O   UNK     0      12.648  45.142  23.730  0.00  0.00    -0.293 OA
HETATM   22  C   UNK     0      10.864  44.966  22.219  0.00  0.00     0.057 C 
BRANCH   5  23
HETATM   23  C   UNK     0       5.384  45.169  19.603  0.00  0.00     0.084 C 
HETATM   24  C   UNK     0       5.031  46.358  20.512  0.00  0.00     0.049 C 
BRANCH  23  25
HETATM   25  O   UNK     0       4.907  45.480  18.287  0.00  0.00    -0.387 OA
HETATM   26  H   UNK     0       4.932  44.675  17.744  0.00  0.00     0.210 HD
ENDBRANCH  23  25
BRANCH  23  27
HETATM   27  C   UNK     0       4.667  43.878  20.085  0.00  0.00     0.152 C 
BRANCH  27  28
HETATM   28  O   UNK     0       4.037  43.236  18.972  0.00  0.00    -0.393 OA
HETATM   29  H   UNK     0       3.678  42.389  19.291  0.00  0.00     0.210 HD
ENDBRANCH  27  28
BRANCH  27  30
HETATM   30  C   UNK     0       3.604  44.115  21.174  0.00  0.00     0.037 C 
BRANCH  30  31
HETATM   31  C   UNK     0       3.727  43.104  22.330  0.00  0.00     0.040 C 
BRANCH  31  32
HETATM   32  C   UNK     0       2.579  42.075  22.405  0.00  0.00     0.051 C 
HETATM   33  C   UNK     0       2.903  40.879  21.503  0.00  0.00     0.045 C 
HETATM   34  C   UNK     0       2.314  41.594  23.833  0.00  0.00     0.045 C 
BRANCH  32  35
HETATM   35  O   UNK     0       1.390  42.691  21.906  0.00  0.00    -0.391 OA
HETATM   36  H   UNK     0       1.262  42.395  20.989  0.00  0.00     0.210 HD
ENDBRANCH  32  35
ENDBRANCH  31  32
ENDBRANCH  30  31
ENDBRANCH  27  30
ENDBRANCH  23  27
ENDBRANCH   5  23
BRANCH  19  37
HETATM   37  O   UNK     0      13.757  40.493  23.445  0.00  0.00    -0.393 OA
HETATM   38  H   UNK     0      13.569  39.553  23.609  0.00  0.00     0.210 HD
ENDBRANCH  19  37
BRANCH  20  39
HETATM   39  O   UNK     0      11.951  38.751  22.278  0.00  0.00    -0.393 OA
HETATM   40  H   UNK     0      12.889  38.601  22.485  0.00  0.00     0.210 HD
ENDBRANCH  20  39
ENDBRANCH   1   3
TORSDOF 11
ENDMDL
MODEL 4
REMARK VINA RESULT:    -7.892      3.329      6.406
REMARK INTER + INTRA:         -11.346
REMARK INTER:                 -11.442
REMARK INTRA:                   0.096
REMARK UNBOUND:                 0.236
REMARK  11 active torsions:
REMARK  status: ('A' for Active; 'I' for Inactive)
REMARK    1  A    between atoms: O_1  and  C_9 
REMARK    2  A    between atoms: O_2  and  C_19 
REMARK    3  A    between atoms: O_3  and  C_26 
REMARK    4  A    between atoms: O_4  and  C_27 
REMARK    5  A    between atoms: O_6  and  C_28 
REMARK    6  A    between atoms: O_7  and  C_32 
REMARK    7  A    between atoms: C_10  and  C_19 
REMARK    8  A    between atoms: C_19  and  C_27 
REMARK    9  A    between atoms: C_27  and  C_30 
REMARK   10  A    between atoms: C_30  and  C_31 
REMARK   11  A    between atoms: C_31  and  C_32 
ROOT
HETATM    1  O   UNK     0       8.724  45.791  23.344  0.00  0.00    -0.384 OA
HETATM    2  H   UNK     0       8.193  45.721  24.156  0.00  0.00     0.211 HD
ENDROOT
BRANCH   1   3
HETATM    3  C   UNK     0       8.484  44.604  22.554  0.00  0.00     0.089 C 
HETATM    4  C   UNK     0       8.398  44.993  21.055  0.00  0.00    -0.002 C 
HETATM    5  C   UNK     0       7.130  45.884  21.059  0.00  0.00     0.034 C 
HETATM    6  C   UNK     0       9.686  45.743  20.669  0.00  0.00     0.014 C 
HETATM    7  C   UNK     0       8.209  43.766  20.122  0.00  0.00     0.019 C 
HETATM    8  C   UNK     0       6.170  45.153  22.025  0.00  0.00     0.012 C 
HETATM    9  C   UNK     0       7.038  44.189  22.865  0.00  0.00     0.044 C 
HETATM   10  C   UNK     0      10.927  44.870  20.913  0.00  0.00     0.011 C 
HETATM   11  C   UNK     0      11.010  44.215  22.327  0.00  0.00     0.027 C 
HETATM   12  C   UNK     0      12.171  43.150  22.429  0.00  0.00    -0.023 C 
HETATM   13  C   UNK     0       9.657  43.688  22.828  0.00  0.00    -0.037 C 
HETATM   14  C   UNK     0      12.081  42.392  23.783  0.00  0.00     0.071 C 
HETATM   15  C   UNK     0      13.572  43.818  22.330  0.00  0.00     0.044 C 
HETATM   16  C   UNK     0      12.087  42.103  21.285  0.00  0.00     0.016 C 
HETATM   17  C   UNK     0      12.442  43.262  25.000  0.00  0.00     0.047 C 
HETATM   18  C   UNK     0      10.704  41.789  23.983  0.00  0.00     0.154 C 
HETATM   19  C   UNK     0      13.824  43.896  24.852  0.00  0.00     0.147 C 
HETATM   20  C   UNK     0      13.929  44.682  23.544  0.00  0.00     0.147 C 
HETATM   21  O   UNK     0      10.547  40.716  24.564  0.00  0.00    -0.293 OA
HETATM   22  C   UNK     0       9.520  42.558  23.539  0.00  0.00     0.057 C 
BRANCH   5  23
HETATM   23  C   UNK     0       6.496  46.172  19.703  0.00  0.00     0.084 C 
HETATM   24  C   UNK     0       5.243  47.045  19.889  0.00  0.00     0.049 C 
BRANCH  23  25
HETATM   25  O   UNK     0       7.430  46.926  18.918  0.00  0.00    -0.387 OA
HETATM   26  H   UNK     0       6.960  47.659  18.488  0.00  0.00     0.210 HD
ENDBRANCH  23  25
BRANCH  23  27
HETATM   27  C   UNK     0       6.150  44.872  18.928  0.00  0.00     0.152 C 
BRANCH  27  28
HETATM   28  O   UNK     0       6.491  45.031  17.548  0.00  0.00    -0.393 OA
HETATM   29  H   UNK     0       6.381  44.164  17.119  0.00  0.00     0.210 HD
ENDBRANCH  27  28
BRANCH  27  30
HETATM   30  C   UNK     0       4.668  44.459  19.016  0.00  0.00     0.037 C 
BRANCH  30  31
HETATM   31  C   UNK     0       4.502  43.000  19.481  0.00  0.00     0.040 C 
BRANCH  31  32
HETATM   32  C   UNK     0       3.403  42.789  20.544  0.00  0.00     0.051 C 
HETATM   33  C   UNK     0       3.840  41.693  21.522  0.00  0.00     0.045 C 
HETATM   34  C   UNK     0       3.073  44.071  21.311  0.00  0.00     0.045 C 
BRANCH  32  35
HETATM   35  O   UNK     0       2.219  42.339  19.882  0.00  0.00    -0.391 OA
HETATM   36  H   UNK     0       1.454  42.645  20.398  0.00  0.00     0.210 HD
ENDBRANCH  32  35
ENDBRANCH  31  32
ENDBRANCH  30  31
ENDBRANCH  27  30
ENDBRANCH  23  27
ENDBRANCH   5  23
BRANCH  19  37
HETATM   37  O   UNK     0      14.815  42.867  24.863  0.00  0.00    -0.393 OA
HETATM   38  H   UNK     0      15.683  43.296  24.938  0.00  0.00     0.210 HD
ENDBRANCH  19  37
BRANCH  20  39
HETATM   39  O   UNK     0      15.258  45.177  23.406  0.00  0.00    -0.393 OA
HETATM   40  H   UNK     0      15.216  46.148  23.456  0.00  0.00     0.210 HD
ENDBRANCH  20  39
ENDBRANCH   1   3
TORSDOF 11
ENDMDL
MODEL 5
REMARK VINA RESULT:    -7.868      3.233      5.323
REMARK INTER + INTRA:         -11.311
REMARK INTER:                 -11.531
REMARK INTRA:                   0.220
REMARK UNBOUND:                 0.236
REMARK  11 active torsions:
REMARK  status: ('A' for Active; 'I' for Inactive)
REMARK    1  A    between atoms: O_1  and  C_9 
REMARK    2  A    between atoms: O_2  and  C_19 
REMARK    3  A    between atoms: O_3  and  C_26 
REMARK    4  A    between atoms: O_4  and  C_27 
REMARK    5  A    between atoms: O_6  and  C_28 
REMARK    6  A    between atoms: O_7  and  C_32 
REMARK    7  A    between atoms: C_10  and  C_19 
REMARK    8  A    between atoms: C_19  and  C_27 
REMARK    9  A    between atoms: C_27  and  C_30 
REMARK   10  A    between atoms: C_30  and  C_31 
REMARK   11  A    between atoms: C_31  and  C_32 
ROOT
HETATM    1  O   UNK     0       6.474  41.205  23.316  0.00  0.00    -0.384 OA
HETATM    2  H   UNK     0       6.822  40.534  23.929  0.00  0.00     0.211 HD
ENDROOT
BRANCH   1   3
HETATM    3  C   UNK     0       5.216  41.680  23.848  0.00  0.00     0.089 C 
HETATM    4  C   UNK     0       5.486  42.584  25.079  0.00  0.00    -0.002 C 
HETATM    5  C   UNK     0       6.115  41.560  26.058  0.00  0.00     0.034 C 
HETATM    6  C   UNK     0       6.445  43.712  24.656  0.00  0.00     0.014 C 
HETATM    7  C   UNK     0       4.190  43.197  25.676  0.00  0.00     0.019 C 
HETATM    8  C   UNK     0       5.274  40.281  25.842  0.00  0.00     0.012 C 
HETATM    9  C   UNK     0       4.550  40.452  24.488  0.00  0.00     0.044 C 
HETATM   10  C   UNK     0       5.845  44.548  23.514  0.00  0.00     0.011 C 
HETATM   11  C   UNK     0       5.308  43.725  22.302  0.00  0.00     0.027 C 
HETATM   12  C   UNK     0       4.494  44.617  21.284  0.00  0.00    -0.023 C 
HETATM   13  C   UNK     0       4.561  42.449  22.721  0.00  0.00    -0.037 C 
HETATM   14  C   UNK     0       3.819  43.718  20.210  0.00  0.00     0.071 C 
HETATM   15  C   UNK     0       5.413  45.644  20.561  0.00  0.00     0.044 C 
HETATM   16  C   UNK     0       3.381  45.430  21.999  0.00  0.00     0.016 C 
HETATM   17  C   UNK     0       4.817  43.077  19.229  0.00  0.00     0.047 C 
HETATM   18  C   UNK     0       2.976  42.635  20.854  0.00  0.00     0.154 C 
HETATM   19  C   UNK     0       5.695  44.126  18.549  0.00  0.00     0.147 C 
HETATM   20  C   UNK     0       6.403  45.001  19.584  0.00  0.00     0.147 C 
HETATM   21  O   UNK     0       1.931  42.238  20.340  0.00  0.00    -0.293 OA
HETATM   22  C   UNK     0       3.473  41.986  22.088  0.00  0.00     0.057 C 
BRANCH   5  23
HETATM   23  C   UNK     0       6.191  41.976  27.522  0.00  0.00     0.084 C 
HETATM   24  C   UNK     0       6.914  40.890  28.336  0.00  0.00     0.049 C 
BRANCH  23  25
HETATM   25  O   UNK     0       6.975  43.173  27.613  0.00  0.00    -0.387 OA
HETATM   26  H   UNK     0       7.480  43.282  26.790  0.00  0.00     0.210 HD
ENDBRANCH  23  25
BRANCH  23  27
HETATM   27  C   UNK     0       4.789  42.269  28.123  0.00  0.00     0.152 C 
BRANCH  27  28
HETATM   28  O   UNK     0       4.884  43.350  29.056  0.00  0.00    -0.393 OA
HETATM   29  H   UNK     0       4.812  44.178  28.550  0.00  0.00     0.210 HD
ENDBRANCH  27  28
BRANCH  27  30
HETATM   30  C   UNK     0       4.143  41.067  28.838  0.00  0.00     0.037 C 
BRANCH  30  31
HETATM   31  C   UNK     0       2.625  41.250  29.019  0.00  0.00     0.040 C 
BRANCH  31  32
HETATM   32  C   UNK     0       2.211  41.853  30.378  0.00  0.00     0.051 C 
HETATM   33  C   UNK     0       0.766  41.451  30.697  0.00  0.00     0.045 C 
HETATM   34  C   UNK     0       3.136  41.421  31.517  0.00  0.00     0.045 C 
BRANCH  32  35
HETATM   35  O   UNK     0       2.256  43.277  30.270  0.00  0.00    -0.391 OA
HETATM   36  H   UNK     0       2.159  43.647  31.164  0.00  0.00     0.210 HD
ENDBRANCH  32  35
ENDBRANCH  31  32
ENDBRANCH  30  31
ENDBRANCH  27  30
ENDBRANCH  23  27
ENDBRANCH   5  23
BRANCH  19  37
HETATM   37  O   UNK     0       4.878  44.950  17.715  0.00  0.00    -0.393 OA
HETATM   38  H   UNK     0       4.514  44.386  17.012  0.00  0.00     0.210 HD
ENDBRANCH  19  37
BRANCH  20  39
HETATM   39  O   UNK     0       7.135  46.020  18.907  0.00  0.00    -0.393 OA
HETATM   40  H   UNK     0       7.418  45.656  18.050  0.00  0.00     0.210 HD
ENDBRANCH  20  39
ENDBRANCH   1   3
TORSDOF 11
ENDMDL
MODEL 6
REMARK VINA RESULT:    -7.818      3.409      8.019
REMARK INTER + INTRA:         -11.237
REMARK INTER:                 -11.478
REMARK INTRA:                   0.241
REMARK UNBOUND:                 0.236
REMARK  11 active torsions:
REMARK  status: ('A' for Active; 'I' for Inactive)
REMARK    1  A    between atoms: O_1  and  C_9 
REMARK    2  A    between atoms: O_2  and  C_19 
REMARK    3  A    between atoms: O_3  and  C_26 
REMARK    4  A    between atoms: O_4  and  C_27 
REMARK    5  A    between atoms: O_6  and  C_28 
REMARK    6  A    between atoms: O_7  and  C_32 
REMARK    7  A    between atoms: C_10  and  C_19 
REMARK    8  A    between atoms: C_19  and  C_27 
REMARK    9  A    between atoms: C_27  and  C_30 
REMARK   10  A    between atoms: C_30  and  C_31 
REMARK   11  A    between atoms: C_31  and  C_32 
ROOT
HETATM    1  O   UNK     0       5.806  45.657  24.032  0.00  0.00    -0.384 OA
HETATM    2  H   UNK     0       6.742  45.856  24.208  0.00  0.00     0.211 HD
ENDROOT
BRANCH   1   3
HETATM    3  C   UNK     0       5.754  44.468  23.211  0.00  0.00     0.089 C 
HETATM    4  C   UNK     0       6.529  44.719  21.892  0.00  0.00    -0.002 C 
HETATM    5  C   UNK     0       5.661  45.834  21.254  0.00  0.00     0.034 C 
HETATM    6  C   UNK     0       7.960  45.168  22.242  0.00  0.00     0.014 C 
HETATM    7  C   UNK     0       6.584  43.467  20.975  0.00  0.00     0.019 C 
HETATM    8  C   UNK     0       4.212  45.397  21.570  0.00  0.00     0.012 C 
HETATM    9  C   UNK     0       4.301  44.370  22.720  0.00  0.00     0.044 C 
HETATM   10  C   UNK     0       8.683  44.100  23.079  0.00  0.00     0.011 C 
HETATM   11  C   UNK     0       7.892  43.581  24.319  0.00  0.00     0.027 C 
HETATM   12  C   UNK     0       8.579  42.327  24.990  0.00  0.00    -0.023 C 
HETATM   13  C   UNK     0       6.395  43.374  24.038  0.00  0.00    -0.037 C 
HETATM   14  C   UNK     0       7.652  41.735  26.088  0.00  0.00     0.071 C 
HETATM   15  C   UNK     0       9.940  42.701  25.643  0.00  0.00     0.044 C 
HETATM   16  C   UNK     0       8.867  41.210  23.950  0.00  0.00     0.016 C 
HETATM   17  C   UNK     0       7.519  42.634  27.330  0.00  0.00     0.047 C 
HETATM   18  C   UNK     0       6.273  41.430  25.535  0.00  0.00     0.154 C 
HETATM   19  C   UNK     0       8.882  42.973  27.931  0.00  0.00     0.147 C 
HETATM   20  C   UNK     0       9.804  43.594  26.881  0.00  0.00     0.147 C 
HETATM   21  O   UNK     0       5.616  40.469  25.931  0.00  0.00    -0.293 OA
HETATM   22  C   UNK     0       5.677  42.366  24.555  0.00  0.00     0.057 C 
BRANCH   5  23
HETATM   23  C   UNK     0       5.885  46.106  19.771  0.00  0.00     0.084 C 
HETATM   24  C   UNK     0       5.238  44.991  18.933  0.00  0.00     0.049 C 
BRANCH  23  25
HETATM   25  O   UNK     0       5.227  47.334  19.432  0.00  0.00    -0.387 OA
HETATM   26  H   UNK     0       5.636  48.059  19.931  0.00  0.00     0.210 HD
ENDBRANCH  23  25
BRANCH  23  27
HETATM   27  C   UNK     0       7.391  46.252  19.422  0.00  0.00     0.152 C 
BRANCH  27  28
HETATM   28  O   UNK     0       7.727  47.640  19.318  0.00  0.00    -0.393 OA
HETATM   29  H   UNK     0       8.691  47.697  19.192  0.00  0.00     0.210 HD
ENDBRANCH  27  28
BRANCH  27  30
HETATM   30  C   UNK     0       7.808  45.554  18.114  0.00  0.00     0.037 C 
BRANCH  30  31
HETATM   31  C   UNK     0       8.755  44.366  18.369  0.00  0.00     0.040 C 
BRANCH  31  32
HETATM   32  C   UNK     0      10.204  44.766  18.716  0.00  0.00     0.051 C 
HETATM   33  C   UNK     0      10.834  43.690  19.607  0.00  0.00     0.045 C 
HETATM   34  C   UNK     0      11.067  44.982  17.471  0.00  0.00     0.045 C 
BRANCH  32  35
HETATM   35  O   UNK     0      10.168  45.985  19.460  0.00  0.00    -0.391 OA
HETATM   36  H   UNK     0      10.525  45.805  20.346  0.00  0.00     0.210 HD
ENDBRANCH  32  35
ENDBRANCH  31  32
ENDBRANCH  30  31
ENDBRANCH  27  30
ENDBRANCH  23  27
ENDBRANCH   5  23
BRANCH  19  37
HETATM   37  O   UNK     0       9.481  41.778  28.436  0.00  0.00    -0.393 OA
HETATM   38  H   UNK     0      10.232  41.559  27.859  0.00  0.00     0.210 HD
ENDBRANCH  19  37
BRANCH  20  39
HETATM   39  O   UNK     0      11.089  43.809  27.460  0.00  0.00    -0.393 OA
HETATM   40  H   UNK     0      11.573  44.419  26.878  0.00  0.00     0.210 HD
ENDBRANCH  20  39
ENDBRANCH   1   3
TORSDOF 11
ENDMDL
MODEL 7
REMARK VINA RESULT:    -7.783      3.249      9.084
REMARK INTER + INTRA:         -11.186
REMARK INTER:                 -11.592
REMARK INTRA:                   0.406
REMARK UNBOUND:                 0.236
REMARK  11 active torsions:
REMARK  status: ('A' for Active; 'I' for Inactive)
REMARK    1  A    between atoms: O_1  and  C_9 
REMARK    2  A    between atoms: O_2  and  C_19 
REMARK    3  A    between atoms: O_3  and  C_26 
REMARK    4  A    between atoms: O_4  and  C_27 
REMARK    5  A    between atoms: O_6  and  C_28 
REMARK    6  A    between atoms: O_7  and  C_32 
REMARK    7  A    between atoms: C_10  and  C_19 
REMARK    8  A    between atoms: C_19  and  C_27 
REMARK    9  A    between atoms: C_27  and  C_30 
REMARK   10  A    between atoms: C_30  and  C_31 
REMARK   11  A    between atoms: C_31  and  C_32 
ROOT
HETATM    1  O   UNK     0       7.862  41.206  22.538  0.00  0.00    -0.384 OA
HETATM    2  H   UNK     0       8.705  40.891  22.167  0.00  0.00     0.211 HD
ENDROOT
BRANCH   1   3
HETATM    3  C   UNK     0       8.040  42.586  22.931  0.00  0.00     0.089 C 
HETATM    4  C   UNK     0       8.880  43.323  21.857  0.00  0.00    -0.002 C 
HETATM    5  C   UNK     0      10.229  42.568  21.976  0.00  0.00     0.034 C 
HETATM    6  C   UNK     0       8.189  43.153  20.492  0.00  0.00     0.014 C 
HETATM    7  C   UNK     0       9.064  44.834  22.165  0.00  0.00     0.019 C 
HETATM    8  C   UNK     0      10.397  42.355  23.498  0.00  0.00     0.012 C 
HETATM    9  C   UNK     0       9.001  42.551  24.129  0.00  0.00     0.044 C 
HETATM   10  C   UNK     0       6.762  43.723  20.522  0.00  0.00     0.011 C 
HETATM   11  C   UNK     0       5.878  43.237  21.712  0.00  0.00     0.027 C 
HETATM   12  C   UNK     0       4.521  44.037  21.819  0.00  0.00    -0.023 C 
HETATM   13  C   UNK     0       6.644  43.161  23.042  0.00  0.00    -0.037 C 
HETATM   14  C   UNK     0       3.777  43.651  23.128  0.00  0.00     0.071 C 
HETATM   15  C   UNK     0       3.584  43.739  20.613  0.00  0.00     0.044 C 
HETATM   16  C   UNK     0       4.762  45.571  21.837  0.00  0.00     0.016 C 
HETATM   17  C   UNK     0       3.215  42.218  23.117  0.00  0.00     0.047 C 
HETATM   18  C   UNK     0       4.670  43.834  24.340  0.00  0.00     0.154 C 
HETATM   19  C   UNK     0       2.304  41.978  21.914  0.00  0.00     0.147 C 
HETATM   20  C   UNK     0       3.024  42.312  20.607  0.00  0.00     0.147 C 
HETATM   21  O   UNK     0       4.220  44.200  25.425  0.00  0.00    -0.293 OA
HETATM   22  C   UNK     0       6.103  43.481  24.227  0.00  0.00     0.057 C 
BRANCH   5  23
HETATM   23  C   UNK     0      11.441  43.233  21.335  0.00  0.00     0.084 C 
HETATM   24  C   UNK     0      11.450  42.954  19.823  0.00  0.00     0.049 C 
BRANCH  23  25
HETATM   25  O   UNK     0      11.324  44.651  21.508  0.00  0.00    -0.387 OA
HETATM   26  H   UNK     0      12.162  45.070  21.253  0.00  0.00     0.210 HD
ENDBRANCH  23  25
BRANCH  23  27
HETATM   27  C   UNK     0      12.775  42.774  21.986  0.00  0.00     0.152 C 
BRANCH  27  28
HETATM   28  O   UNK     0      13.680  43.881  22.054  0.00  0.00    -0.393 OA
HETATM   29  H   UNK     0      14.183  43.896  21.220  0.00  0.00     0.210 HD
ENDBRANCH  27  28
BRANCH  27  30
HETATM   30  C   UNK     0      13.475  41.619  21.245  0.00  0.00     0.037 C 
BRANCH  30  31
HETATM   31  C   UNK     0      14.897  42.002  20.793  0.00  0.00     0.040 C 
BRANCH  31  32
HETATM   32  C   UNK     0      16.021  41.499  21.724  0.00  0.00     0.051 C 
HETATM   33  C   UNK     0      15.560  40.227  22.443  0.00  0.00     0.045 C 
HETATM   34  C   UNK     0      17.327  41.230  20.975  0.00  0.00     0.045 C 
BRANCH  32  35
HETATM   35  O   UNK     0      16.264  42.499  22.715  0.00  0.00    -0.391 OA
HETATM   36  H   UNK     0      17.106  42.934  22.501  0.00  0.00     0.210 HD
ENDBRANCH  32  35
ENDBRANCH  31  32
ENDBRANCH  30  31
ENDBRANCH  27  30
ENDBRANCH  23  27
ENDBRANCH   5  23
BRANCH  19  37
HETATM   37  O   UNK     0       1.142  42.799  22.035  0.00  0.00    -0.393 OA
HETATM   38  H   UNK     0       1.429  43.725  21.969  0.00  0.00     0.210 HD
ENDBRANCH  19  37
BRANCH  20  39
HETATM   39  O   UNK     0       2.112  42.161  19.522  0.00  0.00    -0.393 OA
HETATM   40  H   UNK     0       1.243  42.480  19.824  0.00  0.00     0.210 HD
ENDBRANCH  20  39
ENDBRANCH   1   3
TORSDOF 11
ENDMDL
MODEL 8
REMARK VINA RESULT:    -7.760      2.549      4.069
REMARK INTER + INTRA:         -11.152
REMARK INTER:                 -11.095
REMARK INTRA:                  -0.057
REMARK UNBOUND:                 0.236
REMARK  11 active torsions:
REMARK  status: ('A' for Active; 'I' for Inactive)
REMARK    1  A    between atoms: O_1  and  C_9 
REMARK    2  A    between atoms: O_2  and  C_19 
REMARK    3  A    between atoms: O_3  and  C_26 
REMARK    4  A    between atoms: O_4  and  C_27 
REMARK    5  A    between atoms: O_6  and  C_28 
REMARK    6  A    between atoms: O_7  and  C_32 
REMARK    7  A    between atoms: C_10  and  C_19 
REMARK    8  A    between atoms: C_19  and  C_27 
REMARK    9  A    between atoms: C_27  and  C_30 
REMARK   10  A    between atoms: C_30  and  C_31 
REMARK   11  A    between atoms: C_31  and  C_32 
ROOT
HETATM    1  O   UNK     0       7.306  42.497  20.179  0.00  0.00    -0.384 OA
HETATM    2  H   UNK     0       6.675  41.790  20.402  0.00  0.00     0.211 HD
ENDROOT
BRANCH   1   3
HETATM    3  C   UNK     0       6.757  43.746  20.657  0.00  0.00     0.089 C 
HETATM    4  C   UNK     0       5.557  43.455  21.596  0.00  0.00    -0.002 C 
HETATM    5  C   UNK     0       4.567  42.795  20.603  0.00  0.00     0.034 C 
HETATM    6  C   UNK     0       6.030  42.517  22.720  0.00  0.00     0.014 C 
HETATM    7  C   UNK     0       4.946  44.743  22.212  0.00  0.00     0.019 C 
HETATM    8  C   UNK     0       4.730  43.629  19.311  0.00  0.00     0.012 C 
HETATM    9  C   UNK     0       6.070  44.386  19.441  0.00  0.00     0.044 C 
HETATM   10  C   UNK     0       7.179  43.152  23.521  0.00  0.00     0.011 C 
HETATM   11  C   UNK     0       8.357  43.709  22.663  0.00  0.00     0.027 C 
HETATM   12  C   UNK     0       9.378  44.554  23.521  0.00  0.00    -0.023 C 
HETATM   13  C   UNK     0       7.888  44.434  21.392  0.00  0.00    -0.037 C 
HETATM   14  C   UNK     0      10.413  45.246  22.589  0.00  0.00     0.071 C 
HETATM   15  C   UNK     0      10.148  43.662  24.537  0.00  0.00     0.044 C 
HETATM   16  C   UNK     0       8.658  45.657  24.343  0.00  0.00     0.016 C 
HETATM   17  C   UNK     0      11.399  44.265  21.931  0.00  0.00     0.047 C 
HETATM   18  C   UNK     0       9.722  46.064  21.515  0.00  0.00     0.154 C 
HETATM   19  C   UNK     0      12.127  43.413  22.970  0.00  0.00     0.147 C 
HETATM   20  C   UNK     0      11.132  42.689  23.878  0.00  0.00     0.147 C 
HETATM   21  O   UNK     0      10.201  47.117  21.097  0.00  0.00    -0.293 OA
HETATM   22  C   UNK     0       8.483  45.532  20.903  0.00  0.00     0.057 C 
BRANCH   5  23
HETATM   23  C   UNK     0       3.116  42.689  21.057  0.00  0.00     0.084 C 
HETATM   24  C   UNK     0       2.644  44.043  21.613  0.00  0.00     0.049 C 
BRANCH  23  25
HETATM   25  O   UNK     0       2.304  42.389  19.914  0.00  0.00    -0.387 OA
HETATM   26  H   UNK     0       1.369  42.500  20.154  0.00  0.00     0.210 HD
ENDBRANCH  23  25
BRANCH  23  27
HETATM   27  C   UNK     0       2.910  41.562  22.106  0.00  0.00     0.152 C 
BRANCH  27  28
HETATM   28  O   UNK     0       1.865  40.687  21.671  0.00  0.00    -0.393 OA
HETATM   29  H   UNK     0       1.641  40.933  20.756  0.00  0.00     0.210 HD
ENDBRANCH  27  28
BRANCH  27  30
HETATM   30  C   UNK     0       2.561  42.070  23.518  0.00  0.00     0.037 C 
BRANCH  30  31
HETATM   31  C   UNK     0       3.098  41.134  24.618  0.00  0.00     0.040 C 
BRANCH  31  32
HETATM   32  C   UNK     0       3.782  41.858  25.796  0.00  0.00     0.051 C 
HETATM   33  C   UNK     0       5.106  41.162  26.128  0.00  0.00     0.045 C 
HETATM   34  C   UNK     0       4.030  43.341  25.510  0.00  0.00     0.045 C 
BRANCH  32  35
HETATM   35  O   UNK     0       2.933  41.754  26.941  0.00  0.00    -0.391 OA
HETATM   36  H   UNK     0       2.027  41.967  26.662  0.00  0.00     0.210 HD
ENDBRANCH  32  35
ENDBRANCH  31  32
ENDBRANCH  30  31
ENDBRANCH  27  30
ENDBRANCH  23  27
ENDBRANCH   5  23
BRANCH  19  37
HETATM   37  O   UNK     0      12.963  44.256  23.765  0.00  0.00    -0.393 OA
HETATM   38  H   UNK     0      12.397  44.940  24.161  0.00  0.00     0.210 HD
ENDBRANCH  19  37
BRANCH  20  39
HETATM   39  O   UNK     0      11.852  41.982  24.885  0.00  0.00    -0.393 OA
HETATM   40  H   UNK     0      12.690  42.454  25.031  0.00  0.00     0.210 HD
ENDBRANCH  20  39
ENDBRANCH   1   3
TORSDOF 11
ENDMDL
MODEL 9
REMARK VINA RESULT:    -7.559      3.344      6.855
REMARK INTER + INTRA:         -10.858
REMARK INTER:                 -11.094
REMARK INTRA:                   0.236
REMARK UNBOUND:                 0.236
REMARK  11 active torsions:
REMARK  status: ('A' for Active; 'I' for Inactive)
REMARK    1  A    between atoms: O_1  and  C_9 
REMARK    2  A    between atoms: O_2  and  C_19 
REMARK    3  A    between atoms: O_3  and  C_26 
REMARK    4  A    between atoms: O_4  and  C_27 
REMARK    5  A    between atoms: O_6  and  C_28 
REMARK    6  A    between atoms: O_7  and  C_32 
REMARK    7  A    between atoms: C_10  and  C_19 
REMARK    8  A    between atoms: C_19  and  C_27 
REMARK    9  A    between atoms: C_27  and  C_30 
REMARK   10  A    between atoms: C_30  and  C_31 
REMARK   11  A    between atoms: C_31  and  C_32 
ROOT
HETATM    1  O   UNK     0       9.591  42.416  21.033  0.00  0.00    -0.384 OA
HETATM    2  H   UNK     0      10.324  41.838  20.760  0.00  0.00     0.211 HD
ENDROOT
BRANCH   1   3
HETATM    3  C   UNK     0      10.035  43.786  20.898  0.00  0.00     0.089 C 
HETATM    4  C   UNK     0       8.802  44.713  20.741  0.00  0.00    -0.002 C 
HETATM    5  C   UNK     0       8.234  44.213  19.389  0.00  0.00     0.034 C 
HETATM    6  C   UNK     0       7.860  44.483  21.937  0.00  0.00     0.014 C 
HETATM    7  C   UNK     0       9.183  46.217  20.658  0.00  0.00     0.019 C 
HETATM    8  C   UNK     0       9.495  43.964  18.530  0.00  0.00     0.012 C 
HETATM    9  C   UNK     0      10.686  43.872  19.509  0.00  0.00     0.044 C 
HETATM   10  C   UNK     0       8.573  44.781  23.266  0.00  0.00     0.011 C 
HETATM   11  C   UNK     0       9.959  44.087  23.446  0.00  0.00     0.027 C 
HETATM   12  C   UNK     0      10.738  44.620  24.711  0.00  0.00    -0.023 C 
HETATM   13  C   UNK     0      10.807  44.091  22.164  0.00  0.00    -0.037 C 
HETATM   14  C   UNK     0      12.182  44.044  24.728  0.00  0.00     0.071 C 
HETATM   15  C   UNK     0      10.029  44.212  26.034  0.00  0.00     0.044 C 
HETATM   16  C   UNK     0      10.838  46.169  24.710  0.00  0.00     0.016 C 
HETATM   17  C   UNK     0      12.239  42.535  25.024  0.00  0.00     0.047 C 
HETATM   18  C   UNK     0      12.902  44.331  23.425  0.00  0.00     0.154 C 
HETATM   19  C   UNK     0      11.528  42.188  26.331  0.00  0.00     0.147 C 
HETATM   20  C   UNK     0      10.091  42.709  26.327  0.00  0.00     0.147 C 
HETATM   21  O   UNK     0      14.111  44.558  23.390  0.00  0.00    -0.293 OA
HETATM   22  C   UNK     0      12.139  44.251  22.159  0.00  0.00     0.057 C 
BRANCH   5  23
HETATM   23  C   UNK     0       7.219  45.117  18.700  0.00  0.00     0.084 C 
HETATM   24  C   UNK     0       6.709  46.177  19.690  0.00  0.00     0.049 C 
BRANCH  23  25
HETATM   25  O   UNK     0       7.881  45.810  17.633  0.00  0.00    -0.387 OA
HETATM   26  H   UNK     0       7.872  46.762  17.824  0.00  0.00     0.210 HD
ENDBRANCH  23  25
BRANCH  23  27
HETATM   27  C   UNK     0       6.034  44.316  18.095  0.00  0.00     0.152 C 
BRANCH  27  28
HETATM   28  O   UNK     0       4.910  45.183  17.918  0.00  0.00    -0.393 OA
HETATM   29  H   UNK     0       4.110  44.628  17.926  0.00  0.00     0.210 HD
ENDBRANCH  27  28
BRANCH  27  30
HETATM   30  C   UNK     0       5.587  43.110  18.944  0.00  0.00     0.037 C 
BRANCH  30  31
HETATM   31  C   UNK     0       4.101  43.200  19.337  0.00  0.00     0.040 C 
BRANCH  31  32
HETATM   32  C   UNK     0       3.836  43.135  20.856  0.00  0.00     0.051 C 
HETATM   33  C   UNK     0       3.879  44.550  21.444  0.00  0.00     0.045 C 
HETATM   34  C   UNK     0       2.498  42.473  21.190  0.00  0.00     0.045 C 
BRANCH  32  35
HETATM   35  O   UNK     0       4.882  42.375  21.463  0.00  0.00    -0.391 OA
HETATM   36  H   UNK     0       4.547  41.477  21.619  0.00  0.00     0.210 HD
ENDBRANCH  32  35
ENDBRANCH  31  32
ENDBRANCH  30  31
ENDBRANCH  27  30
ENDBRANCH  23  27
ENDBRANCH   5  23
BRANCH  19  37
HETATM   37  O   UNK     0      12.239  42.777  27.422  0.00  0.00    -0.393 OA
HETATM   38  H   UNK     0      12.274  42.121  28.138  0.00  0.00     0.210 HD
ENDBRANCH  19  37
BRANCH  20  39
HETATM   39  O   UNK     0       9.497  42.444  27.596  0.00  0.00    -0.393 OA
HETATM   40  H   UNK     0      10.184  42.575  28.273  0.00  0.00     0.210 HD
ENDBRANCH  20  39
ENDBRANCH   1   3
TORSDOF 11
ENDMDL
