MODEL 1
REMARK VINA RESULT:      -8.9      0.000      0.000
REMARK  6 active torsions:
REMARK  status: ('A' for Active; 'I' for Inactive)
REMARK    1  A    between atoms: O_2  and  C_9 
REMARK    2  A    between atoms: O_4  and  C_14 
REMARK    3  A    between atoms: O_5  and  C_19 
REMARK    4  A    between atoms: O_6  and  C_20 
REMARK    5  A    between atoms: O_7  and  C_22 
REMARK    6  A    between atoms: C_8  and  C_10 
ROOT
HETATM    1  O   UNK     0     185.881 177.172 177.759  0.00  0.00    -0.337 OA
HETATM    2  O   UNK     0     184.676 177.829 181.627  0.00  0.00    -0.289 OA
HETATM    3  C   UNK     0     186.836 177.375 178.813  0.00  0.00     0.198 C 
HETATM    4  C   UNK     0     186.310 176.845 180.147  0.00  0.00     0.227 C 
HETATM    5  C   UNK     0     185.020 177.563 180.481  0.00  0.00     0.196 C 
HETATM    6  C   UNK     0     184.162 177.900 179.329  0.00  0.00     0.079 A 
HETATM    7  C   UNK     0     184.636 177.670 178.036  0.00  0.00     0.089 A 
HETATM    8  C   UNK     0     182.878 178.415 179.530  0.00  0.00     0.085 A 
HETATM    9  C   UNK     0     183.809 177.924 176.940  0.00  0.00     0.074 A 
HETATM   10  C   UNK     0     182.064 178.686 178.430  0.00  0.00     0.074 A 
HETATM   11  C   UNK     0     182.526 178.436 177.138  0.00  0.00     0.071 A 
ENDROOT
BRANCH   3  12
HETATM   12  C   UNK     0     188.118 176.681 178.397  0.00  0.00    -0.023 A 
HETATM   13  C   UNK     0     189.318 177.388 178.386  0.00  0.00     0.049 A 
HETATM   14  C   UNK     0     190.499 176.750 178.004  0.00  0.00     0.099 A 
HETATM   15  C   UNK     0     190.475 175.406 177.633  0.00  0.00     0.098 A 
HETATM   16  C   UNK     0     189.273 174.699 177.646  0.00  0.00     0.040 A 
HETATM   17  C   UNK     0     188.093 175.337 178.027  0.00  0.00     0.013 A 
BRANCH  14  18
HETATM   18  O   UNK     0     191.667 177.449 177.996  0.00  0.00    -0.358 OA
HETATM   19  H   UNK     0     191.483 178.349 177.676  0.00  0.00     0.217 HD
ENDBRANCH  14  18
BRANCH  15  20
HETATM   20  O   UNK     0     191.622 174.770 177.259  0.00  0.00    -0.358 OA
HETATM   21  H   UNK     0     191.545 173.825 177.477  0.00  0.00     0.217 HD
ENDBRANCH  15  20
ENDBRANCH   3  12
BRANCH   4  22
HETATM   22  O   UNK     0     187.243 177.111 181.181  0.00  0.00    -0.385 OA
HETATM   23  H   UNK     0     187.442 176.266 181.620  0.00  0.00     0.210 HD
ENDBRANCH   4  22
BRANCH   8  24
HETATM   24  O   UNK     0     182.369 178.661 180.769  0.00  0.00    -0.360 OA
HETATM   25  H   UNK     0     181.510 178.227 180.879  0.00  0.00     0.217 HD
ENDBRANCH   8  24
BRANCH  11  26
HETATM   26  O   UNK     0     181.724 178.693 176.068  0.00  0.00    -0.361 OA
HETATM   27  H   UNK     0     181.984 179.545 175.677  0.00  0.00     0.217 HD
ENDBRANCH  11  26
TORSDOF 6
ENDMDL
MODEL 2
REMARK VINA RESULT:      -8.8      1.768      7.169
REMARK  6 active torsions:
REMARK  status: ('A' for Active; 'I' for Inactive)
REMARK    1  A    between atoms: O_2  and  C_9 
REMARK    2  A    between atoms: O_4  and  C_14 
REMARK    3  A    between atoms: O_5  and  C_19 
REMARK    4  A    between atoms: O_6  and  C_20 
REMARK    5  A    between atoms: O_7  and  C_22 
REMARK    6  A    between atoms: C_8  and  C_10 
ROOT
HETATM    1  O   UNK     0     187.771 176.905 179.329  0.00  0.00    -0.337 OA
HETATM    2  O   UNK     0     189.125 173.618 177.278  0.00  0.00    -0.289 OA
HETATM    3  C   UNK     0     187.071 176.403 178.180  0.00  0.00     0.198 C 
HETATM    4  C   UNK     0     187.225 174.887 178.056  0.00  0.00     0.227 C 
HETATM    5  C   UNK     0     188.697 174.555 177.942  0.00  0.00     0.196 C 
HETATM    6  C   UNK     0     189.606 175.417 178.721  0.00  0.00     0.079 A 
HETATM    7  C   UNK     0     189.088 176.532 179.383  0.00  0.00     0.089 A 
HETATM    8  C   UNK     0     190.965 175.105 178.821  0.00  0.00     0.085 A 
HETATM    9  C   UNK     0     189.927 177.318 180.176  0.00  0.00     0.074 A 
HETATM   10  C   UNK     0     191.801 175.905 179.599  0.00  0.00     0.074 A 
HETATM   11  C   UNK     0     191.283 177.006 180.279  0.00  0.00     0.071 A 
ENDROOT
BRANCH   3  12
HETATM   12  C   UNK     0     185.618 176.811 178.326  0.00  0.00    -0.023 A 
HETATM   13  C   UNK     0     184.998 177.543 177.315  0.00  0.00     0.049 A 
HETATM   14  C   UNK     0     183.661 177.919 177.447  0.00  0.00     0.099 A 
HETATM   15  C   UNK     0     182.948 177.564 178.592  0.00  0.00     0.098 A 
HETATM   16  C   UNK     0     183.570 176.831 179.603  0.00  0.00     0.040 A 
HETATM   17  C   UNK     0     184.907 176.455 179.470  0.00  0.00     0.013 A 
BRANCH  14  18
HETATM   18  O   UNK     0     183.064 178.633 176.454  0.00  0.00    -0.358 OA
HETATM   19  H   UNK     0     183.240 179.578 176.607  0.00  0.00     0.217 HD
ENDBRANCH  14  18
BRANCH  15  20
HETATM   20  O   UNK     0     181.641 177.924 178.734  0.00  0.00    -0.358 OA
HETATM   21  H   UNK     0     181.371 178.445 177.957  0.00  0.00     0.217 HD
ENDBRANCH  15  20
ENDBRANCH   3  12
BRANCH   4  22
HETATM   22  O   UNK     0     186.576 174.424 176.883  0.00  0.00    -0.385 OA
HETATM   23  H   UNK     0     187.261 174.078 176.286  0.00  0.00     0.210 HD
ENDBRANCH   4  22
BRANCH   8  24
HETATM   24  O   UNK     0     191.522 174.031 178.193  0.00  0.00    -0.360 OA
HETATM   25  H   UNK     0     191.853 173.390 178.840  0.00  0.00     0.217 HD
ENDBRANCH   8  24
BRANCH  11  26
HETATM   26  O   UNK     0     192.101 177.780 181.044  0.00  0.00    -0.361 OA
HETATM   27  H   UNK     0     192.628 177.204 181.625  0.00  0.00     0.217 HD
ENDBRANCH  11  26
TORSDOF 6
ENDMDL
MODEL 3
REMARK VINA RESULT:      -8.7      1.867      6.878
REMARK  6 active torsions:
REMARK  status: ('A' for Active; 'I' for Inactive)
REMARK    1  A    between atoms: O_2  and  C_9 
REMARK    2  A    between atoms: O_4  and  C_14 
REMARK    3  A    between atoms: O_5  and  C_19 
REMARK    4  A    between atoms: O_6  and  C_20 
REMARK    5  A    between atoms: O_7  and  C_22 
REMARK    6  A    between atoms: C_8  and  C_10 
ROOT
HETATM    1  O   UNK     0     185.861 175.721 178.510  0.00  0.00    -0.337 OA
HETATM    2  O   UNK     0     188.667 178.714 178.623  0.00  0.00    -0.289 OA
HETATM    3  C   UNK     0     185.510 177.058 178.902  0.00  0.00     0.198 C 
HETATM    4  C   UNK     0     186.376 178.092 178.183  0.00  0.00     0.227 C 
HETATM    5  C   UNK     0     187.828 177.827 178.517  0.00  0.00     0.196 C 
HETATM    6  C   UNK     0     188.196 176.406 178.676  0.00  0.00     0.079 A 
HETATM    7  C   UNK     0     187.193 175.435 178.647  0.00  0.00     0.089 A 
HETATM    8  C   UNK     0     189.535 176.034 178.823  0.00  0.00     0.085 A 
HETATM    9  C   UNK     0     187.535 174.084 178.731  0.00  0.00     0.074 A 
HETATM   10  C   UNK     0     189.868 174.684 178.927  0.00  0.00     0.074 A 
HETATM   11  C   UNK     0     188.871 173.710 178.875  0.00  0.00     0.071 A 
ENDROOT
BRANCH   3  12
HETATM   12  C   UNK     0     184.037 177.245 178.593  0.00  0.00    -0.023 A 
HETATM   13  C   UNK     0     183.651 177.930 177.443  0.00  0.00     0.049 A 
HETATM   14  C   UNK     0     182.296 178.102 177.157  0.00  0.00     0.099 A 
HETATM   15  C   UNK     0     181.331 177.590 178.024  0.00  0.00     0.098 A 
HETATM   16  C   UNK     0     181.719 176.903 179.175  0.00  0.00     0.040 A 
HETATM   17  C   UNK     0     183.073 176.731 179.459  0.00  0.00     0.013 A 
BRANCH  14  18
HETATM   18  O   UNK     0     181.928 178.773 176.031  0.00  0.00    -0.358 OA
HETATM   19  H   UNK     0     180.957 178.781 175.983  0.00  0.00     0.217 HD
ENDBRANCH  14  18
BRANCH  15  20
HETATM   20  O   UNK     0     180.004 177.751 177.755  0.00  0.00    -0.358 OA
HETATM   21  H   UNK     0     179.537 177.957 178.583  0.00  0.00     0.217 HD
ENDBRANCH  15  20
ENDBRANCH   3  12
BRANCH   4  22
HETATM   22  O   UNK     0     186.052 179.398 178.631  0.00  0.00    -0.385 OA
HETATM   23  H   UNK     0     186.404 179.495 179.531  0.00  0.00     0.210 HD
ENDBRANCH   4  22
BRANCH   8  24
HETATM   24  O   UNK     0     190.551 176.941 178.861  0.00  0.00    -0.360 OA
HETATM   25  H   UNK     0     190.302 177.713 179.392  0.00  0.00     0.217 HD
ENDBRANCH   8  24
BRANCH  11  26
HETATM   26  O   UNK     0     189.202 172.393 178.968  0.00  0.00    -0.361 OA
HETATM   27  H   UNK     0     189.304 172.158 179.907  0.00  0.00     0.217 HD
ENDBRANCH  11  26
TORSDOF 6
ENDMDL
MODEL 4
REMARK VINA RESULT:      -8.5      2.139      3.566
REMARK  6 active torsions:
REMARK  status: ('A' for Active; 'I' for Inactive)
REMARK    1  A    between atoms: O_2  and  C_9 
REMARK    2  A    between atoms: O_4  and  C_14 
REMARK    3  A    between atoms: O_5  and  C_19 
REMARK    4  A    between atoms: O_6  and  C_20 
REMARK    5  A    between atoms: O_7  and  C_22 
REMARK    6  A    between atoms: C_8  and  C_10 
ROOT
HETATM    1  O   UNK     0     187.423 176.365 180.765  0.00  0.00    -0.337 OA
HETATM    2  O   UNK     0     186.159 179.377 178.280  0.00  0.00    -0.289 OA
HETATM    3  C   UNK     0     188.159 176.714 179.582  0.00  0.00     0.198 C 
HETATM    4  C   UNK     0     188.024 178.203 179.264  0.00  0.00     0.227 C 
HETATM    5  C   UNK     0     186.560 178.529 179.068  0.00  0.00     0.196 C 
HETATM    6  C   UNK     0     185.620 177.777 179.924  0.00  0.00     0.079 A 
HETATM    7  C   UNK     0     186.109 176.750 180.734  0.00  0.00     0.089 A 
HETATM    8  C   UNK     0     184.263 178.109 179.945  0.00  0.00     0.085 A 
HETATM    9  C   UNK     0     185.241 176.076 181.595  0.00  0.00     0.074 A 
HETATM   10  C   UNK     0     183.398 177.418 180.793  0.00  0.00     0.074 A 
HETATM   11  C   UNK     0     183.886 176.407 181.621  0.00  0.00     0.071 A 
ENDROOT
BRANCH   3  12
HETATM   12  C   UNK     0     189.603 176.317 179.818  0.00  0.00    -0.023 A 
HETATM   13  C   UNK     0     190.136 175.211 179.159  0.00  0.00     0.049 A 
HETATM   14  C   UNK     0     191.465 174.845 179.376  0.00  0.00     0.099 A 
HETATM   15  C   UNK     0     192.257 175.586 180.253  0.00  0.00     0.098 A 
HETATM   16  C   UNK     0     191.722 176.693 180.911  0.00  0.00     0.040 A 
HETATM   17  C   UNK     0     190.394 177.058 180.694  0.00  0.00     0.013 A 
BRANCH  14  18
HETATM   18  O   UNK     0     191.977 173.763 178.727  0.00  0.00    -0.358 OA
HETATM   19  H   UNK     0     192.099 173.997 177.791  0.00  0.00     0.217 HD
ENDBRANCH  14  18
BRANCH  15  20
HETATM   20  O   UNK     0     193.557 175.239 180.472  0.00  0.00    -0.358 OA
HETATM   21  H   UNK     0     193.993 175.088 179.616  0.00  0.00     0.217 HD
ENDBRANCH  15  20
ENDBRANCH   3  12
BRANCH   4  22
HETATM   22  O   UNK     0     188.709 178.511 178.061  0.00  0.00    -0.385 OA
HETATM   23  H   UNK     0     189.573 178.065 178.094  0.00  0.00     0.210 HD
ENDBRANCH   4  22
BRANCH   8  24
HETATM   24  O   UNK     0     183.734 179.099 179.172  0.00  0.00    -0.360 OA
HETATM   25  H   UNK     0     183.949 179.970 179.538  0.00  0.00     0.217 HD
ENDBRANCH   8  24
BRANCH  11  26
HETATM   26  O   UNK     0     183.039 175.742 182.453  0.00  0.00    -0.361 OA
HETATM   27  H   UNK     0     182.419 175.216 181.919  0.00  0.00     0.217 HD
ENDBRANCH  11  26
TORSDOF 6
ENDMDL
MODEL 5
REMARK VINA RESULT:      -8.0     40.430     41.657
REMARK  6 active torsions:
REMARK  status: ('A' for Active; 'I' for Inactive)
REMARK    1  A    between atoms: O_2  and  C_9 
REMARK    2  A    between atoms: O_4  and  C_14 
REMARK    3  A    between atoms: O_5  and  C_19 
REMARK    4  A    between atoms: O_6  and  C_20 
REMARK    5  A    between atoms: O_7  and  C_22 
REMARK    6  A    between atoms: C_8  and  C_10 
ROOT
HETATM    1  O   UNK     0     148.617 177.669 162.769  0.00  0.00    -0.337 OA
HETATM    2  O   UNK     0     148.515 181.272 160.807  0.00  0.00    -0.289 OA
HETATM    3  C   UNK     0     148.476 178.904 163.487  0.00  0.00     0.198 C 
HETATM    4  C   UNK     0     147.719 179.943 162.659  0.00  0.00     0.227 C 
HETATM    5  C   UNK     0     148.477 180.185 161.371  0.00  0.00     0.196 C 
HETATM    6  C   UNK     0     149.153 179.004 160.800  0.00  0.00     0.079 A 
HETATM    7  C   UNK     0     149.170 177.811 161.525  0.00  0.00     0.089 A 
HETATM    8  C   UNK     0     149.745 179.071 159.535  0.00  0.00     0.085 A 
HETATM    9  C   UNK     0     149.750 176.670 160.966  0.00  0.00     0.074 A 
HETATM   10  C   UNK     0     150.340 177.933 158.991  0.00  0.00     0.074 A 
HETATM   11  C   UNK     0     150.339 176.734 159.702  0.00  0.00     0.071 A 
ENDROOT
BRANCH   3  12
HETATM   12  C   UNK     0     147.759 178.590 164.786  0.00  0.00    -0.023 A 
HETATM   13  C   UNK     0     146.607 177.807 164.771  0.00  0.00     0.049 A 
HETATM   14  C   UNK     0     145.946 177.517 165.965  0.00  0.00     0.099 A 
HETATM   15  C   UNK     0     146.440 178.012 167.172  0.00  0.00     0.098 A 
HETATM   16  C   UNK     0     147.594 178.796 167.185  0.00  0.00     0.040 A 
HETATM   17  C   UNK     0     148.253 179.085 165.991  0.00  0.00     0.013 A 
BRANCH  14  18
HETATM   18  O   UNK     0     144.821 176.750 165.940  0.00  0.00    -0.358 OA
HETATM   19  H   UNK     0     144.052 177.330 166.077  0.00  0.00     0.217 HD
ENDBRANCH  14  18
BRANCH  15  20
HETATM   20  O   UNK     0     145.805 177.735 168.346  0.00  0.00    -0.358 OA
HETATM   21  H   UNK     0     144.987 177.245 168.155  0.00  0.00     0.217 HD
ENDBRANCH  15  20
ENDBRANCH   3  12
BRANCH   4  22
HETATM   22  O   UNK     0     147.644 181.171 163.364  0.00  0.00    -0.385 OA
HETATM   23  H   UNK     0     148.251 181.112 164.121  0.00  0.00     0.210 HD
ENDBRANCH   4  22
BRANCH   8  24
HETATM   24  O   UNK     0     149.759 180.210 158.788  0.00  0.00    -0.360 OA
HETATM   25  H   UNK     0     150.026 180.019 157.876  0.00  0.00     0.217 HD
ENDBRANCH   8  24
BRANCH  11  26
HETATM   26  O   UNK     0     150.914 175.623 159.164  0.00  0.00    -0.361 OA
HETATM   27  H   UNK     0     151.606 175.898 158.538  0.00  0.00     0.217 HD
ENDBRANCH  11  26
TORSDOF 6
ENDMDL
MODEL 6
REMARK VINA RESULT:      -7.9     31.352     35.712
REMARK  6 active torsions:
REMARK  status: ('A' for Active; 'I' for Inactive)
REMARK    1  A    between atoms: O_2  and  C_9 
REMARK    2  A    between atoms: O_4  and  C_14 
REMARK    3  A    between atoms: O_5  and  C_19 
REMARK    4  A    between atoms: O_6  and  C_20 
REMARK    5  A    between atoms: O_7  and  C_22 
REMARK    6  A    between atoms: C_8  and  C_10 
ROOT
HETATM    1  O   UNK     0     158.737 188.156 159.844  0.00  0.00    -0.337 OA
HETATM    2  O   UNK     0     162.615 187.541 158.649  0.00  0.00    -0.289 OA
HETATM    3  C   UNK     0     159.140 188.370 158.483  0.00  0.00     0.198 C 
HETATM    4  C   UNK     0     160.271 187.422 158.083  0.00  0.00     0.227 C 
HETATM    5  C   UNK     0     161.448 187.652 159.006  0.00  0.00     0.196 C 
HETATM    6  C   UNK     0     161.106 187.991 160.402  0.00  0.00     0.079 A 
HETATM    7  C   UNK     0     159.769 188.207 160.743  0.00  0.00     0.089 A 
HETATM    8  C   UNK     0     162.105 188.065 161.377  0.00  0.00     0.085 A 
HETATM    9  C   UNK     0     159.427 188.464 162.072  0.00  0.00     0.074 A 
HETATM   10  C   UNK     0     161.759 188.342 162.699  0.00  0.00     0.074 A 
HETATM   11  C   UNK     0     160.422 188.535 163.048  0.00  0.00     0.071 A 
ENDROOT
BRANCH   3  12
HETATM   12  C   UNK     0     157.912 188.178 157.615  0.00  0.00    -0.023 A 
HETATM   13  C   UNK     0     157.369 186.905 157.453  0.00  0.00     0.049 A 
HETATM   14  C   UNK     0     156.238 186.727 156.655  0.00  0.00     0.099 A 
HETATM   15  C   UNK     0     155.655 187.822 156.019  0.00  0.00     0.098 A 
HETATM   16  C   UNK     0     156.199 189.096 156.183  0.00  0.00     0.040 A 
HETATM   17  C   UNK     0     157.329 189.274 156.981  0.00  0.00     0.013 A 
BRANCH  14  18
HETATM   18  O   UNK     0     155.715 185.479 156.503  0.00  0.00    -0.358 OA
HETATM   19  H   UNK     0     155.909 184.966 157.306  0.00  0.00     0.217 HD
ENDBRANCH  14  18
BRANCH  15  20
HETATM   20  O   UNK     0     154.550 187.662 155.238  0.00  0.00    -0.358 OA
HETATM   21  H   UNK     0     153.758 187.678 155.802  0.00  0.00     0.217 HD
ENDBRANCH  15  20
ENDBRANCH   3  12
BRANCH   4  22
HETATM   22  O   UNK     0     160.692 187.693 156.757  0.00  0.00    -0.385 OA
HETATM   23  H   UNK     0     159.897 187.884 156.231  0.00  0.00     0.210 HD
ENDBRANCH   4  22
BRANCH   8  24
HETATM   24  O   UNK     0     163.424 187.867 161.097  0.00  0.00    -0.360 OA
HETATM   25  H   UNK     0     163.567 186.978 160.738  0.00  0.00     0.217 HD
ENDBRANCH   8  24
BRANCH  11  26
HETATM   26  O   UNK     0     160.088 188.797 164.341  0.00  0.00    -0.361 OA
HETATM   27  H   UNK     0     160.034 187.957 164.829  0.00  0.00     0.217 HD
ENDBRANCH  11  26
TORSDOF 6
ENDMDL
MODEL 7
REMARK VINA RESULT:      -7.8      1.486      3.246
REMARK  6 active torsions:
REMARK  status: ('A' for Active; 'I' for Inactive)
REMARK    1  A    between atoms: O_2  and  C_9 
REMARK    2  A    between atoms: O_4  and  C_14 
REMARK    3  A    between atoms: O_5  and  C_19 
REMARK    4  A    between atoms: O_6  and  C_20 
REMARK    5  A    between atoms: O_7  and  C_22 
REMARK    6  A    between atoms: C_8  and  C_10 
ROOT
HETATM    1  O   UNK     0     186.238 176.479 180.239  0.00  0.00    -0.337 OA
HETATM    2  O   UNK     0     183.124 177.870 177.957  0.00  0.00    -0.289 OA
HETATM    3  C   UNK     0     186.099 176.103 178.860  0.00  0.00     0.198 C 
HETATM    4  C   UNK     0     185.447 177.219 178.044  0.00  0.00     0.227 C 
HETATM    5  C   UNK     0     184.085 177.520 178.631  0.00  0.00     0.196 C 
HETATM    6  C   UNK     0     183.984 177.401 180.099  0.00  0.00     0.079 A 
HETATM    7  C   UNK     0     185.073 176.902 180.819  0.00  0.00     0.089 A 
HETATM    8  C   UNK     0     182.825 177.809 180.764  0.00  0.00     0.085 A 
HETATM    9  C   UNK     0     185.013 176.846 182.213  0.00  0.00     0.074 A 
HETATM   10  C   UNK     0     182.764 177.732 182.155  0.00  0.00     0.074 A 
HETATM   11  C   UNK     0     183.857 177.256 182.879  0.00  0.00     0.071 A 
ENDROOT
BRANCH   3  12
HETATM   12  C   UNK     0     187.484 175.764 178.344  0.00  0.00    -0.023 A 
HETATM   13  C   UNK     0     188.456 176.759 178.262  0.00  0.00     0.049 A 
HETATM   14  C   UNK     0     189.731 176.449 177.787  0.00  0.00     0.099 A 
HETATM   15  C   UNK     0     190.030 175.144 177.395  0.00  0.00     0.098 A 
HETATM   16  C   UNK     0     189.055 174.149 177.479  0.00  0.00     0.040 A 
HETATM   17  C   UNK     0     187.781 174.460 177.953  0.00  0.00     0.013 A 
BRANCH  14  18
HETATM   18  O   UNK     0     190.675 177.427 177.711  0.00  0.00    -0.358 OA
HETATM   19  H   UNK     0     191.122 177.489 178.573  0.00  0.00     0.217 HD
ENDBRANCH  14  18
BRANCH  15  20
HETATM   20  O   UNK     0     191.272 174.828 176.931  0.00  0.00    -0.358 OA
HETATM   21  H   UNK     0     191.224 174.686 175.970  0.00  0.00     0.217 HD
ENDBRANCH  15  20
ENDBRANCH   3  12
BRANCH   4  22
HETATM   22  O   UNK     0     185.266 176.802 176.701  0.00  0.00    -0.385 OA
HETATM   23  H   UNK     0     185.529 175.868 176.646  0.00  0.00     0.210 HD
ENDBRANCH   4  22
BRANCH   8  24
HETATM   24  O   UNK     0     181.734 178.299 180.110  0.00  0.00    -0.360 OA
HETATM   25  H   UNK     0     181.103 178.682 180.737  0.00  0.00     0.217 HD
ENDBRANCH   8  24
BRANCH  11  26
HETATM   26  O   UNK     0     183.797 177.190 184.237  0.00  0.00    -0.361 OA
HETATM   27  H   UNK     0     184.483 177.769 184.613  0.00  0.00     0.217 HD
ENDBRANCH  11  26
TORSDOF 6
ENDMDL
MODEL 8
REMARK VINA RESULT:      -7.8     39.914     43.409
REMARK  6 active torsions:
REMARK  status: ('A' for Active; 'I' for Inactive)
REMARK    1  A    between atoms: O_2  and  C_9 
REMARK    2  A    between atoms: O_4  and  C_14 
REMARK    3  A    between atoms: O_5  and  C_19 
REMARK    4  A    between atoms: O_6  and  C_20 
REMARK    5  A    between atoms: O_7  and  C_22 
REMARK    6  A    between atoms: C_8  and  C_10 
ROOT
HETATM    1  O   UNK     0     154.073 175.392 151.007  0.00  0.00    -0.337 OA
HETATM    2  O   UNK     0     156.470 173.052 148.636  0.00  0.00    -0.289 OA
HETATM    3  C   UNK     0     153.513 174.515 150.017  0.00  0.00     0.198 C 
HETATM    4  C   UNK     0     154.381 173.270 149.825  0.00  0.00     0.227 C 
HETATM    5  C   UNK     0     155.766 173.704 149.398  0.00  0.00     0.196 C 
HETATM    6  C   UNK     0     156.249 174.966 149.992  0.00  0.00     0.079 A 
HETATM    7  C   UNK     0     155.379 175.728 150.775  0.00  0.00     0.089 A 
HETATM    8  C   UNK     0     157.570 175.379 149.798  0.00  0.00     0.085 A 
HETATM    9  C   UNK     0     155.844 176.890 151.394  0.00  0.00     0.074 A 
HETATM   10  C   UNK     0     158.023 176.551 150.404  0.00  0.00     0.074 A 
HETATM   11  C   UNK     0     157.164 177.303 151.205  0.00  0.00     0.071 A 
ENDROOT
BRANCH   3  12
HETATM   12  C   UNK     0     152.111 174.159 150.473  0.00  0.00    -0.023 A 
HETATM   13  C   UNK     0     151.924 173.484 151.677  0.00  0.00     0.049 A 
HETATM   14  C   UNK     0     150.634 173.156 152.097  0.00  0.00     0.099 A 
HETATM   15  C   UNK     0     149.536 173.503 151.311  0.00  0.00     0.098 A 
HETATM   16  C   UNK     0     149.726 174.179 150.105  0.00  0.00     0.040 A 
HETATM   17  C   UNK     0     151.015 174.506 149.686  0.00  0.00     0.013 A 
BRANCH  14  18
HETATM   18  O   UNK     0     150.461 172.497 153.276  0.00  0.00    -0.358 OA
HETATM   19  H   UNK     0     151.337 172.317 153.658  0.00  0.00     0.217 HD
ENDBRANCH  14  18
BRANCH  15  20
HETATM   20  O   UNK     0     148.271 173.189 151.711  0.00  0.00    -0.358 OA
HETATM   21  H   UNK     0     147.751 172.922 150.933  0.00  0.00     0.217 HD
ENDBRANCH  15  20
ENDBRANCH   3  12
BRANCH   4  22
HETATM   22  O   UNK     0     153.841 172.450 148.803  0.00  0.00    -0.385 OA
HETATM   23  H   UNK     0     153.159 172.968 148.341  0.00  0.00     0.210 HD
ENDBRANCH   4  22
BRANCH   8  24
HETATM   24  O   UNK     0     158.459 174.675 149.042  0.00  0.00    -0.360 OA
HETATM   25  H   UNK     0     158.120 174.552 148.142  0.00  0.00     0.217 HD
ENDBRANCH   8  24
BRANCH  11  26
HETATM   26  O   UNK     0     157.612 178.441 151.801  0.00  0.00    -0.361 OA
HETATM   27  H   UNK     0     158.557 178.551 151.601  0.00  0.00     0.217 HD
ENDBRANCH  11  26
TORSDOF 6
ENDMDL
MODEL 9
REMARK VINA RESULT:      -7.7      2.366      7.091
REMARK  6 active torsions:
REMARK  status: ('A' for Active; 'I' for Inactive)
REMARK    1  A    between atoms: O_2  and  C_9 
REMARK    2  A    between atoms: O_4  and  C_14 
REMARK    3  A    between atoms: O_5  and  C_19 
REMARK    4  A    between atoms: O_6  and  C_20 
REMARK    5  A    between atoms: O_7  and  C_22 
REMARK    6  A    between atoms: C_8  and  C_10 
ROOT
HETATM    1  O   UNK     0     187.581 175.713 179.985  0.00  0.00    -0.337 OA
HETATM    2  O   UNK     0     190.503 178.163 181.504  0.00  0.00    -0.289 OA
HETATM    3  C   UNK     0     187.406 176.395 181.237  0.00  0.00     0.198 C 
HETATM    4  C   UNK     0     188.141 177.736 181.246  0.00  0.00     0.227 C 
HETATM    5  C   UNK     0     189.613 177.485 181.003  0.00  0.00     0.196 C 
HETATM    6  C   UNK     0     189.927 176.375 180.082  0.00  0.00     0.079 A 
HETATM    7  C   UNK     0     188.891 175.564 179.614  0.00  0.00     0.089 A 
HETATM    8  C   UNK     0     191.241 176.157 179.659  0.00  0.00     0.085 A 
HETATM    9  C   UNK     0     189.166 174.553 178.692  0.00  0.00     0.074 A 
HETATM   10  C   UNK     0     191.512 175.132 178.753  0.00  0.00     0.074 A 
HETATM   11  C   UNK     0     190.477 174.335 178.266  0.00  0.00     0.071 A 
ENDROOT
BRANCH   3  12
HETATM   12  C   UNK     0     185.914 176.570 181.448  0.00  0.00    -0.023 A 
HETATM   13  C   UNK     0     185.193 177.430 180.623  0.00  0.00     0.049 A 
HETATM   14  C   UNK     0     183.820 177.592 180.816  0.00  0.00     0.099 A 
HETATM   15  C   UNK     0     183.173 176.893 181.836  0.00  0.00     0.098 A 
HETATM   16  C   UNK     0     183.898 176.032 182.660  0.00  0.00     0.040 A 
HETATM   17  C   UNK     0     185.269 175.871 182.467  0.00  0.00     0.013 A 
BRANCH  14  18
HETATM   18  O   UNK     0     183.123 178.434 180.005  0.00  0.00    -0.358 OA
HETATM   19  H   UNK     0     182.221 178.521 180.357  0.00  0.00     0.217 HD
ENDBRANCH  14  18
BRANCH  15  20
HETATM   20  O   UNK     0     181.833 177.042 182.034  0.00  0.00    -0.358 OA
HETATM   21  H   UNK     0     181.423 177.350 181.208  0.00  0.00     0.217 HD
ENDBRANCH  15  20
ENDBRANCH   3  12
BRANCH   4  22
HETATM   22  O   UNK     0     188.002 178.361 182.510  0.00  0.00    -0.385 OA
HETATM   23  H   UNK     0     187.443 179.147 182.389  0.00  0.00     0.210 HD
ENDBRANCH   4  22
BRANCH   8  24
HETATM   24  O   UNK     0     192.288 176.916 180.087  0.00  0.00    -0.360 OA
HETATM   25  H   UNK     0     193.102 176.390 180.117  0.00  0.00     0.217 HD
ENDBRANCH   8  24
BRANCH  11  26
HETATM   26  O   UNK     0     190.745 173.341 177.375  0.00  0.00    -0.361 OA
HETATM   27  H   UNK     0     191.363 172.709 177.782  0.00  0.00     0.217 HD
ENDBRANCH  11  26
TORSDOF 6
ENDMDL
