MODEL 1
REMARK VINA RESULT:      -7.1      0.000      0.000
REMARK SMILES O=C(O[C@@H]1[C@@H](OC(=O)c2cc(O)c(O)c(O)c2)[C@H](O)[C@@H](CO)O[C@H]1O)c1cc(O)c(O)c(O)c1
REMARK SMILES IDX 23 1 5 2 18 3 4 4 20 5 24 6 21 7 22 8 25 10 19 12 3 14 2 15
REMARK SMILES IDX 1 16 26 17 34 18 27 19 32 20 28 21 30 22 33 23 29 25 31 27
REMARK SMILES IDX 6 29 7 30 8 31 9 32 17 33 10 34 15 35 11 36 13 37 16 38
REMARK SMILES IDX 12 40 14 42
REMARK H PARENT 22 9 25 11 19 13 33 24 29 26 31 28 16 39 12 41 14 43
REMARK Flexibility Score: inf
ROOT
ATOM      1  O   UNL     1     187.572 184.971 174.171  1.00  0.00    -0.340 OA
ATOM      2  C   UNL     1     185.397 184.542 172.563  1.00  0.00     0.254 C 
ATOM      3  C   UNL     1     186.208 185.749 172.475  1.00  0.00     0.190 C 
ATOM      4  C   UNL     1     185.540 183.904 173.867  1.00  0.00     0.276 C 
ATOM      5  C   UNL     1     187.577 185.487 172.911  1.00  0.00     0.179 C 
ATOM      6  C   UNL     1     186.942 183.769 174.241  1.00  0.00     0.293 C 
ENDROOT
BRANCH   5   7
ATOM      7  C   UNL     1     188.375 186.702 172.937  1.00  0.00     0.191 C 
BRANCH   7   8
ATOM      8  O   UNL     1     187.924 187.491 173.935  1.00  0.00    -0.394 OA
ATOM      9  H   UNL     1     187.109 187.841 173.661  1.00  0.00     0.210 HD
ENDBRANCH   7   8
ENDBRANCH   5   7
BRANCH   6  10
ATOM     10  O   UNL     1     186.991 183.296 175.516  1.00  0.00    -0.365 OA
ATOM     11  H   UNL     1     186.904 183.208 176.355  1.00  0.00     0.214 HD
ENDBRANCH   6  10
BRANCH   3  12
ATOM     12  O   UNL     1     186.223 186.188 171.189  1.00  0.00    -0.386 OA
ATOM     13  H   UNL     1     186.046 187.099 171.194  1.00  0.00     0.211 HD
ENDBRANCH   3  12
BRANCH   4  14
ATOM     14  O   UNL     1     184.987 182.661 173.825  1.00  0.00    -0.449 OA
BRANCH  14  15
ATOM     15  C   UNL     1     184.061 182.425 174.700  1.00  0.00     0.339 C 
ATOM     16  O   UNL     1     184.210 182.332 175.851  1.00  0.00    -0.246 OA
BRANCH  15  17
ATOM     17  C   UNL     1     182.802 182.286 174.067  1.00  0.00     0.067 A 
ATOM     18  C   UNL     1     182.631 181.364 173.123  1.00  0.00     0.066 A 
ATOM     19  C   UNL     1     181.791 183.076 174.417  1.00  0.00     0.066 A 
ATOM     20  C   UNL     1     181.448 181.233 172.530  1.00  0.00     0.162 A 
ATOM     21  C   UNL     1     180.608 182.945 173.823  1.00  0.00     0.162 A 
ATOM     22  C   UNL     1     180.438 182.023 172.880  1.00  0.00     0.200 A 
BRANCH  20  23
ATOM     23  O   UNL     1     181.292 180.329 171.609  1.00  0.00    -0.504 OA
ATOM     24  H   UNL     1     182.014 179.747 171.632  1.00  0.00     0.293 HD
ENDBRANCH  20  23
BRANCH  21  25
ATOM     25  O   UNL     1     179.629 183.722 174.174  1.00  0.00    -0.504 OA
ATOM     26  H   UNL     1     179.916 184.283 174.854  1.00  0.00     0.293 HD
ENDBRANCH  21  25
BRANCH  22  27
ATOM     27  O   UNL     1     179.280 181.895 172.299  1.00  0.00    -0.502 OA
ATOM     28  H   UNL     1     179.390 181.370 171.541  1.00  0.00     0.293 HD
ENDBRANCH  22  27
ENDBRANCH  15  17
ENDBRANCH  14  15
ENDBRANCH   4  14
BRANCH   2  29
ATOM     29  O   UNL     1     184.096 184.893 172.370  1.00  0.00    -0.452 OA
BRANCH  29  30
ATOM     30  C   UNL     1     183.580 184.548 171.233  1.00  0.00     0.338 C 
ATOM     31  O   UNL     1     184.139 184.025 170.355  1.00  0.00    -0.246 OA
BRANCH  30  32
ATOM     32  C   UNL     1     182.209 184.894 171.183  1.00  0.00     0.067 A 
ATOM     33  C   UNL     1     181.728 185.822 172.006  1.00  0.00     0.066 A 
ATOM     34  C   UNL     1     181.403 184.296 170.313  1.00  0.00     0.066 A 
ATOM     35  C   UNL     1     180.440 186.150 171.958  1.00  0.00     0.162 A 
ATOM     36  C   UNL     1     180.114 184.623 170.264  1.00  0.00     0.162 A 
ATOM     37  C   UNL     1     179.634 185.551 171.087  1.00  0.00     0.200 A 
BRANCH  35  38
ATOM     38  O   UNL     1     179.982 187.059 172.767  1.00  0.00    -0.504 OA
ATOM     39  H   UNL     1     180.545 187.123 173.500  1.00  0.00     0.293 HD
ENDBRANCH  35  38
BRANCH  36  40
ATOM     40  O   UNL     1     179.337 184.031 169.410  1.00  0.00    -0.504 OA
ATOM     41  H   UNL     1     179.758 183.267 169.096  1.00  0.00     0.293 HD
ENDBRANCH  36  40
BRANCH  37  42
ATOM     42  O   UNL     1     178.373 185.870 171.041  1.00  0.00    -0.502 OA
ATOM     43  H   UNL     1     178.309 186.781 170.872  1.00  0.00     0.293 HD
ENDBRANCH  37  42
ENDBRANCH  30  32
ENDBRANCH  29  30
ENDBRANCH   2  29
TORSDOF 16
ENDMDL
MODEL 2
REMARK VINA RESULT:      -7.0      1.925      7.287
REMARK SMILES O=C(O[C@@H]1[C@@H](OC(=O)c2cc(O)c(O)c(O)c2)[C@H](O)[C@@H](CO)O[C@H]1O)c1cc(O)c(O)c(O)c1
REMARK SMILES IDX 23 1 5 2 18 3 4 4 20 5 24 6 21 7 22 8 25 10 19 12 3 14 2 15
REMARK SMILES IDX 1 16 26 17 34 18 27 19 32 20 28 21 30 22 33 23 29 25 31 27
REMARK SMILES IDX 6 29 7 30 8 31 9 32 17 33 10 34 15 35 11 36 13 37 16 38
REMARK SMILES IDX 12 40 14 42
REMARK H PARENT 22 9 25 11 19 13 33 24 29 26 31 28 16 39 12 41 14 43
REMARK Flexibility Score: inf
ROOT
ATOM      1  O   UNL     1     180.893 183.175 170.094  1.00  0.00    -0.340 OA
ATOM      2  C   UNL     1     182.270 182.852 172.439  1.00  0.00     0.254 C 
ATOM      3  C   UNL     1     180.901 182.384 172.266  1.00  0.00     0.190 C 
ATOM      4  C   UNL     1     182.591 183.908 171.487  1.00  0.00     0.276 C 
ATOM      5  C   UNL     1     180.631 182.082 170.863  1.00  0.00     0.179 C 
ATOM      6  C   UNL     1     182.202 183.538 170.132  1.00  0.00     0.293 C 
ENDROOT
BRANCH   5   7
ATOM      7  C   UNL     1     179.239 181.720 170.650  1.00  0.00     0.191 C 
BRANCH   7   8
ATOM      8  O   UNL     1     178.569 182.815 170.231  1.00  0.00    -0.394 OA
ATOM      9  H   UNL     1     178.164 182.598 169.425  1.00  0.00     0.210 HD
ENDBRANCH   7   8
ENDBRANCH   5   7
BRANCH   6  10
ATOM     10  O   UNL     1     182.405 184.617 169.328  1.00  0.00    -0.365 OA
ATOM     11  H   UNL     1     182.595 185.391 169.038  1.00  0.00     0.214 HD
ENDBRANCH   6  10
BRANCH   3  12
ATOM     12  O   UNL     1     180.711 181.264 173.010  1.00  0.00    -0.386 OA
ATOM     13  H   UNL     1     180.068 180.744 172.590  1.00  0.00     0.211 HD
ENDBRANCH   3  12
BRANCH   4  14
ATOM     14  O   UNL     1     183.933 184.135 171.499  1.00  0.00    -0.449 OA
BRANCH  14  15
ATOM     15  C   UNL     1     184.295 185.373 171.624  1.00  0.00     0.339 C 
ATOM     16  O   UNL     1     183.595 186.275 171.852  1.00  0.00    -0.246 OA
BRANCH  15  17
ATOM     17  C   UNL     1     185.693 185.503 171.440  1.00  0.00     0.067 A 
ATOM     18  C   UNL     1     186.385 184.515 170.878  1.00  0.00     0.066 A 
ATOM     19  C   UNL     1     186.315 186.613 171.828  1.00  0.00     0.066 A 
ATOM     20  C   UNL     1     187.697 184.638 170.704  1.00  0.00     0.162 A 
ATOM     21  C   UNL     1     187.628 186.735 171.654  1.00  0.00     0.162 A 
ATOM     22  C   UNL     1     188.318 185.748 171.092  1.00  0.00     0.200 A 
BRANCH  20  23
ATOM     23  O   UNL     1     188.362 183.666 170.154  1.00  0.00    -0.504 OA
ATOM     24  H   UNL     1     189.102 184.015 169.716  1.00  0.00     0.293 HD
ENDBRANCH  20  23
BRANCH  21  25
ATOM     25  O   UNL     1     188.222 187.825 172.036  1.00  0.00    -0.504 OA
ATOM     26  H   UNL     1     189.089 187.829 171.707  1.00  0.00     0.293 HD
ENDBRANCH  21  25
BRANCH  22  27
ATOM     27  O   UNL     1     189.603 185.868 170.923  1.00  0.00    -0.502 OA
ATOM     28  H   UNL     1     190.019 185.141 171.323  1.00  0.00     0.293 HD
ENDBRANCH  22  27
ENDBRANCH  15  17
ENDBRANCH  14  15
ENDBRANCH   4  14
BRANCH   2  29
ATOM     29  O   UNL     1     182.394 183.332 173.708  1.00  0.00    -0.452 OA
BRANCH  29  30
ATOM     30  C   UNL     1     183.192 182.672 174.486  1.00  0.00     0.338 C 
ATOM     31  O   UNL     1     182.963 181.653 175.001  1.00  0.00    -0.246 OA
BRANCH  30  32
ATOM     32  C   UNL     1     184.418 183.361 174.640  1.00  0.00     0.067 A 
ATOM     33  C   UNL     1     185.555 182.793 174.247  1.00  0.00     0.066 A 
ATOM     34  C   UNL     1     184.434 184.578 175.176  1.00  0.00     0.066 A 
ATOM     35  C   UNL     1     186.707 183.442 174.390  1.00  0.00     0.162 A 
ATOM     36  C   UNL     1     185.587 185.227 175.320  1.00  0.00     0.162 A 
ATOM     37  C   UNL     1     186.722 184.659 174.926  1.00  0.00     0.200 A 
BRANCH  35  38
ATOM     38  O   UNL     1     187.810 182.876 174.000  1.00  0.00    -0.504 OA
ATOM     39  H   UNL     1     188.056 182.232 174.620  1.00  0.00     0.293 HD
ENDBRANCH  35  38
BRANCH  36  40
ATOM     40  O   UNL     1     185.589 186.415 175.844  1.00  0.00    -0.504 OA
ATOM     41  H   UNL     1     184.814 186.859 175.593  1.00  0.00     0.293 HD
ENDBRANCH  36  40
BRANCH  37  42
ATOM     42  O   UNL     1     187.850 185.293 175.067  1.00  0.00    -0.502 OA
ATOM     43  H   UNL     1     187.904 185.943 174.407  1.00  0.00     0.293 HD
ENDBRANCH  37  42
ENDBRANCH  30  32
ENDBRANCH  29  30
ENDBRANCH   2  29
TORSDOF 16
ENDMDL
MODEL 3
REMARK VINA RESULT:      -6.9      1.754      6.476
REMARK SMILES O=C(O[C@@H]1[C@@H](OC(=O)c2cc(O)c(O)c(O)c2)[C@H](O)[C@@H](CO)O[C@H]1O)c1cc(O)c(O)c(O)c1
REMARK SMILES IDX 23 1 5 2 18 3 4 4 20 5 24 6 21 7 22 8 25 10 19 12 3 14 2 15
REMARK SMILES IDX 1 16 26 17 34 18 27 19 32 20 28 21 30 22 33 23 29 25 31 27
REMARK SMILES IDX 6 29 7 30 8 31 9 32 17 33 10 34 15 35 11 36 13 37 16 38
REMARK SMILES IDX 12 40 14 42
REMARK H PARENT 22 9 25 11 19 13 33 24 29 26 31 28 16 39 12 41 14 43
REMARK Flexibility Score: inf
ROOT
ATOM      1  O   UNL     1     180.025 182.956 171.385  1.00  0.00    -0.340 OA
ATOM      2  C   UNL     1     182.211 184.526 171.889  1.00  0.00     0.254 C 
ATOM      3  C   UNL     1     181.607 184.429 170.567  1.00  0.00     0.190 C 
ATOM      4  C   UNL     1     181.882 183.364 172.706  1.00  0.00     0.276 C 
ATOM      5  C   UNL     1     180.188 184.103 170.669  1.00  0.00     0.179 C 
ATOM      6  C   UNL     1     180.453 183.077 172.669  1.00  0.00     0.293 C 
ENDROOT
BRANCH   5   7
ATOM      7  C   UNL     1     179.589 183.892 169.361  1.00  0.00     0.191 C 
BRANCH   7   8
ATOM      8  O   UNL     1     179.071 185.062 168.931  1.00  0.00    -0.394 OA
ATOM      9  H   UNL     1     179.750 185.693 168.969  1.00  0.00     0.210 HD
ENDBRANCH   7   8
ENDBRANCH   5   7
BRANCH   6  10
ATOM     10  O   UNL     1     180.243 181.911 173.337  1.00  0.00    -0.365 OA
ATOM     11  H   UNL     1     180.172 181.090 173.537  1.00  0.00     0.214 HD
ENDBRANCH   6  10
BRANCH   3  12
ATOM     12  O   UNL     1     181.750 185.615 169.920  1.00  0.00    -0.386 OA
ATOM     13  H   UNL     1     181.003 186.135 170.103  1.00  0.00     0.211 HD
ENDBRANCH   3  12
BRANCH   4  14
ATOM     14  O   UNL     1     182.235 183.605 173.998  1.00  0.00    -0.449 OA
BRANCH  14  15
ATOM     15  C   UNL     1     183.098 182.785 174.510  1.00  0.00     0.339 C 
ATOM     16  O   UNL     1     182.905 181.672 174.792  1.00  0.00    -0.246 OA
BRANCH  15  17
ATOM     17  C   UNL     1     184.346 183.428 174.695  1.00  0.00     0.067 A 
ATOM     18  C   UNL     1     184.403 184.605 175.312  1.00  0.00     0.066 A 
ATOM     19  C   UNL     1     185.461 182.854 174.252  1.00  0.00     0.066 A 
ATOM     20  C   UNL     1     185.575 185.207 175.487  1.00  0.00     0.162 A 
ATOM     21  C   UNL     1     186.634 183.458 174.427  1.00  0.00     0.162 A 
ATOM     22  C   UNL     1     186.690 184.634 175.044  1.00  0.00     0.200 A 
BRANCH  20  23
ATOM     23  O   UNL     1     185.618 186.357 176.091  1.00  0.00    -0.504 OA
ATOM     24  H   UNL     1     185.991 186.986 175.521  1.00  0.00     0.293 HD
ENDBRANCH  20  23
BRANCH  21  25
ATOM     25  O   UNL     1     187.715 182.887 173.991  1.00  0.00    -0.504 OA
ATOM     26  H   UNL     1     187.669 181.977 174.163  1.00  0.00     0.293 HD
ENDBRANCH  21  25
BRANCH  22  27
ATOM     27  O   UNL     1     187.837 185.224 175.214  1.00  0.00    -0.502 OA
ATOM     28  H   UNL     1     188.508 184.588 175.135  1.00  0.00     0.293 HD
ENDBRANCH  22  27
ENDBRANCH  15  17
ENDBRANCH  14  15
ENDBRANCH   4  14
BRANCH   2  29
ATOM     29  O   UNL     1     183.562 184.600 171.731  1.00  0.00    -0.452 OA
BRANCH  29  30
ATOM     30  C   UNL     1     184.097 185.753 171.981  1.00  0.00     0.338 C 
ATOM     31  O   UNL     1     183.549 186.687 172.410  1.00  0.00    -0.246 OA
BRANCH  30  32
ATOM     32  C   UNL     1     185.475 185.741 171.658  1.00  0.00     0.067 A 
ATOM     33  C   UNL     1     186.256 186.748 172.039  1.00  0.00     0.066 A 
ATOM     34  C   UNL     1     185.990 184.723 170.977  1.00  0.00     0.066 A 
ATOM     35  C   UNL     1     187.551 186.737 171.739  1.00  0.00     0.162 A 
ATOM     36  C   UNL     1     187.286 184.710 170.675  1.00  0.00     0.162 A 
ATOM     37  C   UNL     1     188.066 185.718 171.057  1.00  0.00     0.200 A 
BRANCH  35  38
ATOM     38  O   UNL     1     188.303 187.727 172.118  1.00  0.00    -0.504 OA
ATOM     39  H   UNL     1     188.570 188.207 171.371  1.00  0.00     0.293 HD
ENDBRANCH  35  38
BRANCH  36  40
ATOM     40  O   UNL     1     187.777 183.710 170.010  1.00  0.00    -0.504 OA
ATOM     41  H   UNL     1     188.533 183.397 170.446  1.00  0.00     0.293 HD
ENDBRANCH  36  40
BRANCH  37  42
ATOM     42  O   UNL     1     189.333 185.707 170.761  1.00  0.00    -0.502 OA
ATOM     43  H   UNL     1     189.814 185.899 171.531  1.00  0.00     0.293 HD
ENDBRANCH  37  42
ENDBRANCH  30  32
ENDBRANCH  29  30
ENDBRANCH   2  29
TORSDOF 16
ENDMDL
MODEL 4
REMARK VINA RESULT:      -6.9      1.880      7.397
REMARK SMILES O=C(O[C@@H]1[C@@H](OC(=O)c2cc(O)c(O)c(O)c2)[C@H](O)[C@@H](CO)O[C@H]1O)c1cc(O)c(O)c(O)c1
REMARK SMILES IDX 23 1 5 2 18 3 4 4 20 5 24 6 21 7 22 8 25 10 19 12 3 14 2 15
REMARK SMILES IDX 1 16 26 17 34 18 27 19 32 20 28 21 30 22 33 23 29 25 31 27
REMARK SMILES IDX 6 29 7 30 8 31 9 32 17 33 10 34 15 35 11 36 13 37 16 38
REMARK SMILES IDX 12 40 14 42
REMARK H PARENT 22 9 25 11 19 13 33 24 29 26 31 28 16 39 12 41 14 43
REMARK Flexibility Score: inf
ROOT
ATOM      1  O   UNL     1     180.833 183.433 170.061  1.00  0.00    -0.340 OA
ATOM      2  C   UNL     1     182.214 182.952 172.377  1.00  0.00     0.254 C 
ATOM      3  C   UNL     1     180.832 182.529 172.189  1.00  0.00     0.190 C 
ATOM      4  C   UNL     1     182.557 184.048 171.479  1.00  0.00     0.276 C 
ATOM      5  C   UNL     1     180.547 182.308 170.774  1.00  0.00     0.179 C 
ATOM      6  C   UNL     1     182.152 183.759 170.109  1.00  0.00     0.293 C 
ENDROOT
BRANCH   5   7
ATOM      7  C   UNL     1     179.144 181.994 170.551  1.00  0.00     0.191 C 
BRANCH   7   8
ATOM      8  O   UNL     1     178.503 183.124 170.185  1.00  0.00    -0.394 OA
ATOM      9  H   UNL     1     179.009 183.522 169.517  1.00  0.00     0.210 HD
ENDBRANCH   7   8
ENDBRANCH   5   7
BRANCH   6  10
ATOM     10  O   UNL     1     182.378 184.873 169.361  1.00  0.00    -0.365 OA
ATOM     11  H   UNL     1     182.568 185.401 168.725  1.00  0.00     0.214 HD
ENDBRANCH   6  10
BRANCH   3  12
ATOM     12  O   UNL     1     180.618 181.377 172.875  1.00  0.00    -0.386 OA
ATOM     13  H   UNL     1     179.949 180.903 172.440  1.00  0.00     0.211 HD
ENDBRANCH   3  12
BRANCH   4  14
ATOM     14  O   UNL     1     183.905 184.240 171.493  1.00  0.00    -0.449 OA
BRANCH  14  15
ATOM     15  C   UNL     1     184.299 185.462 171.669  1.00  0.00     0.339 C 
ATOM     16  O   UNL     1     183.625 186.369 171.948  1.00  0.00    -0.246 OA
BRANCH  15  17
ATOM     17  C   UNL     1     185.698 185.565 171.473  1.00  0.00     0.067 A 
ATOM     18  C   UNL     1     186.347 186.655 171.874  1.00  0.00     0.066 A 
ATOM     19  C   UNL     1     186.363 184.572 170.890  1.00  0.00     0.066 A 
ATOM     20  C   UNL     1     187.660 186.751 171.691  1.00  0.00     0.162 A 
ATOM     21  C   UNL     1     187.677 184.669 170.708  1.00  0.00     0.162 A 
ATOM     22  C   UNL     1     188.325 185.759 171.109  1.00  0.00     0.200 A 
BRANCH  20  23
ATOM     23  O   UNL     1     188.283 187.822 172.087  1.00  0.00    -0.504 OA
ATOM     24  H   UNL     1     189.196 187.658 172.089  1.00  0.00     0.293 HD
ENDBRANCH  20  23
BRANCH  21  25
ATOM     25  O   UNL     1     188.315 183.691 170.138  1.00  0.00    -0.504 OA
ATOM     26  H   UNL     1     188.411 183.877 169.235  1.00  0.00     0.293 HD
ENDBRANCH  21  25
BRANCH  22  27
ATOM     27  O   UNL     1     189.610 185.853 170.929  1.00  0.00    -0.502 OA
ATOM     28  H   UNL     1     189.930 186.545 171.458  1.00  0.00     0.293 HD
ENDBRANCH  22  27
ENDBRANCH  15  17
ENDBRANCH  14  15
ENDBRANCH   4  14
BRANCH   2  29
ATOM     29  O   UNL     1     182.358 183.362 173.667  1.00  0.00    -0.452 OA
BRANCH  29  30
ATOM     30  C   UNL     1     183.161 182.656 174.398  1.00  0.00     0.338 C 
ATOM     31  O   UNL     1     182.942 181.600 174.838  1.00  0.00    -0.246 OA
BRANCH  30  32
ATOM     32  C   UNL     1     184.379 183.346 174.605  1.00  0.00     0.067 A 
ATOM     33  C   UNL     1     185.529 182.791 174.232  1.00  0.00     0.066 A 
ATOM     34  C   UNL     1     184.375 184.549 175.171  1.00  0.00     0.066 A 
ATOM     35  C   UNL     1     186.674 183.440 174.424  1.00  0.00     0.162 A 
ATOM     36  C   UNL     1     185.520 185.199 175.364  1.00  0.00     0.162 A 
ATOM     37  C   UNL     1     186.669 184.644 174.990  1.00  0.00     0.200 A 
BRANCH  35  38
ATOM     38  O   UNL     1     187.791 182.888 174.053  1.00  0.00    -0.504 OA
ATOM     39  H   UNL     1     188.346 182.805 174.790  1.00  0.00     0.293 HD
ENDBRANCH  35  38
BRANCH  36  40
ATOM     40  O   UNL     1     185.502 186.373 175.917  1.00  0.00    -0.504 OA
ATOM     41  H   UNL     1     186.368 186.616 176.141  1.00  0.00     0.293 HD
ENDBRANCH  36  40
BRANCH  37  42
ATOM     42  O   UNL     1     187.789 185.278 175.180  1.00  0.00    -0.502 OA
ATOM     43  H   UNL     1     187.743 185.712 175.999  1.00  0.00     0.293 HD
ENDBRANCH  37  42
ENDBRANCH  30  32
ENDBRANCH  29  30
ENDBRANCH   2  29
TORSDOF 16
ENDMDL
MODEL 5
REMARK VINA RESULT:      -6.9      1.752      6.472
REMARK SMILES O=C(O[C@@H]1[C@@H](OC(=O)c2cc(O)c(O)c(O)c2)[C@H](O)[C@@H](CO)O[C@H]1O)c1cc(O)c(O)c(O)c1
REMARK SMILES IDX 23 1 5 2 18 3 4 4 20 5 24 6 21 7 22 8 25 10 19 12 3 14 2 15
REMARK SMILES IDX 1 16 26 17 34 18 27 19 32 20 28 21 30 22 33 23 29 25 31 27
REMARK SMILES IDX 6 29 7 30 8 31 9 32 17 33 10 34 15 35 11 36 13 37 16 38
REMARK SMILES IDX 12 40 14 42
REMARK H PARENT 22 9 25 11 19 13 33 24 29 26 31 28 16 39 12 41 14 43
REMARK Flexibility Score: inf
ROOT
ATOM      1  O   UNL     1     180.128 182.715 171.314  1.00  0.00    -0.340 OA
ATOM      2  C   UNL     1     182.243 184.389 171.790  1.00  0.00     0.254 C 
ATOM      3  C   UNL     1     181.680 184.200 170.459  1.00  0.00     0.190 C 
ATOM      4  C   UNL     1     181.932 183.262 172.660  1.00  0.00     0.276 C 
ATOM      5  C   UNL     1     180.270 183.828 170.541  1.00  0.00     0.179 C 
ATOM      6  C   UNL     1     180.516 182.920 172.601  1.00  0.00     0.293 C 
ENDROOT
BRANCH   5   7
ATOM      7  C   UNL     1     179.717 183.525 169.231  1.00  0.00     0.191 C 
BRANCH   7   8
ATOM      8  O   UNL     1     179.226 184.664 168.699  1.00  0.00    -0.394 OA
ATOM      9  H   UNL     1     178.939 184.464 167.839  1.00  0.00     0.210 HD
ENDBRANCH   7   8
ENDBRANCH   5   7
BRANCH   6  10
ATOM     10  O   UNL     1     180.328 181.784 173.325  1.00  0.00    -0.365 OA
ATOM     11  H   UNL     1     180.200 180.978 173.555  1.00  0.00     0.214 HD
ENDBRANCH   6  10
BRANCH   3  12
ATOM     12  O   UNL     1     181.798 185.354 169.753  1.00  0.00    -0.386 OA
ATOM     13  H   UNL     1     181.420 185.220 168.916  1.00  0.00     0.211 HD
ENDBRANCH   3  12
BRANCH   4  14
ATOM     14  O   UNL     1     182.239 183.584 173.946  1.00  0.00    -0.449 OA
BRANCH  14  15
ATOM     15  C   UNL     1     183.091 182.806 174.535  1.00  0.00     0.339 C 
ATOM     16  O   UNL     1     182.892 181.716 174.895  1.00  0.00    -0.246 OA
BRANCH  15  17
ATOM     17  C   UNL     1     184.336 183.462 174.696  1.00  0.00     0.067 A 
ATOM     18  C   UNL     1     185.456 182.871 174.289  1.00  0.00     0.066 A 
ATOM     19  C   UNL     1     184.383 184.669 175.253  1.00  0.00     0.066 A 
ATOM     20  C   UNL     1     186.624 183.489 174.440  1.00  0.00     0.162 A 
ATOM     21  C   UNL     1     185.553 185.285 175.404  1.00  0.00     0.162 A 
ATOM     22  C   UNL     1     186.672 184.695 174.996  1.00  0.00     0.200 A 
BRANCH  20  23
ATOM     23  O   UNL     1     187.713 182.902 174.038  1.00  0.00    -0.504 OA
ATOM     24  H   UNL     1     187.489 182.117 173.598  1.00  0.00     0.293 HD
ENDBRANCH  20  23
BRANCH  21  25
ATOM     25  O   UNL     1     185.586 186.464 175.948  1.00  0.00    -0.504 OA
ATOM     26  H   UNL     1     184.884 186.971 175.616  1.00  0.00     0.293 HD
ENDBRANCH  21  25
BRANCH  22  27
ATOM     27  O   UNL     1     187.816 185.298 175.144  1.00  0.00    -0.502 OA
ATOM     28  H   UNL     1     188.486 184.657 175.149  1.00  0.00     0.293 HD
ENDBRANCH  22  27
ENDBRANCH  15  17
ENDBRANCH  14  15
ENDBRANCH   4  14
BRANCH   2  29
ATOM     29  O   UNL     1     183.594 184.505 171.664  1.00  0.00    -0.452 OA
BRANCH  29  30
ATOM     30  C   UNL     1     184.076 185.697 171.824  1.00  0.00     0.338 C 
ATOM     31  O   UNL     1     183.473 186.648 172.121  1.00  0.00    -0.246 OA
BRANCH  30  32
ATOM     32  C   UNL     1     185.471 185.705 171.585  1.00  0.00     0.067 A 
ATOM     33  C   UNL     1     186.056 184.647 171.029  1.00  0.00     0.066 A 
ATOM     34  C   UNL     1     186.196 186.769 171.912  1.00  0.00     0.066 A 
ATOM     35  C   UNL     1     187.366 184.655 170.802  1.00  0.00     0.162 A 
ATOM     36  C   UNL     1     187.507 186.778 171.686  1.00  0.00     0.162 A 
ATOM     37  C   UNL     1     188.091 185.721 171.130  1.00  0.00     0.200 A 
BRANCH  35  38
ATOM     38  O   UNL     1     187.926 183.616 170.258  1.00  0.00    -0.504 OA
ATOM     39  H   UNL     1     188.248 183.849 169.421  1.00  0.00     0.293 HD
ENDBRANCH  35  38
BRANCH  36  40
ATOM     40  O   UNL     1     188.203 187.824 172.010  1.00  0.00    -0.504 OA
ATOM     41  H   UNL     1     189.102 187.649 171.859  1.00  0.00     0.293 HD
ENDBRANCH  36  40
BRANCH  37  42
ATOM     42  O   UNL     1     189.373 185.728 170.910  1.00  0.00    -0.502 OA
ATOM     43  H   UNL     1     189.779 186.250 171.562  1.00  0.00     0.293 HD
ENDBRANCH  37  42
ENDBRANCH  30  32
ENDBRANCH  29  30
ENDBRANCH   2  29
TORSDOF 16
ENDMDL
MODEL 6
REMARK VINA RESULT:      -6.9      1.753      6.610
REMARK SMILES O=C(O[C@@H]1[C@@H](OC(=O)c2cc(O)c(O)c(O)c2)[C@H](O)[C@@H](CO)O[C@H]1O)c1cc(O)c(O)c(O)c1
REMARK SMILES IDX 23 1 5 2 18 3 4 4 20 5 24 6 21 7 22 8 25 10 19 12 3 14 2 15
REMARK SMILES IDX 1 16 26 17 34 18 27 19 32 20 28 21 30 22 33 23 29 25 31 27
REMARK SMILES IDX 6 29 7 30 8 31 9 32 17 33 10 34 15 35 11 36 13 37 16 38
REMARK SMILES IDX 12 40 14 42
REMARK H PARENT 22 9 25 11 19 13 33 24 29 26 31 28 16 39 12 41 14 43
REMARK Flexibility Score: inf
ROOT
ATOM      1  O   UNL     1     180.035 182.852 171.470  1.00  0.00    -0.340 OA
ATOM      2  C   UNL     1     182.215 184.448 171.918  1.00  0.00     0.254 C 
ATOM      3  C   UNL     1     181.622 184.288 170.597  1.00  0.00     0.190 C 
ATOM      4  C   UNL     1     181.880 183.326 172.787  1.00  0.00     0.276 C 
ATOM      5  C   UNL     1     180.203 183.964 170.702  1.00  0.00     0.179 C 
ATOM      6  C   UNL     1     180.452 183.035 172.751  1.00  0.00     0.293 C 
ENDROOT
BRANCH   5   7
ATOM      7  C   UNL     1     179.616 183.689 169.400  1.00  0.00     0.191 C 
BRANCH   7   8
ATOM      8  O   UNL     1     179.112 184.839 168.905  1.00  0.00    -0.394 OA
ATOM      9  H   UNL     1     178.561 184.614 168.193  1.00  0.00     0.210 HD
ENDBRANCH   7   8
ENDBRANCH   5   7
BRANCH   6  10
ATOM     10  O   UNL     1     180.238 181.901 173.471  1.00  0.00    -0.365 OA
ATOM     11  H   UNL     1     180.025 181.354 174.084  1.00  0.00     0.214 HD
ENDBRANCH   6  10
BRANCH   3  12
ATOM     12  O   UNL     1     181.769 185.442 169.895  1.00  0.00    -0.386 OA
ATOM     13  H   UNL     1     181.855 185.224 168.997  1.00  0.00     0.211 HD
ENDBRANCH   3  12
BRANCH   4  14
ATOM     14  O   UNL     1     182.222 183.629 174.069  1.00  0.00    -0.449 OA
BRANCH  14  15
ATOM     15  C   UNL     1     183.074 182.830 174.630  1.00  0.00     0.339 C 
ATOM     16  O   UNL     1     182.867 181.739 174.980  1.00  0.00    -0.246 OA
BRANCH  15  17
ATOM     17  C   UNL     1     184.331 183.466 174.774  1.00  0.00     0.067 A 
ATOM     18  C   UNL     1     184.413 184.649 175.378  1.00  0.00     0.066 A 
ATOM     19  C   UNL     1     185.430 182.880 174.307  1.00  0.00     0.066 A 
ATOM     20  C   UNL     1     185.593 185.244 175.515  1.00  0.00     0.162 A 
ATOM     21  C   UNL     1     186.611 183.477 174.443  1.00  0.00     0.162 A 
ATOM     22  C   UNL     1     186.692 184.659 175.048  1.00  0.00     0.200 A 
BRANCH  20  23
ATOM     23  O   UNL     1     185.661 186.400 176.107  1.00  0.00    -0.504 OA
ATOM     24  H   UNL     1     185.991 186.281 176.965  1.00  0.00     0.293 HD
ENDBRANCH  20  23
BRANCH  21  25
ATOM     25  O   UNL     1     187.676 182.894 173.984  1.00  0.00    -0.504 OA
ATOM     26  H   UNL     1     188.325 182.882 174.646  1.00  0.00     0.293 HD
ENDBRANCH  21  25
BRANCH  22  27
ATOM     27  O   UNL     1     187.847 185.242 175.180  1.00  0.00    -0.502 OA
ATOM     28  H   UNL     1     188.478 184.751 174.710  1.00  0.00     0.293 HD
ENDBRANCH  22  27
ENDBRANCH  15  17
ENDBRANCH  14  15
ENDBRANCH   4  14
BRANCH   2  29
ATOM     29  O   UNL     1     183.567 184.518 171.769  1.00  0.00    -0.452 OA
BRANCH  29  30
ATOM     30  C   UNL     1     184.098 185.683 171.965  1.00  0.00     0.338 C 
ATOM     31  O   UNL     1     183.546 186.634 172.350  1.00  0.00    -0.246 OA
BRANCH  30  32
ATOM     32  C   UNL     1     185.475 185.662 171.643  1.00  0.00     0.067 A 
ATOM     33  C   UNL     1     185.984 184.637 170.964  1.00  0.00     0.066 A 
ATOM     34  C   UNL     1     186.261 186.666 172.017  1.00  0.00     0.066 A 
ATOM     35  C   UNL     1     187.278 184.618 170.660  1.00  0.00     0.162 A 
ATOM     36  C   UNL     1     187.556 186.648 171.713  1.00  0.00     0.162 A 
ATOM     37  C   UNL     1     188.064 185.624 171.034  1.00  0.00     0.200 A 
BRANCH  35  38
ATOM     38  O   UNL     1     187.763 183.612 169.995  1.00  0.00    -0.504 OA
ATOM     39  H   UNL     1     188.014 182.948 170.591  1.00  0.00     0.293 HD
ENDBRANCH  35  38
BRANCH  36  40
ATOM     40  O   UNL     1     188.313 187.635 172.084  1.00  0.00    -0.504 OA
ATOM     41  H   UNL     1     187.884 188.112 172.754  1.00  0.00     0.293 HD
ENDBRANCH  36  40
BRANCH  37  42
ATOM     42  O   UNL     1     189.331 185.604 170.737  1.00  0.00    -0.502 OA
ATOM     43  H   UNL     1     189.522 184.795 170.326  1.00  0.00     0.293 HD
ENDBRANCH  37  42
ENDBRANCH  30  32
ENDBRANCH  29  30
ENDBRANCH   2  29
TORSDOF 16
ENDMDL
MODEL 7
REMARK VINA RESULT:      -6.9      2.015      7.314
REMARK SMILES O=C(O[C@@H]1[C@@H](OC(=O)c2cc(O)c(O)c(O)c2)[C@H](O)[C@@H](CO)O[C@H]1O)c1cc(O)c(O)c(O)c1
REMARK SMILES IDX 23 1 5 2 18 3 4 4 20 5 24 6 21 7 22 8 25 10 19 12 3 14 2 15
REMARK SMILES IDX 1 16 26 17 34 18 27 19 32 20 28 21 30 22 33 23 29 25 31 27
REMARK SMILES IDX 6 29 7 30 8 31 9 32 17 33 10 34 15 35 11 36 13 37 16 38
REMARK SMILES IDX 12 40 14 42
REMARK H PARENT 22 9 25 11 19 13 33 24 29 26 31 28 16 39 12 41 14 43
REMARK Flexibility Score: inf
ROOT
ATOM      1  O   UNL     1     180.872 182.656 170.139  1.00  0.00    -0.340 OA
ATOM      2  C   UNL     1     182.317 182.607 172.465  1.00  0.00     0.254 C 
ATOM      3  C   UNL     1     180.974 182.049 172.367  1.00  0.00     0.190 C 
ATOM      4  C   UNL     1     182.555 183.597 171.422  1.00  0.00     0.276 C 
ATOM      5  C   UNL     1     180.691 181.618 171.001  1.00  0.00     0.179 C 
ATOM      6  C   UNL     1     182.159 183.095 170.112  1.00  0.00     0.293 C 
ENDROOT
BRANCH   5   7
ATOM      7  C   UNL     1     179.319 181.161 170.854  1.00  0.00     0.191 C 
BRANCH   7   8
ATOM      8  O   UNL     1     178.553 182.211 170.487  1.00  0.00    -0.394 OA
ATOM      9  H   UNL     1     178.743 182.906 171.071  1.00  0.00     0.210 HD
ENDBRANCH   7   8
ENDBRANCH   5   7
BRANCH   6  10
ATOM     10  O   UNL     1     182.280 184.113 169.219  1.00  0.00    -0.365 OA
ATOM     11  H   UNL     1     182.418 184.870 168.862  1.00  0.00     0.214 HD
ENDBRANCH   6  10
BRANCH   3  12
ATOM     12  O   UNL     1     180.867 180.985 173.204  1.00  0.00    -0.386 OA
ATOM     13  H   UNL     1     180.246 180.397 172.845  1.00  0.00     0.211 HD
ENDBRANCH   3  12
BRANCH   4  14
ATOM     14  O   UNL     1     183.881 183.900 171.380  1.00  0.00    -0.449 OA
BRANCH  14  15
ATOM     15  C   UNL     1     184.174 185.161 171.442  1.00  0.00     0.339 C 
ATOM     16  O   UNL     1     183.422 186.035 171.601  1.00  0.00    -0.246 OA
BRANCH  15  17
ATOM     17  C   UNL     1     185.568 185.355 171.286  1.00  0.00     0.067 A 
ATOM     18  C   UNL     1     186.118 186.521 171.615  1.00  0.00     0.066 A 
ATOM     19  C   UNL     1     186.327 184.371 170.811  1.00  0.00     0.066 A 
ATOM     20  C   UNL     1     187.427 186.702 171.470  1.00  0.00     0.162 A 
ATOM     21  C   UNL     1     187.637 184.554 170.665  1.00  0.00     0.162 A 
ATOM     22  C   UNL     1     188.186 185.719 170.995  1.00  0.00     0.200 A 
BRANCH  20  23
ATOM     23  O   UNL     1     187.954 187.845 171.795  1.00  0.00    -0.504 OA
ATOM     24  H   UNL     1     187.662 188.082 172.642  1.00  0.00     0.293 HD
ENDBRANCH  20  23
BRANCH  21  25
ATOM     25  O   UNL     1     188.367 183.585 170.202  1.00  0.00    -0.504 OA
ATOM     26  H   UNL     1     188.516 182.967 170.877  1.00  0.00     0.293 HD
ENDBRANCH  21  25
BRANCH  22  27
ATOM     27  O   UNL     1     189.467 185.897 170.852  1.00  0.00    -0.502 OA
ATOM     28  H   UNL     1     189.843 186.008 171.693  1.00  0.00     0.293 HD
ENDBRANCH  22  27
ENDBRANCH  15  17
ENDBRANCH  14  15
ENDBRANCH   4  14
BRANCH   2  29
ATOM     29  O   UNL     1     182.440 183.196 173.686  1.00  0.00    -0.452 OA
BRANCH  29  30
ATOM     30  C   UNL     1     183.253 182.619 174.513  1.00  0.00     0.338 C 
ATOM     31  O   UNL     1     183.042 181.646 175.118  1.00  0.00    -0.246 OA
BRANCH  30  32
ATOM     32  C   UNL     1     184.470 183.336 174.596  1.00  0.00     0.067 A 
ATOM     33  C   UNL     1     184.472 184.594 175.028  1.00  0.00     0.066 A 
ATOM     34  C   UNL     1     185.611 182.752 174.245  1.00  0.00     0.066 A 
ATOM     35  C   UNL     1     185.615 185.268 175.109  1.00  0.00     0.162 A 
ATOM     36  C   UNL     1     186.756 183.425 174.325  1.00  0.00     0.162 A 
ATOM     37  C   UNL     1     186.757 184.683 174.758  1.00  0.00     0.200 A 
BRANCH  35  38
ATOM     38  O   UNL     1     185.604 186.496 175.533  1.00  0.00    -0.504 OA
ATOM     39  H   UNL     1     186.347 186.939 175.199  1.00  0.00     0.293 HD
ENDBRANCH  35  38
BRANCH  36  40
ATOM     40  O   UNL     1     187.864 182.844 173.980  1.00  0.00    -0.504 OA
ATOM     41  H   UNL     1     187.986 182.943 173.066  1.00  0.00     0.293 HD
ENDBRANCH  36  40
BRANCH  37  42
ATOM     42  O   UNL     1     187.876 185.343 174.835  1.00  0.00    -0.502 OA
ATOM     43  H   UNL     1     187.710 186.151 175.260  1.00  0.00     0.293 HD
ENDBRANCH  37  42
ENDBRANCH  30  32
ENDBRANCH  29  30
ENDBRANCH   2  29
TORSDOF 16
ENDMDL
MODEL 8
REMARK VINA RESULT:      -6.8      2.080      6.693
REMARK SMILES O=C(O[C@@H]1[C@@H](OC(=O)c2cc(O)c(O)c(O)c2)[C@H](O)[C@@H](CO)O[C@H]1O)c1cc(O)c(O)c(O)c1
REMARK SMILES IDX 23 1 5 2 18 3 4 4 20 5 24 6 21 7 22 8 25 10 19 12 3 14 2 15
REMARK SMILES IDX 1 16 26 17 34 18 27 19 32 20 28 21 30 22 33 23 29 25 31 27
REMARK SMILES IDX 6 29 7 30 8 31 9 32 17 33 10 34 15 35 11 36 13 37 16 38
REMARK SMILES IDX 12 40 14 42
REMARK H PARENT 22 9 25 11 19 13 33 24 29 26 31 28 16 39 12 41 14 43
REMARK Flexibility Score: inf
ROOT
ATOM      1  O   UNL     1     179.480 185.719 171.526  1.00  0.00    -0.340 OA
ATOM      2  C   UNL     1     182.097 186.426 171.140  1.00  0.00     0.254 C 
ATOM      3  C   UNL     1     181.062 186.689 170.148  1.00  0.00     0.190 C 
ATOM      4  C   UNL     1     181.708 185.345 172.036  1.00  0.00     0.276 C 
ATOM      5  C   UNL     1     179.757 186.828 170.787  1.00  0.00     0.179 C 
ATOM      6  C   UNL     1     180.358 185.541 172.549  1.00  0.00     0.293 C 
ENDROOT
BRANCH   5   7
ATOM      7  C   UNL     1     178.692 186.979 169.808  1.00  0.00     0.191 C 
BRANCH   7   8
ATOM      8  O   UNL     1     178.436 188.296 169.652  1.00  0.00    -0.394 OA
ATOM      9  H   UNL     1     179.215 188.754 169.863  1.00  0.00     0.210 HD
ENDBRANCH   7   8
ENDBRANCH   5   7
BRANCH   6  10
ATOM     10  O   UNL     1     180.016 184.434 173.262  1.00  0.00    -0.365 OA
ATOM     11  H   UNL     1     179.581 183.839 173.683  1.00  0.00     0.214 HD
ENDBRANCH   6  10
BRANCH   3  12
ATOM     12  O   UNL     1     181.359 187.833 169.480  1.00  0.00    -0.386 OA
ATOM     13  H   UNL     1     182.051 187.650 168.889  1.00  0.00     0.211 HD
ENDBRANCH   3  12
BRANCH   4  14
ATOM     14  O   UNL     1     182.564 185.303 173.093  1.00  0.00    -0.449 OA
BRANCH  14  15
ATOM     15  C   UNL     1     183.083 184.144 173.354  1.00  0.00     0.339 C 
ATOM     16  O   UNL     1     182.663 183.111 173.018  1.00  0.00    -0.246 OA
BRANCH  15  17
ATOM     17  C   UNL     1     184.261 184.290 174.127  1.00  0.00     0.067 A 
ATOM     18  C   UNL     1     184.349 185.265 175.028  1.00  0.00     0.066 A 
ATOM     19  C   UNL     1     185.277 183.450 173.953  1.00  0.00     0.066 A 
ATOM     20  C   UNL     1     185.454 185.400 175.754  1.00  0.00     0.162 A 
ATOM     21  C   UNL     1     186.383 183.586 174.680  1.00  0.00     0.162 A 
ATOM     22  C   UNL     1     186.471 184.561 175.580  1.00  0.00     0.200 A 
BRANCH  20  23
ATOM     23  O   UNL     1     185.529 186.357 176.631  1.00  0.00    -0.504 OA
ATOM     24  H   UNL     1     186.339 186.796 176.531  1.00  0.00     0.293 HD
ENDBRANCH  20  23
BRANCH  21  25
ATOM     25  O   UNL     1     187.369 182.759 174.501  1.00  0.00    -0.504 OA
ATOM     26  H   UNL     1     187.062 182.018 174.037  1.00  0.00     0.293 HD
ENDBRANCH  21  25
BRANCH  22  27
ATOM     27  O   UNL     1     187.553 184.694 176.290  1.00  0.00    -0.502 OA
ATOM     28  H   UNL     1     187.308 184.842 177.173  1.00  0.00     0.293 HD
ENDBRANCH  22  27
ENDBRANCH  15  17
ENDBRANCH  14  15
ENDBRANCH   4  14
BRANCH   2  29
ATOM     29  O   UNL     1     183.236 186.079 170.479  1.00  0.00    -0.452 OA
BRANCH  29  30
ATOM     30  C   UNL     1     184.163 186.983 170.436  1.00  0.00     0.338 C 
ATOM     31  O   UNL     1     184.075 188.035 169.944  1.00  0.00    -0.246 OA
BRANCH  30  32
ATOM     32  C   UNL     1     185.335 186.523 171.082  1.00  0.00     0.067 A 
ATOM     33  C   UNL     1     185.974 185.453 170.617  1.00  0.00     0.066 A 
ATOM     34  C   UNL     1     185.801 187.162 172.150  1.00  0.00     0.066 A 
ATOM     35  C   UNL     1     187.077 185.021 171.221  1.00  0.00     0.162 A 
ATOM     36  C   UNL     1     186.904 186.731 172.756  1.00  0.00     0.162 A 
ATOM     37  C   UNL     1     187.542 185.661 172.290  1.00  0.00     0.200 A 
BRANCH  35  38
ATOM     38  O   UNL     1     187.692 183.975 170.756  1.00  0.00    -0.504 OA
ATOM     39  H   UNL     1     187.065 183.339 170.511  1.00  0.00     0.293 HD
ENDBRANCH  35  38
BRANCH  36  40
ATOM     40  O   UNL     1     187.348 187.364 173.799  1.00  0.00    -0.504 OA
ATOM     41  H   UNL     1     187.909 188.049 173.522  1.00  0.00     0.293 HD
ENDBRANCH  36  40
BRANCH  37  42
ATOM     42  O   UNL     1     188.621 185.239 172.883  1.00  0.00    -0.502 OA
ATOM     43  H   UNL     1     188.456 184.388 173.217  1.00  0.00     0.293 HD
ENDBRANCH  37  42
ENDBRANCH  30  32
ENDBRANCH  29  30
ENDBRANCH   2  29
TORSDOF 16
ENDMDL
MODEL 9
REMARK VINA RESULT:      -6.8      2.596      5.015
REMARK SMILES O=C(O[C@@H]1[C@@H](OC(=O)c2cc(O)c(O)c(O)c2)[C@H](O)[C@@H](CO)O[C@H]1O)c1cc(O)c(O)c(O)c1
REMARK SMILES IDX 23 1 5 2 18 3 4 4 20 5 24 6 21 7 22 8 25 10 19 12 3 14 2 15
REMARK SMILES IDX 1 16 26 17 34 18 27 19 32 20 28 21 30 22 33 23 29 25 31 27
REMARK SMILES IDX 6 29 7 30 8 31 9 32 17 33 10 34 15 35 11 36 13 37 16 38
REMARK SMILES IDX 12 40 14 42
REMARK H PARENT 22 9 25 11 19 13 33 24 29 26 31 28 16 39 12 41 14 43
REMARK Flexibility Score: inf
ROOT
ATOM      1  O   UNL     1     186.632 188.641 170.234  1.00  0.00    -0.340 OA
ATOM      2  C   UNL     1     184.284 187.240 170.070  1.00  0.00     0.254 C 
ATOM      3  C   UNL     1     184.537 188.437 169.278  1.00  0.00     0.190 C 
ATOM      4  C   UNL     1     185.131 187.203 171.256  1.00  0.00     0.276 C 
ATOM      5  C   UNL     1     185.968 188.610 169.045  1.00  0.00     0.179 C 
ATOM      6  C   UNL     1     186.524 187.473 170.922  1.00  0.00     0.293 C 
ENDROOT
BRANCH   5   7
ATOM      7  C   UNL     1     186.253 189.857 168.352  1.00  0.00     0.191 C 
BRANCH   7   8
ATOM      8  O   UNL     1     187.377 190.391 168.874  1.00  0.00    -0.394 OA
ATOM      9  H   UNL     1     187.467 191.244 168.519  1.00  0.00     0.210 HD
ENDBRANCH   7   8
ENDBRANCH   5   7
BRANCH   6  10
ATOM     10  O   UNL     1     187.225 187.557 172.084  1.00  0.00    -0.365 OA
ATOM     11  H   UNL     1     187.591 187.378 172.828  1.00  0.00     0.214 HD
ENDBRANCH   6  10
BRANCH   3  12
ATOM     12  O   UNL     1     183.898 188.329 168.084  1.00  0.00    -0.386 OA
ATOM     13  H   UNL     1     184.181 189.027 167.542  1.00  0.00     0.211 HD
ENDBRANCH   3  12
BRANCH   4  14
ATOM     14  O   UNL     1     185.060 185.969 171.824  1.00  0.00    -0.449 OA
BRANCH  14  15
ATOM     15  C   UNL     1     184.614 185.932 173.040  1.00  0.00     0.339 C 
ATOM     16  O   UNL     1     183.580 186.322 173.406  1.00  0.00    -0.246 OA
BRANCH  15  17
ATOM     17  C   UNL     1     185.570 185.340 173.902  1.00  0.00     0.067 A 
ATOM     18  C   UNL     1     186.324 184.334 173.468  1.00  0.00     0.066 A 
ATOM     19  C   UNL     1     185.714 185.792 175.145  1.00  0.00     0.066 A 
ATOM     20  C   UNL     1     187.222 183.780 174.277  1.00  0.00     0.162 A 
ATOM     21  C   UNL     1     186.612 185.237 175.954  1.00  0.00     0.162 A 
ATOM     22  C   UNL     1     187.366 184.231 175.519  1.00  0.00     0.200 A 
BRANCH  20  23
ATOM     23  O   UNL     1     187.954 182.798 173.841  1.00  0.00    -0.504 OA
ATOM     24  H   UNL     1     188.812 182.886 174.181  1.00  0.00     0.293 HD
ENDBRANCH  20  23
BRANCH  21  25
ATOM     25  O   UNL     1     186.744 185.688 177.165  1.00  0.00    -0.504 OA
ATOM     26  H   UNL     1     186.204 185.192 177.733  1.00  0.00     0.293 HD
ENDBRANCH  21  25
BRANCH  22  27
ATOM     27  O   UNL     1     188.244 183.689 176.311  1.00  0.00    -0.502 OA
ATOM     28  H   UNL     1     188.763 183.101 175.814  1.00  0.00     0.293 HD
ENDBRANCH  22  27
ENDBRANCH  15  17
ENDBRANCH  14  15
ENDBRANCH   4  14
BRANCH   2  29
ATOM     29  O   UNL     1     182.976 187.254 170.448  1.00  0.00    -0.452 OA
BRANCH  29  30
ATOM     30  C   UNL     1     182.213 186.377 169.876  1.00  0.00     0.338 C 
ATOM     31  O   UNL     1     182.032 186.266 168.731  1.00  0.00    -0.246 OA
BRANCH  30  32
ATOM     32  C   UNL     1     181.605 185.542 170.843  1.00  0.00     0.067 A 
ATOM     33  C   UNL     1     182.038 184.296 171.012  1.00  0.00     0.066 A 
ATOM     34  C   UNL     1     180.602 186.003 171.583  1.00  0.00     0.066 A 
ATOM     35  C   UNL     1     181.469 183.511 171.922  1.00  0.00     0.162 A 
ATOM     36  C   UNL     1     180.031 185.218 172.494  1.00  0.00     0.162 A 
ATOM     37  C   UNL     1     180.465 183.973 172.663  1.00  0.00     0.200 A 
BRANCH  35  38
ATOM     38  O   UNL     1     181.902 182.296 172.079  1.00  0.00    -0.504 OA
ATOM     39  H   UNL     1     182.515 182.105 171.411  1.00  0.00     0.293 HD
ENDBRANCH  35  38
BRANCH  36  40
ATOM     40  O   UNL     1     179.052 185.680 173.211  1.00  0.00    -0.504 OA
ATOM     41  H   UNL     1     178.301 185.155 173.073  1.00  0.00     0.293 HD
ENDBRANCH  36  40
BRANCH  37  42
ATOM     42  O   UNL     1     179.906 183.205 173.552  1.00  0.00    -0.502 OA
ATOM     43  H   UNL     1     178.989 183.214 173.410  1.00  0.00     0.293 HD
ENDBRANCH  37  42
ENDBRANCH  30  32
ENDBRANCH  29  30
ENDBRANCH   2  29
TORSDOF 16
ENDMDL
MODEL 10
REMARK VINA RESULT:      -6.8      2.192      6.183
REMARK SMILES O=C(O[C@@H]1[C@@H](OC(=O)c2cc(O)c(O)c(O)c2)[C@H](O)[C@@H](CO)O[C@H]1O)c1cc(O)c(O)c(O)c1
REMARK SMILES IDX 23 1 5 2 18 3 4 4 20 5 24 6 21 7 22 8 25 10 19 12 3 14 2 15
REMARK SMILES IDX 1 16 26 17 34 18 27 19 32 20 28 21 30 22 33 23 29 25 31 27
REMARK SMILES IDX 6 29 7 30 8 31 9 32 17 33 10 34 15 35 11 36 13 37 16 38
REMARK SMILES IDX 12 40 14 42
REMARK H PARENT 22 9 25 11 19 13 33 24 29 26 31 28 16 39 12 41 14 43
REMARK Flexibility Score: inf
ROOT
ATOM      1  O   UNL     1     180.647 181.155 171.474  1.00  0.00    -0.340 OA
ATOM      2  C   UNL     1     181.597 183.709 171.743  1.00  0.00     0.254 C 
ATOM      3  C   UNL     1     180.740 183.307 170.635  1.00  0.00     0.190 C 
ATOM      4  C   UNL     1     182.276 182.560 172.329  1.00  0.00     0.276 C 
ATOM      5  C   UNL     1     179.884 182.189 171.023  1.00  0.00     0.179 C 
ATOM      6  C   UNL     1     181.344 181.472 172.597  1.00  0.00     0.293 C 
ENDROOT
BRANCH   5   7
ATOM      7  C   UNL     1     179.100 181.698 169.900  1.00  0.00     0.191 C 
BRANCH   7   8
ATOM      8  O   UNL     1     177.833 182.143 170.034  1.00  0.00    -0.394 OA
ATOM      9  H   UNL     1     177.292 181.399 170.153  1.00  0.00     0.210 HD
ENDBRANCH   7   8
ENDBRANCH   5   7
BRANCH   6  10
ATOM     10  O   UNL     1     182.065 180.395 173.011  1.00  0.00    -0.365 OA
ATOM     11  H   UNL     1     182.418 179.785 173.482  1.00  0.00     0.214 HD
ENDBRANCH   6  10
BRANCH   3  12
ATOM     12  O   UNL     1     179.964 184.358 170.263  1.00  0.00    -0.386 OA
ATOM     13  H   UNL     1     179.089 184.170 170.507  1.00  0.00     0.211 HD
ENDBRANCH   3  12
BRANCH   4  14
ATOM     14  O   UNL     1     182.852 182.927 173.506  1.00  0.00    -0.449 OA
BRANCH  14  15
ATOM     15  C   UNL     1     184.133 182.745 173.589  1.00  0.00     0.339 C 
ATOM     16  O   UNL     1     184.742 181.899 173.071  1.00  0.00    -0.246 OA
BRANCH  15  17
ATOM     17  C   UNL     1     184.723 183.730 174.418  1.00  0.00     0.067 A 
ATOM     18  C   UNL     1     186.002 183.626 174.768  1.00  0.00     0.066 A 
ATOM     19  C   UNL     1     183.998 184.761 174.844  1.00  0.00     0.066 A 
ATOM     20  C   UNL     1     186.555 184.552 175.544  1.00  0.00     0.162 A 
ATOM     21  C   UNL     1     184.553 185.687 175.621  1.00  0.00     0.162 A 
ATOM     22  C   UNL     1     185.831 185.582 175.970  1.00  0.00     0.200 A 
BRANCH  20  23
ATOM     23  O   UNL     1     187.806 184.440 175.880  1.00  0.00    -0.504 OA
ATOM     24  H   UNL     1     188.269 184.027 175.190  1.00  0.00     0.293 HD
ENDBRANCH  20  23
BRANCH  21  25
ATOM     25  O   UNL     1     183.834 186.689 176.030  1.00  0.00    -0.504 OA
ATOM     26  H   UNL     1     183.498 187.142 175.294  1.00  0.00     0.293 HD
ENDBRANCH  21  25
BRANCH  22  27
ATOM     27  O   UNL     1     186.373 186.489 176.731  1.00  0.00    -0.502 OA
ATOM     28  H   UNL     1     187.170 186.759 176.341  1.00  0.00     0.293 HD
ENDBRANCH  22  27
ENDBRANCH  15  17
ENDBRANCH  14  15
ENDBRANCH   4  14
BRANCH   2  29
ATOM     29  O   UNL     1     182.522 184.586 171.264  1.00  0.00    -0.452 OA
BRANCH  29  30
ATOM     30  C   UNL     1     182.370 185.821 171.625  1.00  0.00     0.338 C 
ATOM     31  O   UNL     1     181.424 186.279 172.127  1.00  0.00    -0.246 OA
BRANCH  30  32
ATOM     32  C   UNL     1     183.530 186.573 171.324  1.00  0.00     0.067 A 
ATOM     33  C   UNL     1     184.591 186.506 172.124  1.00  0.00     0.066 A 
ATOM     34  C   UNL     1     183.561 187.344 170.242  1.00  0.00     0.066 A 
ATOM     35  C   UNL     1     185.683 187.211 171.841  1.00  0.00     0.162 A 
ATOM     36  C   UNL     1     184.653 188.050 169.958  1.00  0.00     0.162 A 
ATOM     37  C   UNL     1     185.713 187.982 170.757  1.00  0.00     0.200 A 
BRANCH  35  38
ATOM     38  O   UNL     1     186.713 187.136 172.629  1.00  0.00    -0.504 OA
ATOM     39  H   UNL     1     186.460 186.727 173.421  1.00  0.00     0.293 HD
ENDBRANCH  35  38
BRANCH  36  40
ATOM     40  O   UNL     1     184.670 188.799 168.898  1.00  0.00    -0.504 OA
ATOM     41  H   UNL     1     183.832 189.177 168.779  1.00  0.00     0.293 HD
ENDBRANCH  36  40
BRANCH  37  42
ATOM     42  O   UNL     1     186.780 188.673 170.481  1.00  0.00    -0.502 OA
ATOM     43  H   UNL     1     186.673 189.052 169.640  1.00  0.00     0.293 HD
ENDBRANCH  37  42
ENDBRANCH  30  32
ENDBRANCH  29  30
ENDBRANCH   2  29
TORSDOF 16
ENDMDL
