REMARK VINA RESULT:      -6.8      2.192      6.183
REMARK SMILES O=C(O[C@@H]1[C@@H](OC(=O)c2cc(O)c(O)c(O)c2)[C@H](O)[C@@H](CO)O[C@H]1O)c1cc(O)c(O)c(O)c1
REMARK SMILES IDX 23 1 5 2 18 3 4 4 20 5 24 6 21 7 22 8 25 10 19 12 3 14 2 15
REMARK SMILES IDX 1 16 26 17 34 18 27 19 32 20 28 21 30 22 33 23 29 25 31 27
REMARK SMILES IDX 6 29 7 30 8 31 9 32 17 33 10 34 15 35 11 36 13 37 16 38
REMARK SMILES IDX 12 40 14 42
REMARK H PARENT 22 9 25 11 19 13 33 24 29 26 31 28 16 39 12 41 14 43
REMARK Flexibility Score: inf
ROOT
ATOM      1  O   UNL     1     180.647 181.155 171.474  1.00  0.00    -0.340 OA
ATOM      2  C   UNL     1     181.597 183.709 171.743  1.00  0.00     0.254 C 
ATOM      3  C   UNL     1     180.740 183.307 170.635  1.00  0.00     0.190 C 
ATOM      4  C   UNL     1     182.276 182.560 172.329  1.00  0.00     0.276 C 
ATOM      5  C   UNL     1     179.884 182.189 171.023  1.00  0.00     0.179 C 
ATOM      6  C   UNL     1     181.344 181.472 172.597  1.00  0.00     0.293 C 
ENDROOT
BRANCH   5   7
ATOM      7  C   UNL     1     179.100 181.698 169.900  1.00  0.00     0.191 C 
BRANCH   7   8
ATOM      8  O   UNL     1     177.833 182.143 170.034  1.00  0.00    -0.394 OA
ATOM      9  H   UNL     1     177.292 181.399 170.153  1.00  0.00     0.210 HD
ENDBRANCH   7   8
ENDBRANCH   5   7
BRANCH   6  10
ATOM     10  O   UNL     1     182.065 180.395 173.011  1.00  0.00    -0.365 OA
ATOM     11  H   UNL     1     182.418 179.785 173.482  1.00  0.00     0.214 HD
ENDBRANCH   6  10
BRANCH   3  12
ATOM     12  O   UNL     1     179.964 184.358 170.263  1.00  0.00    -0.386 OA
ATOM     13  H   UNL     1     179.089 184.170 170.507  1.00  0.00     0.211 HD
ENDBRANCH   3  12
BRANCH   4  14
ATOM     14  O   UNL     1     182.852 182.927 173.506  1.00  0.00    -0.449 OA
BRANCH  14  15
ATOM     15  C   UNL     1     184.133 182.745 173.589  1.00  0.00     0.339 C 
ATOM     16  O   UNL     1     184.742 181.899 173.071  1.00  0.00    -0.246 OA
BRANCH  15  17
ATOM     17  C   UNL     1     184.723 183.730 174.418  1.00  0.00     0.067 A 
ATOM     18  C   UNL     1     186.002 183.626 174.768  1.00  0.00     0.066 A 
ATOM     19  C   UNL     1     183.998 184.761 174.844  1.00  0.00     0.066 A 
ATOM     20  C   UNL     1     186.555 184.552 175.544  1.00  0.00     0.162 A 
ATOM     21  C   UNL     1     184.553 185.687 175.621  1.00  0.00     0.162 A 
ATOM     22  C   UNL     1     185.831 185.582 175.970  1.00  0.00     0.200 A 
BRANCH  20  23
ATOM     23  O   UNL     1     187.806 184.440 175.880  1.00  0.00    -0.504 OA
ATOM     24  H   UNL     1     188.269 184.027 175.190  1.00  0.00     0.293 HD
ENDBRANCH  20  23
BRANCH  21  25
ATOM     25  O   UNL     1     183.834 186.689 176.030  1.00  0.00    -0.504 OA
ATOM     26  H   UNL     1     183.498 187.142 175.294  1.00  0.00     0.293 HD
ENDBRANCH  21  25
BRANCH  22  27
ATOM     27  O   UNL     1     186.373 186.489 176.731  1.00  0.00    -0.502 OA
ATOM     28  H   UNL     1     187.170 186.759 176.341  1.00  0.00     0.293 HD
ENDBRANCH  22  27
ENDBRANCH  15  17
ENDBRANCH  14  15
ENDBRANCH   4  14
BRANCH   2  29
ATOM     29  O   UNL     1     182.522 184.586 171.264  1.00  0.00    -0.452 OA
BRANCH  29  30
ATOM     30  C   UNL     1     182.370 185.821 171.625  1.00  0.00     0.338 C 
ATOM     31  O   UNL     1     181.424 186.279 172.127  1.00  0.00    -0.246 OA
BRANCH  30  32
ATOM     32  C   UNL     1     183.530 186.573 171.324  1.00  0.00     0.067 A 
ATOM     33  C   UNL     1     184.591 186.506 172.124  1.00  0.00     0.066 A 
ATOM     34  C   UNL     1     183.561 187.344 170.242  1.00  0.00     0.066 A 
ATOM     35  C   UNL     1     185.683 187.211 171.841  1.00  0.00     0.162 A 
ATOM     36  C   UNL     1     184.653 188.050 169.958  1.00  0.00     0.162 A 
ATOM     37  C   UNL     1     185.713 187.982 170.757  1.00  0.00     0.200 A 
BRANCH  35  38
ATOM     38  O   UNL     1     186.713 187.136 172.629  1.00  0.00    -0.504 OA
ATOM     39  H   UNL     1     186.460 186.727 173.421  1.00  0.00     0.293 HD
ENDBRANCH  35  38
BRANCH  36  40
ATOM     40  O   UNL     1     184.670 188.799 168.898  1.00  0.00    -0.504 OA
ATOM     41  H   UNL     1     183.832 189.177 168.779  1.00  0.00     0.293 HD
ENDBRANCH  36  40
BRANCH  37  42
ATOM     42  O   UNL     1     186.780 188.673 170.481  1.00  0.00    -0.502 OA
ATOM     43  H   UNL     1     186.673 189.052 169.640  1.00  0.00     0.293 HD
ENDBRANCH  37  42
ENDBRANCH  30  32
ENDBRANCH  29  30
ENDBRANCH   2  29
TORSDOF 16
