REMARK VINA RESULT:      -6.9      1.753      6.610
REMARK SMILES O=C(O[C@@H]1[C@@H](OC(=O)c2cc(O)c(O)c(O)c2)[C@H](O)[C@@H](CO)O[C@H]1O)c1cc(O)c(O)c(O)c1
REMARK SMILES IDX 23 1 5 2 18 3 4 4 20 5 24 6 21 7 22 8 25 10 19 12 3 14 2 15
REMARK SMILES IDX 1 16 26 17 34 18 27 19 32 20 28 21 30 22 33 23 29 25 31 27
REMARK SMILES IDX 6 29 7 30 8 31 9 32 17 33 10 34 15 35 11 36 13 37 16 38
REMARK SMILES IDX 12 40 14 42
REMARK H PARENT 22 9 25 11 19 13 33 24 29 26 31 28 16 39 12 41 14 43
REMARK Flexibility Score: inf
ROOT
ATOM      1  O   UNL     1     180.035 182.852 171.470  1.00  0.00    -0.340 OA
ATOM      2  C   UNL     1     182.215 184.448 171.918  1.00  0.00     0.254 C 
ATOM      3  C   UNL     1     181.622 184.288 170.597  1.00  0.00     0.190 C 
ATOM      4  C   UNL     1     181.880 183.326 172.787  1.00  0.00     0.276 C 
ATOM      5  C   UNL     1     180.203 183.964 170.702  1.00  0.00     0.179 C 
ATOM      6  C   UNL     1     180.452 183.035 172.751  1.00  0.00     0.293 C 
ENDROOT
BRANCH   5   7
ATOM      7  C   UNL     1     179.616 183.689 169.400  1.00  0.00     0.191 C 
BRANCH   7   8
ATOM      8  O   UNL     1     179.112 184.839 168.905  1.00  0.00    -0.394 OA
ATOM      9  H   UNL     1     178.561 184.614 168.193  1.00  0.00     0.210 HD
ENDBRANCH   7   8
ENDBRANCH   5   7
BRANCH   6  10
ATOM     10  O   UNL     1     180.238 181.901 173.471  1.00  0.00    -0.365 OA
ATOM     11  H   UNL     1     180.025 181.354 174.084  1.00  0.00     0.214 HD
ENDBRANCH   6  10
BRANCH   3  12
ATOM     12  O   UNL     1     181.769 185.442 169.895  1.00  0.00    -0.386 OA
ATOM     13  H   UNL     1     181.855 185.224 168.997  1.00  0.00     0.211 HD
ENDBRANCH   3  12
BRANCH   4  14
ATOM     14  O   UNL     1     182.222 183.629 174.069  1.00  0.00    -0.449 OA
BRANCH  14  15
ATOM     15  C   UNL     1     183.074 182.830 174.630  1.00  0.00     0.339 C 
ATOM     16  O   UNL     1     182.867 181.739 174.980  1.00  0.00    -0.246 OA
BRANCH  15  17
ATOM     17  C   UNL     1     184.331 183.466 174.774  1.00  0.00     0.067 A 
ATOM     18  C   UNL     1     184.413 184.649 175.378  1.00  0.00     0.066 A 
ATOM     19  C   UNL     1     185.430 182.880 174.307  1.00  0.00     0.066 A 
ATOM     20  C   UNL     1     185.593 185.244 175.515  1.00  0.00     0.162 A 
ATOM     21  C   UNL     1     186.611 183.477 174.443  1.00  0.00     0.162 A 
ATOM     22  C   UNL     1     186.692 184.659 175.048  1.00  0.00     0.200 A 
BRANCH  20  23
ATOM     23  O   UNL     1     185.661 186.400 176.107  1.00  0.00    -0.504 OA
ATOM     24  H   UNL     1     185.991 186.281 176.965  1.00  0.00     0.293 HD
ENDBRANCH  20  23
BRANCH  21  25
ATOM     25  O   UNL     1     187.676 182.894 173.984  1.00  0.00    -0.504 OA
ATOM     26  H   UNL     1     188.325 182.882 174.646  1.00  0.00     0.293 HD
ENDBRANCH  21  25
BRANCH  22  27
ATOM     27  O   UNL     1     187.847 185.242 175.180  1.00  0.00    -0.502 OA
ATOM     28  H   UNL     1     188.478 184.751 174.710  1.00  0.00     0.293 HD
ENDBRANCH  22  27
ENDBRANCH  15  17
ENDBRANCH  14  15
ENDBRANCH   4  14
BRANCH   2  29
ATOM     29  O   UNL     1     183.567 184.518 171.769  1.00  0.00    -0.452 OA
BRANCH  29  30
ATOM     30  C   UNL     1     184.098 185.683 171.965  1.00  0.00     0.338 C 
ATOM     31  O   UNL     1     183.546 186.634 172.350  1.00  0.00    -0.246 OA
BRANCH  30  32
ATOM     32  C   UNL     1     185.475 185.662 171.643  1.00  0.00     0.067 A 
ATOM     33  C   UNL     1     185.984 184.637 170.964  1.00  0.00     0.066 A 
ATOM     34  C   UNL     1     186.261 186.666 172.017  1.00  0.00     0.066 A 
ATOM     35  C   UNL     1     187.278 184.618 170.660  1.00  0.00     0.162 A 
ATOM     36  C   UNL     1     187.556 186.648 171.713  1.00  0.00     0.162 A 
ATOM     37  C   UNL     1     188.064 185.624 171.034  1.00  0.00     0.200 A 
BRANCH  35  38
ATOM     38  O   UNL     1     187.763 183.612 169.995  1.00  0.00    -0.504 OA
ATOM     39  H   UNL     1     188.014 182.948 170.591  1.00  0.00     0.293 HD
ENDBRANCH  35  38
BRANCH  36  40
ATOM     40  O   UNL     1     188.313 187.635 172.084  1.00  0.00    -0.504 OA
ATOM     41  H   UNL     1     187.884 188.112 172.754  1.00  0.00     0.293 HD
ENDBRANCH  36  40
BRANCH  37  42
ATOM     42  O   UNL     1     189.331 185.604 170.737  1.00  0.00    -0.502 OA
ATOM     43  H   UNL     1     189.522 184.795 170.326  1.00  0.00     0.293 HD
ENDBRANCH  37  42
ENDBRANCH  30  32
ENDBRANCH  29  30
ENDBRANCH   2  29
TORSDOF 16
