REMARK VINA RESULT:      -6.9      2.015      7.314
REMARK SMILES O=C(O[C@@H]1[C@@H](OC(=O)c2cc(O)c(O)c(O)c2)[C@H](O)[C@@H](CO)O[C@H]1O)c1cc(O)c(O)c(O)c1
REMARK SMILES IDX 23 1 5 2 18 3 4 4 20 5 24 6 21 7 22 8 25 10 19 12 3 14 2 15
REMARK SMILES IDX 1 16 26 17 34 18 27 19 32 20 28 21 30 22 33 23 29 25 31 27
REMARK SMILES IDX 6 29 7 30 8 31 9 32 17 33 10 34 15 35 11 36 13 37 16 38
REMARK SMILES IDX 12 40 14 42
REMARK H PARENT 22 9 25 11 19 13 33 24 29 26 31 28 16 39 12 41 14 43
REMARK Flexibility Score: inf
ROOT
ATOM      1  O   UNL     1     180.872 182.656 170.139  1.00  0.00    -0.340 OA
ATOM      2  C   UNL     1     182.317 182.607 172.465  1.00  0.00     0.254 C 
ATOM      3  C   UNL     1     180.974 182.049 172.367  1.00  0.00     0.190 C 
ATOM      4  C   UNL     1     182.555 183.597 171.422  1.00  0.00     0.276 C 
ATOM      5  C   UNL     1     180.691 181.618 171.001  1.00  0.00     0.179 C 
ATOM      6  C   UNL     1     182.159 183.095 170.112  1.00  0.00     0.293 C 
ENDROOT
BRANCH   5   7
ATOM      7  C   UNL     1     179.319 181.161 170.854  1.00  0.00     0.191 C 
BRANCH   7   8
ATOM      8  O   UNL     1     178.553 182.211 170.487  1.00  0.00    -0.394 OA
ATOM      9  H   UNL     1     178.743 182.906 171.071  1.00  0.00     0.210 HD
ENDBRANCH   7   8
ENDBRANCH   5   7
BRANCH   6  10
ATOM     10  O   UNL     1     182.280 184.113 169.219  1.00  0.00    -0.365 OA
ATOM     11  H   UNL     1     182.418 184.870 168.862  1.00  0.00     0.214 HD
ENDBRANCH   6  10
BRANCH   3  12
ATOM     12  O   UNL     1     180.867 180.985 173.204  1.00  0.00    -0.386 OA
ATOM     13  H   UNL     1     180.246 180.397 172.845  1.00  0.00     0.211 HD
ENDBRANCH   3  12
BRANCH   4  14
ATOM     14  O   UNL     1     183.881 183.900 171.380  1.00  0.00    -0.449 OA
BRANCH  14  15
ATOM     15  C   UNL     1     184.174 185.161 171.442  1.00  0.00     0.339 C 
ATOM     16  O   UNL     1     183.422 186.035 171.601  1.00  0.00    -0.246 OA
BRANCH  15  17
ATOM     17  C   UNL     1     185.568 185.355 171.286  1.00  0.00     0.067 A 
ATOM     18  C   UNL     1     186.118 186.521 171.615  1.00  0.00     0.066 A 
ATOM     19  C   UNL     1     186.327 184.371 170.811  1.00  0.00     0.066 A 
ATOM     20  C   UNL     1     187.427 186.702 171.470  1.00  0.00     0.162 A 
ATOM     21  C   UNL     1     187.637 184.554 170.665  1.00  0.00     0.162 A 
ATOM     22  C   UNL     1     188.186 185.719 170.995  1.00  0.00     0.200 A 
BRANCH  20  23
ATOM     23  O   UNL     1     187.954 187.845 171.795  1.00  0.00    -0.504 OA
ATOM     24  H   UNL     1     187.662 188.082 172.642  1.00  0.00     0.293 HD
ENDBRANCH  20  23
BRANCH  21  25
ATOM     25  O   UNL     1     188.367 183.585 170.202  1.00  0.00    -0.504 OA
ATOM     26  H   UNL     1     188.516 182.967 170.877  1.00  0.00     0.293 HD
ENDBRANCH  21  25
BRANCH  22  27
ATOM     27  O   UNL     1     189.467 185.897 170.852  1.00  0.00    -0.502 OA
ATOM     28  H   UNL     1     189.843 186.008 171.693  1.00  0.00     0.293 HD
ENDBRANCH  22  27
ENDBRANCH  15  17
ENDBRANCH  14  15
ENDBRANCH   4  14
BRANCH   2  29
ATOM     29  O   UNL     1     182.440 183.196 173.686  1.00  0.00    -0.452 OA
BRANCH  29  30
ATOM     30  C   UNL     1     183.253 182.619 174.513  1.00  0.00     0.338 C 
ATOM     31  O   UNL     1     183.042 181.646 175.118  1.00  0.00    -0.246 OA
BRANCH  30  32
ATOM     32  C   UNL     1     184.470 183.336 174.596  1.00  0.00     0.067 A 
ATOM     33  C   UNL     1     184.472 184.594 175.028  1.00  0.00     0.066 A 
ATOM     34  C   UNL     1     185.611 182.752 174.245  1.00  0.00     0.066 A 
ATOM     35  C   UNL     1     185.615 185.268 175.109  1.00  0.00     0.162 A 
ATOM     36  C   UNL     1     186.756 183.425 174.325  1.00  0.00     0.162 A 
ATOM     37  C   UNL     1     186.757 184.683 174.758  1.00  0.00     0.200 A 
BRANCH  35  38
ATOM     38  O   UNL     1     185.604 186.496 175.533  1.00  0.00    -0.504 OA
ATOM     39  H   UNL     1     186.347 186.939 175.199  1.00  0.00     0.293 HD
ENDBRANCH  35  38
BRANCH  36  40
ATOM     40  O   UNL     1     187.864 182.844 173.980  1.00  0.00    -0.504 OA
ATOM     41  H   UNL     1     187.986 182.943 173.066  1.00  0.00     0.293 HD
ENDBRANCH  36  40
BRANCH  37  42
ATOM     42  O   UNL     1     187.876 185.343 174.835  1.00  0.00    -0.502 OA
ATOM     43  H   UNL     1     187.710 186.151 175.260  1.00  0.00     0.293 HD
ENDBRANCH  37  42
ENDBRANCH  30  32
ENDBRANCH  29  30
ENDBRANCH   2  29
TORSDOF 16
