MODEL 1
REMARK VINA RESULT:      -9.0      0.000      0.000
REMARK  11 active torsions:
REMARK  status: ('A' for Active; 'I' for Inactive)
REMARK    1  A    between atoms: O_2  and  C_16 
REMARK    2  A    between atoms: O_2  and  C_18 
REMARK    3  A    between atoms: O_3  and  C_12 
REMARK    4  A    between atoms: O_4  and  C_13 
REMARK    5  A    between atoms: O_5  and  C_14 
REMARK    6  A    between atoms: O_6  and  C_17 
REMARK    7  A    between atoms: O_8  and  C_23 
REMARK    8  A    between atoms: O_10  and  C_30 
REMARK    9  A    between atoms: O_11  and  C_32 
REMARK   10  A    between atoms: C_15  and  C_17 
REMARK   11  A    between atoms: C_25  and  C_27 
ROOT
HETATM    1  O   UNK     0       7.016  45.458  21.334  0.00  0.00    -0.348 OA
HETATM    2  C   UNK     0       7.342  45.052  18.510  0.00  0.00     0.183 C 
HETATM    3  C   UNK     0       8.438  45.665  19.383  0.00  0.00     0.180 C 
HETATM    4  C   UNK     0       5.966  45.207  19.159  0.00  0.00     0.205 C 
HETATM    5  C   UNK     0       8.321  45.172  20.827  0.00  0.00     0.179 C 
HETATM    6  C   UNK     0       5.989  44.769  20.623  0.00  0.00     0.298 C 
ENDROOT
BRANCH   5   7
HETATM    7  C   UNK     0       9.330  45.859  21.741  0.00  0.00     0.198 C 
BRANCH   7   8
HETATM    8  O   UNK     0       9.805  47.025  21.092  0.00  0.00    -0.398 OA
HETATM    9  H   UNK     0       9.055  47.638  21.000  0.00  0.00     0.209 HD
ENDBRANCH   7   8
ENDBRANCH   5   7
BRANCH   6  10
HETATM   10  O   UNK     0       4.718  45.075  21.194  0.00  0.00    -0.318 OA
BRANCH  10  11
HETATM   11  C   UNK     0       4.114  44.083  21.908  0.00  0.00     0.077 A 
HETATM   12  C   UNK     0       4.336  43.979  23.282  0.00  0.00     0.075 A 
HETATM   13  C   UNK     0       3.717  42.963  24.009  0.00  0.00     0.095 A 
HETATM   14  O   UNK     0       3.974  42.911  25.356  0.00  0.00    -0.309 OA
HETATM   15  C   UNK     0       2.880  42.054  23.363  0.00  0.00     0.081 A 
HETATM   16  C   UNK     0       3.367  41.915  26.106  0.00  0.00     0.090 A 
HETATM   17  C   UNK     0       2.548  40.981  25.599  0.00  0.00     0.094 A 
HETATM   18  C   UNK     0       2.242  40.991  24.155  0.00  0.00     0.190 A 
HETATM   19  O   UNK     0       1.499  40.159  23.653  0.00  0.00    -0.287 OA
HETATM   20  C   UNK     0       2.655  42.154  21.988  0.00  0.00     0.085 A 
HETATM   21  C   UNK     0       3.276  43.173  21.263  0.00  0.00     0.074 A 
BRANCH  16  22
HETATM   22  C   UNK     0       3.716  41.949  27.541  0.00  0.00     0.001 A 
HETATM   23  C   UNK     0       4.927  42.508  27.955  0.00  0.00     0.053 A 
HETATM   24  C   UNK     0       5.255  42.541  29.311  0.00  0.00     0.099 A 
HETATM   25  C   UNK     0       4.375  42.013  30.255  0.00  0.00     0.098 A 
HETATM   26  C   UNK     0       3.165  41.454  29.844  0.00  0.00     0.040 A 
HETATM   27  C   UNK     0       2.835  41.422  28.489  0.00  0.00     0.017 A 
BRANCH  24  28
HETATM   28  O   UNK     0       6.441  43.087  29.701  0.00  0.00    -0.358 OA
HETATM   29  H   UNK     0       7.111  42.875  29.029  0.00  0.00     0.217 HD
ENDBRANCH  24  28
BRANCH  25  30
HETATM   30  O   UNK     0       4.684  42.040  31.581  0.00  0.00    -0.358 OA
HETATM   31  H   UNK     0       4.307  41.253  32.011  0.00  0.00     0.217 HD
ENDBRANCH  25  30
ENDBRANCH  16  22
BRANCH  20  32
HETATM   32  O   UNK     0       1.847  41.292  21.313  0.00  0.00    -0.360 OA
HETATM   33  H   UNK     0       2.129  40.376  21.457  0.00  0.00     0.217 HD
ENDBRANCH  20  32
ENDBRANCH  10  11
ENDBRANCH   6  10
BRANCH   3  34
HETATM   34  O   UNK     0       9.714  45.300  18.862  0.00  0.00    -0.390 OA
HETATM   35  H   UNK     0      10.378  45.895  19.250  0.00  0.00     0.210 HD
ENDBRANCH   3  34
BRANCH   4  36
HETATM   36  O   UNK     0       5.021  44.395  18.463  0.00  0.00    -0.388 OA
HETATM   37  H   UNK     0       4.681  44.907  17.709  0.00  0.00     0.210 HD
ENDBRANCH   4  36
BRANCH   2  38
HETATM   38  O   UNK     0       7.352  45.726  17.250  0.00  0.00    -0.390 OA
HETATM   39  H   UNK     0       6.570  45.426  16.754  0.00  0.00     0.210 HD
ENDBRANCH   2  38
TORSDOF 11
ENDMDL
MODEL 2
REMARK VINA RESULT:      -8.8      3.065      5.635
REMARK  11 active torsions:
REMARK  status: ('A' for Active; 'I' for Inactive)
REMARK    1  A    between atoms: O_2  and  C_16 
REMARK    2  A    between atoms: O_2  and  C_18 
REMARK    3  A    between atoms: O_3  and  C_12 
REMARK    4  A    between atoms: O_4  and  C_13 
REMARK    5  A    between atoms: O_5  and  C_14 
REMARK    6  A    between atoms: O_6  and  C_17 
REMARK    7  A    between atoms: O_8  and  C_23 
REMARK    8  A    between atoms: O_10  and  C_30 
REMARK    9  A    between atoms: O_11  and  C_32 
REMARK   10  A    between atoms: C_15  and  C_17 
REMARK   11  A    between atoms: C_25  and  C_27 
ROOT
HETATM    1  O   UNK     0       4.878  45.731  20.092  0.00  0.00    -0.348 OA
HETATM    2  C   UNK     0       7.562  44.796  19.675  0.00  0.00     0.183 C 
HETATM    3  C   UNK     0       7.127  46.222  19.335  0.00  0.00     0.180 C 
HETATM    4  C   UNK     0       6.363  43.847  19.715  0.00  0.00     0.205 C 
HETATM    5  C   UNK     0       5.957  46.659  20.219  0.00  0.00     0.179 C 
HETATM    6  C   UNK     0       5.223  44.425  20.552  0.00  0.00     0.298 C 
ENDROOT
BRANCH   5   7
HETATM    7  C   UNK     0       5.431  48.034  19.819  0.00  0.00     0.198 C 
BRANCH   7   8
HETATM    8  O   UNK     0       6.438  48.706  19.086  0.00  0.00    -0.398 OA
HETATM    9  H   UNK     0       7.255  48.182  19.157  0.00  0.00     0.209 HD
ENDBRANCH   7   8
ENDBRANCH   5   7
BRANCH   6  10
HETATM   10  O   UNK     0       4.098  43.557  20.423  0.00  0.00    -0.318 OA
BRANCH  10  11
HETATM   11  C   UNK     0       3.690  42.915  21.554  0.00  0.00     0.077 A 
HETATM   12  C   UNK     0       2.970  41.723  21.456  0.00  0.00     0.075 A 
HETATM   13  C   UNK     0       2.553  41.068  22.614  0.00  0.00     0.095 A 
HETATM   14  O   UNK     0       1.849  39.901  22.455  0.00  0.00    -0.309 OA
HETATM   15  C   UNK     0       2.855  41.604  23.866  0.00  0.00     0.081 A 
HETATM   16  C   UNK     0       1.427  39.225  23.590  0.00  0.00     0.090 A 
HETATM   17  C   UNK     0       1.650  39.642  24.845  0.00  0.00     0.094 A 
HETATM   18  C   UNK     0       2.401  40.894  25.071  0.00  0.00     0.190 A 
HETATM   19  O   UNK     0       2.628  41.309  26.199  0.00  0.00    -0.287 OA
HETATM   20  C   UNK     0       3.575  42.797  23.968  0.00  0.00     0.085 A 
HETATM   21  C   UNK     0       3.991  43.450  22.807  0.00  0.00     0.074 A 
BRANCH  16  22
HETATM   22  C   UNK     0       0.674  37.986  23.304  0.00  0.00     0.001 A 
HETATM   23  C   UNK     0       1.264  36.964  22.557  0.00  0.00     0.053 A 
HETATM   24  C   UNK     0       0.553  35.793  22.289  0.00  0.00     0.099 A 
HETATM   25  C   UNK     0      -0.748  35.643  22.765  0.00  0.00     0.098 A 
HETATM   26  C   UNK     0      -1.340  36.662  23.512  0.00  0.00     0.040 A 
HETATM   27  C   UNK     0      -0.630  37.832  23.781  0.00  0.00     0.017 A 
BRANCH  24  28
HETATM   28  O   UNK     0       1.141  34.805  21.557  0.00  0.00    -0.358 OA
HETATM   29  H   UNK     0       1.638  35.218  20.831  0.00  0.00     0.217 HD
ENDBRANCH  24  28
BRANCH  25  30
HETATM   30  O   UNK     0      -1.451  34.505  22.511  0.00  0.00    -0.358 OA
HETATM   31  H   UNK     0      -2.107  34.372  23.217  0.00  0.00     0.217 HD
ENDBRANCH  25  30
ENDBRANCH  16  22
BRANCH  20  32
HETATM   32  O   UNK     0       3.894  43.360  25.166  0.00  0.00    -0.360 OA
HETATM   33  H   UNK     0       4.746  43.818  25.111  0.00  0.00     0.217 HD
ENDBRANCH  20  32
ENDBRANCH  10  11
ENDBRANCH   6  10
BRANCH   3  34
HETATM   34  O   UNK     0       8.226  47.109  19.534  0.00  0.00    -0.390 OA
HETATM   35  H   UNK     0       8.114  47.535  20.402  0.00  0.00     0.210 HD
ENDBRANCH   3  34
BRANCH   4  36
HETATM   36  O   UNK     0       6.761  42.606  20.297  0.00  0.00    -0.388 OA
HETATM   37  H   UNK     0       7.723  42.636  20.441  0.00  0.00     0.210 HD
ENDBRANCH   4  36
BRANCH   2  38
HETATM   38  O   UNK     0       8.480  44.362  18.671  0.00  0.00    -0.390 OA
HETATM   39  H   UNK     0       9.110  45.088  18.519  0.00  0.00     0.210 HD
ENDBRANCH   2  38
TORSDOF 11
ENDMDL
MODEL 3
REMARK VINA RESULT:      -8.7      3.591      9.547
REMARK  11 active torsions:
REMARK  status: ('A' for Active; 'I' for Inactive)
REMARK    1  A    between atoms: O_2  and  C_16 
REMARK    2  A    between atoms: O_2  and  C_18 
REMARK    3  A    between atoms: O_3  and  C_12 
REMARK    4  A    between atoms: O_4  and  C_13 
REMARK    5  A    between atoms: O_5  and  C_14 
REMARK    6  A    between atoms: O_6  and  C_17 
REMARK    7  A    between atoms: O_8  and  C_23 
REMARK    8  A    between atoms: O_10  and  C_30 
REMARK    9  A    between atoms: O_11  and  C_32 
REMARK   10  A    between atoms: C_15  and  C_17 
REMARK   11  A    between atoms: C_25  and  C_27 
ROOT
HETATM    1  O   UNK     0       1.921  36.581  23.232  0.00  0.00    -0.348 OA
HETATM    2  C   UNK     0      -0.716  35.443  23.246  0.00  0.00     0.183 C 
HETATM    3  C   UNK     0       0.540  34.608  23.499  0.00  0.00     0.180 C 
HETATM    4  C   UNK     0      -0.383  36.724  22.480  0.00  0.00     0.205 C 
HETATM    5  C   UNK     0       1.656  35.471  24.091  0.00  0.00     0.179 C 
HETATM    6  C   UNK     0       0.802  37.456  23.107  0.00  0.00     0.298 C 
ENDROOT
BRANCH   5   7
HETATM    7  C   UNK     0       2.956  34.686  24.243  0.00  0.00     0.198 C 
BRANCH   7   8
HETATM    8  O   UNK     0       3.060  33.775  23.165  0.00  0.00    -0.398 OA
HETATM    9  H   UNK     0       3.242  32.895  23.537  0.00  0.00     0.209 HD
ENDBRANCH   7   8
ENDBRANCH   5   7
BRANCH   6  10
HETATM   10  O   UNK     0       1.140  38.554  22.261  0.00  0.00    -0.318 OA
BRANCH  10  11
HETATM   11  C   UNK     0       1.786  39.602  22.847  0.00  0.00     0.077 A 
HETATM   12  C   UNK     0       2.469  40.527  22.057  0.00  0.00     0.075 A 
HETATM   13  C   UNK     0       3.129  41.598  22.659  0.00  0.00     0.095 A 
HETATM   14  O   UNK     0       3.784  42.476  21.831  0.00  0.00    -0.309 OA
HETATM   15  C   UNK     0       3.107  41.741  24.046  0.00  0.00     0.081 A 
HETATM   16  C   UNK     0       4.444  43.553  22.401  0.00  0.00     0.090 A 
HETATM   17  C   UNK     0       4.499  43.794  23.720  0.00  0.00     0.094 A 
HETATM   18  C   UNK     0       3.813  42.878  24.654  0.00  0.00     0.190 A 
HETATM   19  O   UNK     0       3.837  43.062  25.863  0.00  0.00    -0.287 OA
HETATM   20  C   UNK     0       2.424  40.816  24.840  0.00  0.00     0.085 A 
HETATM   21  C   UNK     0       1.764  39.746  24.234  0.00  0.00     0.074 A 
BRANCH  16  22
HETATM   22  C   UNK     0       5.118  44.430  21.422  0.00  0.00     0.001 A 
HETATM   23  C   UNK     0       4.819  45.793  21.379  0.00  0.00     0.053 A 
HETATM   24  C   UNK     0       5.457  46.621  20.455  0.00  0.00     0.099 A 
HETATM   25  C   UNK     0       6.394  46.088  19.571  0.00  0.00     0.098 A 
HETATM   26  C   UNK     0       6.696  44.727  19.612  0.00  0.00     0.040 A 
HETATM   27  C   UNK     0       6.059  43.899  20.535  0.00  0.00     0.017 A 
BRANCH  24  28
HETATM   28  O   UNK     0       5.153  47.950  20.422  0.00  0.00    -0.358 OA
HETATM   29  H   UNK     0       5.620  48.351  19.670  0.00  0.00     0.217 HD
ENDBRANCH  24  28
BRANCH  25  30
HETATM   30  O   UNK     0       7.024  46.886  18.665  0.00  0.00    -0.358 OA
HETATM   31  H   UNK     0       6.375  47.495  18.273  0.00  0.00     0.217 HD
ENDBRANCH  25  30
ENDBRANCH  16  22
BRANCH  20  32
HETATM   32  O   UNK     0       2.373  40.912  26.197  0.00  0.00    -0.360 OA
HETATM   33  H   UNK     0       3.265  40.979  26.568  0.00  0.00     0.217 HD
ENDBRANCH  20  32
ENDBRANCH  10  11
ENDBRANCH   6  10
BRANCH   3  34
HETATM   34  O   UNK     0       0.229  33.552  24.406  0.00  0.00    -0.390 OA
HETATM   35  H   UNK     0       0.581  32.725  24.035  0.00  0.00     0.210 HD
ENDBRANCH   3  34
BRANCH   4  36
HETATM   36  O   UNK     0      -1.513  37.596  22.504  0.00  0.00    -0.388 OA
HETATM   37  H   UNK     0      -2.211  37.201  21.953  0.00  0.00     0.210 HD
ENDBRANCH   4  36
BRANCH   2  38
HETATM   38  O   UNK     0      -1.626  34.652  22.480  0.00  0.00    -0.390 OA
HETATM   39  H   UNK     0      -1.119  33.917  22.095  0.00  0.00     0.210 HD
ENDBRANCH   2  38
TORSDOF 11
ENDMDL
MODEL 4
REMARK VINA RESULT:      -8.6      1.781      8.317
REMARK  11 active torsions:
REMARK  status: ('A' for Active; 'I' for Inactive)
REMARK    1  A    between atoms: O_2  and  C_16 
REMARK    2  A    between atoms: O_2  and  C_18 
REMARK    3  A    between atoms: O_3  and  C_12 
REMARK    4  A    between atoms: O_4  and  C_13 
REMARK    5  A    between atoms: O_5  and  C_14 
REMARK    6  A    between atoms: O_6  and  C_17 
REMARK    7  A    between atoms: O_8  and  C_23 
REMARK    8  A    between atoms: O_10  and  C_30 
REMARK    9  A    between atoms: O_11  and  C_32 
REMARK   10  A    between atoms: C_15  and  C_17 
REMARK   11  A    between atoms: C_25  and  C_27 
ROOT
HETATM    1  O   UNK     0       6.482  41.376  27.412  0.00  0.00    -0.348 OA
HETATM    2  C   UNK     0       5.040  42.613  29.566  0.00  0.00     0.183 C 
HETATM    3  C   UNK     0       6.554  42.406  29.605  0.00  0.00     0.180 C 
HETATM    4  C   UNK     0       4.374  41.645  28.587  0.00  0.00     0.205 C 
HETATM    5  C   UNK     0       7.136  42.381  28.190  0.00  0.00     0.179 C 
HETATM    6  C   UNK     0       5.091  41.638  27.237  0.00  0.00     0.298 C 
ENDROOT
BRANCH   5   7
HETATM    7  C   UNK     0       8.627  42.060  28.198  0.00  0.00     0.198 C 
BRANCH   7   8
HETATM    8  O   UNK     0       9.346  43.263  28.399  0.00  0.00    -0.398 OA
HETATM    9  H   UNK     0      10.161  43.043  28.883  0.00  0.00     0.209 HD
ENDBRANCH   7   8
ENDBRANCH   5   7
BRANCH   6  10
HETATM   10  O   UNK     0       4.506  40.615  26.433  0.00  0.00    -0.318 OA
BRANCH  10  11
HETATM   11  C   UNK     0       4.018  40.997  25.218  0.00  0.00     0.077 A 
HETATM   12  C   UNK     0       4.645  42.023  24.508  0.00  0.00     0.075 A 
HETATM   13  C   UNK     0       4.144  42.412  23.266  0.00  0.00     0.095 A 
HETATM   14  O   UNK     0       4.801  43.426  22.616  0.00  0.00    -0.309 OA
HETATM   15  C   UNK     0       3.020  41.778  22.738  0.00  0.00     0.081 A 
HETATM   16  C   UNK     0       4.329  43.830  21.376  0.00  0.00     0.090 A 
HETATM   17  C   UNK     0       3.256  43.302  20.767  0.00  0.00     0.094 A 
HETATM   18  C   UNK     0       2.512  42.210  21.427  0.00  0.00     0.190 A 
HETATM   19  O   UNK     0       1.530  41.700  20.906  0.00  0.00    -0.287 OA
HETATM   20  C   UNK     0       2.390  40.751  23.446  0.00  0.00     0.085 A 
HETATM   21  C   UNK     0       2.895  40.363  24.688  0.00  0.00     0.074 A 
BRANCH  16  22
HETATM   22  C   UNK     0       5.106  44.930  20.768  0.00  0.00     0.001 A 
HETATM   23  C   UNK     0       6.255  44.648  20.025  0.00  0.00     0.053 A 
HETATM   24  C   UNK     0       6.988  45.687  19.450  0.00  0.00     0.099 A 
HETATM   25  C   UNK     0       6.574  47.008  19.616  0.00  0.00     0.098 A 
HETATM   26  C   UNK     0       5.427  47.292  20.357  0.00  0.00     0.040 A 
HETATM   27  C   UNK     0       4.694  46.255  20.932  0.00  0.00     0.017 A 
BRANCH  24  28
HETATM   28  O   UNK     0       8.109  45.399  18.730  0.00  0.00    -0.358 OA
HETATM   29  H   UNK     0       8.093  45.928  17.915  0.00  0.00     0.217 HD
ENDBRANCH  24  28
BRANCH  25  30
HETATM   30  O   UNK     0       7.281  48.031  19.059  0.00  0.00    -0.358 OA
HETATM   31  H   UNK     0       7.813  47.684  18.322  0.00  0.00     0.217 HD
ENDBRANCH  25  30
ENDBRANCH  16  22
BRANCH  20  32
HETATM   32  O   UNK     0       1.291  40.102  22.972  0.00  0.00    -0.360 OA
HETATM   33  H   UNK     0       0.589  40.088  23.640  0.00  0.00     0.217 HD
ENDBRANCH  20  32
ENDBRANCH  10  11
ENDBRANCH   6  10
BRANCH   3  34
HETATM   34  O   UNK     0       7.155  43.467  30.343  0.00  0.00    -0.390 OA
HETATM   35  H   UNK     0       7.807  43.077  30.951  0.00  0.00     0.210 HD
ENDBRANCH   3  34
BRANCH   4  36
HETATM   36  O   UNK     0       3.021  42.045  28.372  0.00  0.00    -0.388 OA
HETATM   37  H   UNK     0       2.596  42.150  29.241  0.00  0.00     0.210 HD
ENDBRANCH   4  36
BRANCH   2  38
HETATM   38  O   UNK     0       4.528  42.387  30.880  0.00  0.00    -0.390 OA
HETATM   39  H   UNK     0       4.303  43.255  31.258  0.00  0.00     0.210 HD
ENDBRANCH   2  38
TORSDOF 11
ENDMDL
MODEL 5
REMARK VINA RESULT:      -8.5      2.611      5.186
REMARK  11 active torsions:
REMARK  status: ('A' for Active; 'I' for Inactive)
REMARK    1  A    between atoms: O_2  and  C_16 
REMARK    2  A    between atoms: O_2  and  C_18 
REMARK    3  A    between atoms: O_3  and  C_12 
REMARK    4  A    between atoms: O_4  and  C_13 
REMARK    5  A    between atoms: O_5  and  C_14 
REMARK    6  A    between atoms: O_6  and  C_17 
REMARK    7  A    between atoms: O_8  and  C_23 
REMARK    8  A    between atoms: O_10  and  C_30 
REMARK    9  A    between atoms: O_11  and  C_32 
REMARK   10  A    between atoms: C_15  and  C_17 
REMARK   11  A    between atoms: C_25  and  C_27 
ROOT
HETATM    1  O   UNK     0       6.362  43.605  20.930  0.00  0.00    -0.348 OA
HETATM    2  C   UNK     0       7.227  44.808  18.470  0.00  0.00     0.183 C 
HETATM    3  C   UNK     0       8.208  44.353  19.551  0.00  0.00     0.180 C 
HETATM    4  C   UNK     0       5.836  45.055  19.054  0.00  0.00     0.205 C 
HETATM    5  C   UNK     0       7.617  43.207  20.374  0.00  0.00     0.179 C 
HETATM    6  C   UNK     0       5.385  43.886  19.930  0.00  0.00     0.298 C 
ENDROOT
BRANCH   5   7
HETATM    7  C   UNK     0       8.529  42.815  21.532  0.00  0.00     0.198 C 
BRANCH   7   8
HETATM    8  O   UNK     0       9.478  43.847  21.728  0.00  0.00    -0.398 OA
HETATM    9  H   UNK     0       9.674  44.237  20.858  0.00  0.00     0.209 HD
ENDBRANCH   7   8
ENDBRANCH   5   7
BRANCH   6  10
HETATM   10  O   UNK     0       4.152  44.250  20.549  0.00  0.00    -0.318 OA
BRANCH  10  11
HETATM   11  C   UNK     0       3.824  43.586  21.693  0.00  0.00     0.077 A 
HETATM   12  C   UNK     0       3.121  42.382  21.623  0.00  0.00     0.075 A 
HETATM   13  C   UNK     0       2.787  41.705  22.795  0.00  0.00     0.095 A 
HETATM   14  O   UNK     0       2.096  40.527  22.663  0.00  0.00    -0.309 OA
HETATM   15  C   UNK     0       3.153  42.231  24.033  0.00  0.00     0.081 A 
HETATM   16  C   UNK     0       1.755  39.829  23.811  0.00  0.00     0.090 A 
HETATM   17  C   UNK     0       2.045  40.235  25.057  0.00  0.00     0.094 A 
HETATM   18  C   UNK     0       2.785  41.498  25.253  0.00  0.00     0.190 A 
HETATM   19  O   UNK     0       3.071  41.903  26.371  0.00  0.00    -0.287 OA
HETATM   20  C   UNK     0       3.856  43.437  24.108  0.00  0.00     0.085 A 
HETATM   21  C   UNK     0       4.190  44.111  22.933  0.00  0.00     0.074 A 
BRANCH  16  22
HETATM   22  C   UNK     0       1.009  38.579  23.554  0.00  0.00     0.001 A 
HETATM   23  C   UNK     0       1.500  37.647  22.638  0.00  0.00     0.053 A 
HETATM   24  C   UNK     0       0.796  36.466  22.397  0.00  0.00     0.099 A 
HETATM   25  C   UNK     0      -0.399  36.216  23.070  0.00  0.00     0.098 A 
HETATM   26  C   UNK     0      -0.890  37.146  23.987  0.00  0.00     0.040 A 
HETATM   27  C   UNK     0      -0.188  38.326  24.229  0.00  0.00     0.017 A 
BRANCH  24  28
HETATM   28  O   UNK     0       1.285  35.566  21.498  0.00  0.00    -0.358 OA
HETATM   29  H   UNK     0       0.701  35.563  20.720  0.00  0.00     0.217 HD
ENDBRANCH  24  28
BRANCH  25  30
HETATM   30  O   UNK     0      -1.094  35.067  22.844  0.00  0.00    -0.358 OA
HETATM   31  H   UNK     0      -1.355  34.681  23.698  0.00  0.00     0.217 HD
ENDBRANCH  25  30
ENDBRANCH  16  22
BRANCH  20  32
HETATM   32  O   UNK     0       4.235  43.991  25.292  0.00  0.00    -0.360 OA
HETATM   33  H   UNK     0       5.136  43.718  25.524  0.00  0.00     0.217 HD
ENDBRANCH  20  32
ENDBRANCH  10  11
ENDBRANCH   6  10
BRANCH   3  34
HETATM   34  O   UNK     0       9.418  43.915  18.935  0.00  0.00    -0.390 OA
HETATM   35  H   UNK     0       9.716  43.113  19.397  0.00  0.00     0.210 HD
ENDBRANCH   3  34
BRANCH   4  36
HETATM   36  O   UNK     0       4.896  45.206  17.991  0.00  0.00    -0.388 OA
HETATM   37  H   UNK     0       4.115  45.667  18.342  0.00  0.00     0.210 HD
ENDBRANCH   4  36
BRANCH   2  38
HETATM   38  O   UNK     0       7.726  46.020  17.901  0.00  0.00    -0.390 OA
HETATM   39  H   UNK     0       7.683  46.704  18.591  0.00  0.00     0.210 HD
ENDBRANCH   2  38
TORSDOF 11
ENDMDL
MODEL 6
REMARK VINA RESULT:      -8.4      1.505      2.178
REMARK  11 active torsions:
REMARK  status: ('A' for Active; 'I' for Inactive)
REMARK    1  A    between atoms: O_2  and  C_16 
REMARK    2  A    between atoms: O_2  and  C_18 
REMARK    3  A    between atoms: O_3  and  C_12 
REMARK    4  A    between atoms: O_4  and  C_13 
REMARK    5  A    between atoms: O_5  and  C_14 
REMARK    6  A    between atoms: O_6  and  C_17 
REMARK    7  A    between atoms: O_8  and  C_23 
REMARK    8  A    between atoms: O_10  and  C_30 
REMARK    9  A    between atoms: O_11  and  C_32 
REMARK   10  A    between atoms: C_15  and  C_17 
REMARK   11  A    between atoms: C_25  and  C_27 
ROOT
HETATM    1  O   UNK     0       6.248  44.550  20.649  0.00  0.00    -0.348 OA
HETATM    2  C   UNK     0       8.821  45.503  19.798  0.00  0.00     0.183 C 
HETATM    3  C   UNK     0       7.523  46.242  19.472  0.00  0.00     0.180 C 
HETATM    4  C   UNK     0       8.556  44.028  20.102  0.00  0.00     0.205 C 
HETATM    5  C   UNK     0       6.455  45.959  20.530  0.00  0.00     0.179 C 
HETATM    6  C   UNK     0       7.413  43.863  21.103  0.00  0.00     0.298 C 
ENDROOT
BRANCH   5   7
HETATM    7  C   UNK     0       5.116  46.592  20.164  0.00  0.00     0.198 C 
BRANCH   7   8
HETATM    8  O   UNK     0       5.150  47.959  20.528  0.00  0.00    -0.398 OA
HETATM    9  H   UNK     0       5.020  48.484  19.719  0.00  0.00     0.209 HD
ENDBRANCH   7   8
ENDBRANCH   5   7
BRANCH   6  10
HETATM   10  O   UNK     0       7.132  42.469  21.224  0.00  0.00    -0.318 OA
BRANCH  10  11
HETATM   11  C   UNK     0       6.015  42.130  21.928  0.00  0.00     0.077 A 
HETATM   12  C   UNK     0       6.017  42.217  23.321  0.00  0.00     0.075 A 
HETATM   13  C   UNK     0       4.874  41.869  24.039  0.00  0.00     0.095 A 
HETATM   14  O   UNK     0       4.935  41.975  25.406  0.00  0.00    -0.309 OA
HETATM   15  C   UNK     0       3.733  41.434  23.365  0.00  0.00     0.081 A 
HETATM   16  C   UNK     0       3.811  41.641  26.145  0.00  0.00     0.090 A 
HETATM   17  C   UNK     0       2.659  41.205  25.613  0.00  0.00     0.094 A 
HETATM   18  C   UNK     0       2.541  41.072  24.147  0.00  0.00     0.190 A 
HETATM   19  O   UNK     0       1.509  40.680  23.622  0.00  0.00    -0.287 OA
HETATM   20  C   UNK     0       3.727  41.345  21.971  0.00  0.00     0.085 A 
HETATM   21  C   UNK     0       4.873  41.695  21.255  0.00  0.00     0.074 A 
BRANCH  16  22
HETATM   22  C   UNK     0       3.989  41.786  27.605  0.00  0.00     0.001 A 
HETATM   23  C   UNK     0       5.152  42.366  28.115  0.00  0.00     0.053 A 
HETATM   24  C   UNK     0       5.319  42.504  29.494  0.00  0.00     0.099 A 
HETATM   25  C   UNK     0       4.324  42.061  30.364  0.00  0.00     0.098 A 
HETATM   26  C   UNK     0       3.160  41.483  29.857  0.00  0.00     0.040 A 
HETATM   27  C   UNK     0       2.993  41.344  28.480  0.00  0.00     0.017 A 
BRANCH  24  28
HETATM   28  O   UNK     0       6.460  43.069  29.978  0.00  0.00    -0.358 OA
HETATM   29  H   UNK     0       7.205  42.772  29.428  0.00  0.00     0.217 HD
ENDBRANCH  24  28
BRANCH  25  30
HETATM   30  O   UNK     0       4.475  42.191  31.712  0.00  0.00    -0.358 OA
HETATM   31  H   UNK     0       4.870  43.059  31.904  0.00  0.00     0.217 HD
ENDBRANCH  25  30
ENDBRANCH  16  22
BRANCH  20  32
HETATM   32  O   UNK     0       2.639  40.927  21.268  0.00  0.00    -0.360 OA
HETATM   33  H   UNK     0       2.082  41.681  21.021  0.00  0.00     0.217 HD
ENDBRANCH  20  32
ENDBRANCH  10  11
ENDBRANCH   6  10
BRANCH   3  34
HETATM   34  O   UNK     0       7.779  47.644  19.423  0.00  0.00    -0.390 OA
HETATM   35  H   UNK     0       8.741  47.775  19.474  0.00  0.00     0.210 HD
ENDBRANCH   3  34
BRANCH   4  36
HETATM   36  O   UNK     0       9.730  43.442  20.664  0.00  0.00    -0.388 OA
HETATM   37  H   UNK     0      10.124  44.086  21.277  0.00  0.00     0.210 HD
ENDBRANCH   4  36
BRANCH   2  38
HETATM   38  O   UNK     0       9.687  45.608  18.667  0.00  0.00    -0.390 OA
HETATM   39  H   UNK     0      10.523  45.167  18.899  0.00  0.00     0.210 HD
ENDBRANCH   2  38
TORSDOF 11
ENDMDL
MODEL 7
REMARK VINA RESULT:      -8.2      3.322      9.994
REMARK  11 active torsions:
REMARK  status: ('A' for Active; 'I' for Inactive)
REMARK    1  A    between atoms: O_2  and  C_16 
REMARK    2  A    between atoms: O_2  and  C_18 
REMARK    3  A    between atoms: O_3  and  C_12 
REMARK    4  A    between atoms: O_4  and  C_13 
REMARK    5  A    between atoms: O_5  and  C_14 
REMARK    6  A    between atoms: O_6  and  C_17 
REMARK    7  A    between atoms: O_8  and  C_23 
REMARK    8  A    between atoms: O_10  and  C_30 
REMARK    9  A    between atoms: O_11  and  C_32 
REMARK   10  A    between atoms: C_15  and  C_17 
REMARK   11  A    between atoms: C_25  and  C_27 
ROOT
HETATM    1  O   UNK     0      -0.403  37.786  25.661  0.00  0.00    -0.348 OA
HETATM    2  C   UNK     0      -1.565  37.022  23.148  0.00  0.00     0.183 C 
HETATM    3  C   UNK     0      -2.238  36.724  24.487  0.00  0.00     0.180 C 
HETATM    4  C   UNK     0      -0.061  37.236  23.320  0.00  0.00     0.205 C 
HETATM    5  C   UNK     0      -1.827  37.752  25.543  0.00  0.00     0.179 C 
HETATM    6  C   UNK     0       0.235  38.213  24.459  0.00  0.00     0.298 C 
ENDROOT
BRANCH   5   7
HETATM    7  C   UNK     0      -2.394  37.408  26.917  0.00  0.00     0.198 C 
BRANCH   7   8
HETATM    8  O   UNK     0      -3.705  37.935  27.007  0.00  0.00    -0.398 OA
HETATM    9  H   UNK     0      -3.685  38.840  26.653  0.00  0.00     0.209 HD
ENDBRANCH   7   8
ENDBRANCH   5   7
BRANCH   6  10
HETATM   10  O   UNK     0       1.648  38.250  24.651  0.00  0.00    -0.318 OA
BRANCH  10  11
HETATM   11  C   UNK     0       2.228  39.483  24.679  0.00  0.00     0.077 A 
HETATM   12  C   UNK     0       2.696  40.060  23.497  0.00  0.00     0.075 A 
HETATM   13  C   UNK     0       3.289  41.321  23.528  0.00  0.00     0.095 A 
HETATM   14  O   UNK     0       3.729  41.837  22.335  0.00  0.00    -0.309 OA
HETATM   15  C   UNK     0       3.415  42.003  24.739  0.00  0.00     0.081 A 
HETATM   16  C   UNK     0       4.318  43.092  22.335  0.00  0.00     0.090 A 
HETATM   17  C   UNK     0       4.501  43.841  23.434  0.00  0.00     0.094 A 
HETATM   18  C   UNK     0       4.047  43.331  24.743  0.00  0.00     0.190 A 
HETATM   19  O   UNK     0       4.192  43.982  25.768  0.00  0.00    -0.287 OA
HETATM   20  C   UNK     0       2.949  41.429  25.924  0.00  0.00     0.085 A 
HETATM   21  C   UNK     0       2.355  40.166  25.889  0.00  0.00     0.074 A 
BRANCH  16  22
HETATM   22  C   UNK     0       4.760  43.547  21.001  0.00  0.00     0.001 A 
HETATM   23  C   UNK     0       4.860  44.913  20.725  0.00  0.00     0.053 A 
HETATM   24  C   UNK     0       5.279  45.342  19.464  0.00  0.00     0.099 A 
HETATM   25  C   UNK     0       5.596  44.409  18.479  0.00  0.00     0.098 A 
HETATM   26  C   UNK     0       5.498  43.044  18.753  0.00  0.00     0.040 A 
HETATM   27  C   UNK     0       5.080  42.614  20.012  0.00  0.00     0.017 A 
BRANCH  24  28
HETATM   28  O   UNK     0       5.369  46.678  19.207  0.00  0.00    -0.358 OA
HETATM   29  H   UNK     0       5.423  47.149  20.056  0.00  0.00     0.217 HD
ENDBRANCH  24  28
BRANCH  25  30
HETATM   30  O   UNK     0       6.007  44.816  17.246  0.00  0.00    -0.358 OA
HETATM   31  H   UNK     0       5.531  45.630  17.006  0.00  0.00     0.217 HD
ENDBRANCH  25  30
ENDBRANCH  16  22
BRANCH  20  32
HETATM   32  O   UNK     0       3.049  42.053  27.129  0.00  0.00    -0.360 OA
HETATM   33  H   UNK     0       3.898  41.851  27.549  0.00  0.00     0.217 HD
ENDBRANCH  20  32
ENDBRANCH  10  11
ENDBRANCH   6  10
BRANCH   3  34
HETATM   34  O   UNK     0      -3.654  36.760  24.321  0.00  0.00    -0.390 OA
HETATM   35  H   UNK     0      -3.842  37.032  23.406  0.00  0.00     0.210 HD
ENDBRANCH   3  34
BRANCH   4  36
HETATM   36  O   UNK     0       0.482  37.776  22.115  0.00  0.00    -0.388 OA
HETATM   37  H   UNK     0      -0.054  38.548  21.863  0.00  0.00     0.210 HD
ENDBRANCH   4  36
BRANCH   2  38
HETATM   38  O   UNK     0      -1.790  35.908  22.281  0.00  0.00    -0.390 OA
HETATM   39  H   UNK     0      -2.731  35.670  22.352  0.00  0.00     0.210 HD
ENDBRANCH   2  38
TORSDOF 11
ENDMDL
MODEL 8
REMARK VINA RESULT:      -8.2      2.703      5.446
REMARK  11 active torsions:
REMARK  status: ('A' for Active; 'I' for Inactive)
REMARK    1  A    between atoms: O_2  and  C_16 
REMARK    2  A    between atoms: O_2  and  C_18 
REMARK    3  A    between atoms: O_3  and  C_12 
REMARK    4  A    between atoms: O_4  and  C_13 
REMARK    5  A    between atoms: O_5  and  C_14 
REMARK    6  A    between atoms: O_6  and  C_17 
REMARK    7  A    between atoms: O_8  and  C_23 
REMARK    8  A    between atoms: O_10  and  C_30 
REMARK    9  A    between atoms: O_11  and  C_32 
REMARK   10  A    between atoms: C_15  and  C_17 
REMARK   11  A    between atoms: C_25  and  C_27 
ROOT
HETATM    1  O   UNK     0       6.074  44.760  20.599  0.00  0.00    -0.348 OA
HETATM    2  C   UNK     0       8.698  45.464  19.669  0.00  0.00     0.183 C 
HETATM    3  C   UNK     0       7.463  46.309  19.357  0.00  0.00     0.180 C 
HETATM    4  C   UNK     0       8.312  44.024  20.010  0.00  0.00     0.205 C 
HETATM    5  C   UNK     0       6.402  46.142  20.446  0.00  0.00     0.179 C 
HETATM    6  C   UNK     0       7.184  43.981  21.041  0.00  0.00     0.298 C 
ENDROOT
BRANCH   5   7
HETATM    7  C   UNK     0       5.115  46.884  20.098  0.00  0.00     0.198 C 
BRANCH   7   8
HETATM    8  O   UNK     0       5.340  48.273  20.251  0.00  0.00    -0.398 OA
HETATM    9  H   UNK     0       6.138  48.385  20.796  0.00  0.00     0.209 HD
ENDBRANCH   7   8
ENDBRANCH   5   7
BRANCH   6  10
HETATM   10  O   UNK     0       6.785  42.620  21.199  0.00  0.00    -0.318 OA
BRANCH  10  11
HETATM   11  C   UNK     0       5.899  42.356  22.201  0.00  0.00     0.077 A 
HETATM   12  C   UNK     0       4.926  41.370  22.028  0.00  0.00     0.075 A 
HETATM   13  C   UNK     0       4.021  41.101  23.054  0.00  0.00     0.095 A 
HETATM   14  O   UNK     0       3.088  40.122  22.826  0.00  0.00    -0.309 OA
HETATM   15  C   UNK     0       4.089  41.818  24.248  0.00  0.00     0.081 A 
HETATM   16  C   UNK     0       2.179  39.829  23.831  0.00  0.00     0.090 A 
HETATM   17  C   UNK     0       2.139  40.452  25.019  0.00  0.00     0.094 A 
HETATM   18  C   UNK     0       3.120  41.516  25.313  0.00  0.00     0.190 A 
HETATM   19  O   UNK     0       3.120  42.107  26.384  0.00  0.00    -0.287 OA
HETATM   20  C   UNK     0       5.061  42.806  24.425  0.00  0.00     0.085 A 
HETATM   21  C   UNK     0       5.966  43.071  23.396  0.00  0.00     0.074 A 
BRANCH  16  22
HETATM   22  C   UNK     0       1.217  38.765  23.478  0.00  0.00     0.001 A 
HETATM   23  C   UNK     0       0.164  38.458  24.343  0.00  0.00     0.053 A 
HETATM   24  C   UNK     0      -0.745  37.453  24.009  0.00  0.00     0.099 A 
HETATM   25  C   UNK     0      -0.603  36.753  22.812  0.00  0.00     0.098 A 
HETATM   26  C   UNK     0       0.448  37.058  21.946  0.00  0.00     0.040 A 
HETATM   27  C   UNK     0       1.357  38.062  22.279  0.00  0.00     0.017 A 
BRANCH  24  28
HETATM   28  O   UNK     0      -1.767  37.162  24.863  0.00  0.00    -0.358 OA
HETATM   29  H   UNK     0      -1.483  37.385  25.765  0.00  0.00     0.217 HD
ENDBRANCH  24  28
BRANCH  25  30
HETATM   30  O   UNK     0      -1.484  35.771  22.474  0.00  0.00    -0.358 OA
HETATM   31  H   UNK     0      -2.033  36.078  21.732  0.00  0.00     0.217 HD
ENDBRANCH  25  30
ENDBRANCH  16  22
BRANCH  20  32
HETATM   32  O   UNK     0       5.168  43.532  25.572  0.00  0.00    -0.360 OA
HETATM   33  H   UNK     0       5.592  44.385  25.398  0.00  0.00     0.217 HD
ENDBRANCH  20  32
ENDBRANCH  10  11
ENDBRANCH   6  10
BRANCH   3  34
HETATM   34  O   UNK     0       7.840  47.681  19.272  0.00  0.00    -0.390 OA
HETATM   35  H   UNK     0       8.147  47.963  20.151  0.00  0.00     0.210 HD
ENDBRANCH   3  34
BRANCH   4  36
HETATM   36  O   UNK     0       9.444  43.348  20.557  0.00  0.00    -0.388 OA
HETATM   37  H   UNK     0       9.300  42.391  20.457  0.00  0.00     0.210 HD
ENDBRANCH   4  36
BRANCH   2  38
HETATM   38  O   UNK     0       9.542  45.469  18.515  0.00  0.00    -0.390 OA
HETATM   39  H   UNK     0       9.878  44.564  18.398  0.00  0.00     0.210 HD
ENDBRANCH   2  38
TORSDOF 11
ENDMDL
MODEL 9
REMARK VINA RESULT:      -7.8     29.597     33.024
REMARK  11 active torsions:
REMARK  status: ('A' for Active; 'I' for Inactive)
REMARK    1  A    between atoms: O_2  and  C_16 
REMARK    2  A    between atoms: O_2  and  C_18 
REMARK    3  A    between atoms: O_3  and  C_12 
REMARK    4  A    between atoms: O_4  and  C_13 
REMARK    5  A    between atoms: O_5  and  C_14 
REMARK    6  A    between atoms: O_6  and  C_17 
REMARK    7  A    between atoms: O_8  and  C_23 
REMARK    8  A    between atoms: O_10  and  C_30 
REMARK    9  A    between atoms: O_11  and  C_32 
REMARK   10  A    between atoms: C_15  and  C_17 
REMARK   11  A    between atoms: C_25  and  C_27 
ROOT
HETATM    1  O   UNK     0      19.080  68.042  10.234  0.00  0.00    -0.348 OA
HETATM    2  C   UNK     0      17.837  68.882  12.683  0.00  0.00     0.183 C 
HETATM    3  C   UNK     0      17.095  68.067  11.624  0.00  0.00     0.180 C 
HETATM    4  C   UNK     0      19.029  69.624  12.076  0.00  0.00     0.205 C 
HETATM    5  C   UNK     0      18.071  67.212  10.814  0.00  0.00     0.179 C 
HETATM    6  C   UNK     0      19.884  68.693  11.216  0.00  0.00     0.298 C 
ENDROOT
BRANCH   5   7
HETATM    7  C   UNK     0      17.369  66.478   9.676  0.00  0.00     0.198 C 
BRANCH   7   8
HETATM    8  O   UNK     0      16.817  65.278  10.186  0.00  0.00    -0.398 OA
HETATM    9  H   UNK     0      16.012  65.510  10.681  0.00  0.00     0.209 HD
ENDBRANCH   7   8
ENDBRANCH   5   7
BRANCH   6  10
HETATM   10  O   UNK     0      20.884  69.482  10.574  0.00  0.00    -0.318 OA
BRANCH  10  11
HETATM   11  C   UNK     0      22.116  68.915  10.439  0.00  0.00     0.077 A 
HETATM   12  C   UNK     0      22.879  68.629  11.572  0.00  0.00     0.075 A 
HETATM   13  C   UNK     0      24.139  68.049  11.432  0.00  0.00     0.095 A 
HETATM   14  O   UNK     0      24.842  67.792  12.582  0.00  0.00    -0.309 OA
HETATM   15  C   UNK     0      24.634  67.757  10.161  0.00  0.00     0.081 A 
HETATM   16  C   UNK     0      26.096  67.210  12.473  0.00  0.00     0.090 A 
HETATM   17  C   UNK     0      26.681  66.889  11.309  0.00  0.00     0.094 A 
HETATM   18  C   UNK     0      25.967  67.148  10.042  0.00  0.00     0.190 A 
HETATM   19  O   UNK     0      26.464  66.869   8.960  0.00  0.00    -0.287 OA
HETATM   20  C   UNK     0      23.874  68.042   9.024  0.00  0.00     0.085 A 
HETATM   21  C   UNK     0      22.612  68.622   9.168  0.00  0.00     0.074 A 
BRANCH  16  22
HETATM   22  C   UNK     0      26.766  66.982  13.769  0.00  0.00     0.001 A 
HETATM   23  C   UNK     0      27.115  65.687  14.160  0.00  0.00     0.053 A 
HETATM   24  C   UNK     0      27.749  65.473  15.384  0.00  0.00     0.099 A 
HETATM   25  C   UNK     0      28.035  66.551  16.220  0.00  0.00     0.098 A 
HETATM   26  C   UNK     0      27.688  67.846  15.832  0.00  0.00     0.040 A 
HETATM   27  C   UNK     0      27.054  68.061  14.609  0.00  0.00     0.017 A 
BRANCH  24  28
HETATM   28  O   UNK     0      28.081  64.204  15.754  0.00  0.00    -0.358 OA
HETATM   29  H   UNK     0      28.276  63.693  14.950  0.00  0.00     0.217 HD
ENDBRANCH  24  28
BRANCH  25  30
HETATM   30  O   UNK     0      28.654  66.354  17.417  0.00  0.00    -0.358 OA
HETATM   31  H   UNK     0      29.537  66.763  17.388  0.00  0.00     0.217 HD
ENDBRANCH  25  30
ENDBRANCH  16  22
BRANCH  20  32
HETATM   32  O   UNK     0      24.313  67.776   7.763  0.00  0.00    -0.360 OA
HETATM   33  H   UNK     0      23.693  68.123   7.105  0.00  0.00     0.217 HD
ENDBRANCH  20  32
ENDBRANCH  10  11
ENDBRANCH   6  10
BRANCH   3  34
HETATM   34  O   UNK     0      16.145  67.218  12.264  0.00  0.00    -0.390 OA
HETATM   35  H   UNK     0      16.582  66.797  13.024  0.00  0.00     0.210 HD
ENDBRANCH   3  34
BRANCH   4  36
HETATM   36  O   UNK     0      19.847  70.142  13.124  0.00  0.00    -0.388 OA
HETATM   37  H   UNK     0      19.765  71.112  13.118  0.00  0.00     0.210 HD
ENDBRANCH   4  36
BRANCH   2  38
HETATM   38  O   UNK     0      16.921  69.828  13.237  0.00  0.00    -0.390 OA
HETATM   39  H   UNK     0      16.026  69.558  12.966  0.00  0.00     0.210 HD
ENDBRANCH   2  38
TORSDOF 11
ENDMDL
