REMARK  Name = 5280445
REMARK  5 active torsions:
REMARK  status: ('A' for Active; 'I' for Inactive)
REMARK    1  A    between atoms: O_2  and  C_13
REMARK    2  A    between atoms: O_4  and  C_16
REMARK    3  A    between atoms: O_5  and  C_19
REMARK    4  A    between atoms: O_6  and  C_21
REMARK    5  A    between atoms: C_9  and  C_10
REMARK                            x       y       z     vdW  Elec       q    Type
REMARK                         _______ _______ _______ _____ _____    ______ ____
ROOT
ATOM      1  O   UNL     1      -0.248   0.671  -0.129  0.00  0.00    +0.000 OA
ATOM      3  O   UNL     1      -2.109  -2.925   0.329  0.00  0.00    +0.000 OA
ATOM      7  C   UNL     1      -2.317  -0.586   0.062  0.00  0.00    +0.000 A 
ATOM      8  C   UNL     1      -1.618   0.610  -0.093  0.00  0.00    +0.000 A 
ATOM      9  C   UNL     1       0.470  -0.508   0.003  0.00  0.00    +0.000 A 
ATOM     11  C   UNL     1      -1.560  -1.840   0.193  0.00  0.00    +0.000 A 
ATOM     12  C   UNL     1      -0.088  -1.720   0.151  0.00  0.00    +0.000 A 
ATOM     13  C   UNL     1      -3.714  -0.588   0.091  0.00  0.00    +0.000 A 
ATOM     14  C   UNL     1      -2.312   1.812  -0.221  0.00  0.00    +0.000 A 
ATOM     16  C   UNL     1      -3.707   1.814  -0.193  0.00  0.00    +0.000 A 
ATOM     17  C   UNL     1      -4.406   0.617  -0.037  0.00  0.00    +0.000 A 
ENDROOT
BRANCH   9  10
ATOM     10  C   UNL     1       1.935  -0.329  -0.055  0.00  0.00    +0.000 A 
ATOM     15  C   UNL     1       2.516   0.854   0.407  0.00  0.00    +0.000 A 
ATOM     18  C   UNL     1       2.745  -1.342  -0.573  0.00  0.00    +0.000 A 
ATOM     19  C   UNL     1       3.899   1.023   0.352  0.00  0.00    +0.000 A 
ATOM     20  C   UNL     1       4.129  -1.173  -0.628  0.00  0.00    +0.000 A 
ATOM     21  C   UNL     1       4.706   0.009  -0.165  0.00  0.00    +0.000 A 
BRANCH  19   5
ATOM      5  O   UNL     1       4.452   2.183   0.806  0.00  0.00    +0.000 OA
ATOM     24  H   UNL     1       5.416   2.127   0.692  0.00  0.00    +0.000 HD
ENDBRANCH  19   5
BRANCH  21   6
ATOM      6  O   UNL     1       6.058   0.162  -0.223  0.00  0.00    +0.000 OA
ATOM     25  H   UNL     1       6.451  -0.639  -0.609  0.00  0.00    +0.000 HD
ENDBRANCH  21   6
ENDBRANCH   9  10
BRANCH  13   2
ATOM      2  O   UNL     1      -4.443  -1.729   0.240  0.00  0.00    +0.000 OA
ATOM     22  H   UNL     1      -3.858  -2.498   0.322  0.00  0.00    +0.000 HD
ENDBRANCH  13   2
BRANCH  16   4
ATOM      4  O   UNL     1      -4.388   2.987  -0.318  0.00  0.00    +0.000 OA
ATOM     23  H   UNL     1      -5.342   2.804  -0.277  0.00  0.00    +0.000 HD
ENDBRANCH  16   4
TORSDOF 5
