MODEL 1
REMARK VINA RESULT:    -7.254      0.000      0.000
REMARK INTER + INTRA:          -8.580
REMARK INTER:                  -8.527
REMARK INTRA:                  -0.053
REMARK UNBOUND:                -0.053
REMARK  Name = 370
REMARK  5 active torsions:
REMARK  status: ('A' for Active; 'I' for Inactive)
REMARK    1  A    between atoms: O_1  and  C_7
REMARK    2  A    between atoms: O_2  and  C_8
REMARK    3  A    between atoms: O_3  and  C_9
REMARK    4  A    between atoms: O_4  and  C_12
REMARK    5  A    between atoms: C_6  and  C_12
REMARK                            x       y       z     vdW  Elec       q    Type
REMARK                         _______ _______ _______ _____ _____    ______ ____
ROOT
ATOM      1  C   UNL     1      82.441  82.353 102.075  0.00  0.00    +0.000 A 
ATOM      2  C   UNL     1      79.918  83.297 101.346  0.00  0.00    +0.000 A 
ATOM      3  C   UNL     1      80.871  83.018 100.364  0.00  0.00    +0.000 A 
ATOM      4  C   UNL     1      80.228  83.103 102.692  0.00  0.00    +0.000 A 
ATOM      5  C   UNL     1      82.131  82.547 100.730  0.00  0.00    +0.000 A 
ATOM      6  C   UNL     1      81.489  82.632 103.057  0.00  0.00    +0.000 A 
ENDROOT
BRANCH   2   7
ATOM      7  O   UNL     1      78.686  83.759 100.989  0.00  0.00    +0.000 OA
ATOM      8  H   UNL     1      78.801  84.589 100.495  0.00  0.00    +0.000 HD
ENDBRANCH   2   7
BRANCH   3   9
ATOM      9  O   UNL     1      80.579  83.203  99.046  0.00  0.00    +0.000 OA
ATOM     10  H   UNL     1      81.361  83.570  98.597  0.00  0.00    +0.000 HD
ENDBRANCH   3   9
BRANCH   4  11
ATOM     11  O   UNL     1      79.308  83.374 103.661  0.00  0.00    +0.000 OA
ATOM     12  H   UNL     1      78.443  83.046 103.360  0.00  0.00    +0.000 HD
ENDBRANCH   4  11
BRANCH   1  14
ATOM     13  O   UNL     1      83.976  80.987 103.299  0.00  0.00    +0.000 OA
ATOM     14  C   UNL     1      83.756  81.862 102.456  0.00  0.00    +0.000 C 
BRANCH  14  15
ATOM     15  O   UNL     1      84.759  82.478 101.772  0.00  0.00    +0.000 OA
ATOM     16  H   UNL     1      85.558  81.912 101.709  0.00  0.00    +0.000 HD
ENDBRANCH  14  15
ENDBRANCH   1  14
TORSDOF 5
ENDMDL
MODEL 2
REMARK VINA RESULT:    -7.230      0.042      2.402
REMARK INTER + INTRA:          -8.551
REMARK INTER:                  -8.497
REMARK INTRA:                  -0.053
REMARK UNBOUND:                -0.053
REMARK  Name = 370
REMARK  5 active torsions:
REMARK  status: ('A' for Active; 'I' for Inactive)
REMARK    1  A    between atoms: O_1  and  C_7
REMARK    2  A    between atoms: O_2  and  C_8
REMARK    3  A    between atoms: O_3  and  C_9
REMARK    4  A    between atoms: O_4  and  C_12
REMARK    5  A    between atoms: C_6  and  C_12
REMARK                            x       y       z     vdW  Elec       q    Type
REMARK                         _______ _______ _______ _____ _____    ______ ____
ROOT
ATOM      1  C   UNL     1      82.474  82.334 102.084  0.00  0.00    +0.000 A 
ATOM      2  C   UNL     1      79.958  83.288 101.345  0.00  0.00    +0.000 A 
ATOM      3  C   UNL     1      80.261  83.090 102.692  0.00  0.00    +0.000 A 
ATOM      4  C   UNL     1      80.914  83.009 100.367  0.00  0.00    +0.000 A 
ATOM      5  C   UNL     1      81.519  82.613 103.061  0.00  0.00    +0.000 A 
ATOM      6  C   UNL     1      82.171  82.532 100.736  0.00  0.00    +0.000 A 
ENDROOT
BRANCH   2   7
ATOM      7  O   UNL     1      78.728  83.753 100.984  0.00  0.00    +0.000 OA
ATOM      8  H   UNL     1      78.087  83.486 101.665  0.00  0.00    +0.000 HD
ENDBRANCH   2   7
BRANCH   3   9
ATOM      9  O   UNL     1      79.337  83.360 103.656  0.00  0.00    +0.000 OA
ATOM     10  H   UNL     1      79.433  84.286 103.938  0.00  0.00    +0.000 HD
ENDBRANCH   3   9
BRANCH   4  11
ATOM     11  O   UNL     1      80.629  83.196  99.047  0.00  0.00    +0.000 OA
ATOM     12  H   UNL     1      79.879  83.812  98.981  0.00  0.00    +0.000 HD
ENDBRANCH   4  11
BRANCH   1  14
ATOM     13  O   UNL     1      83.998  80.972 103.325  0.00  0.00    +0.000 OA
ATOM     14  C   UNL     1      83.785  81.836 102.469  0.00  0.00    +0.000 C 
BRANCH  14  15
ATOM     15  O   UNL     1      84.792  82.431 101.774  0.00  0.00    +0.000 OA
ATOM     16  H   UNL     1      85.675  82.176 102.119  0.00  0.00    +0.000 HD
ENDBRANCH  14  15
ENDBRANCH   1  14
TORSDOF 5
ENDMDL
MODEL 3
REMARK VINA RESULT:    -7.033      2.162      2.842
REMARK INTER + INTRA:          -8.320
REMARK INTER:                  -8.273
REMARK INTRA:                  -0.047
REMARK UNBOUND:                -0.053
REMARK  Name = 370
REMARK  5 active torsions:
REMARK  status: ('A' for Active; 'I' for Inactive)
REMARK    1  A    between atoms: O_1  and  C_7
REMARK    2  A    between atoms: O_2  and  C_8
REMARK    3  A    between atoms: O_3  and  C_9
REMARK    4  A    between atoms: O_4  and  C_12
REMARK    5  A    between atoms: C_6  and  C_12
REMARK                            x       y       z     vdW  Elec       q    Type
REMARK                         _______ _______ _______ _____ _____    ______ ____
ROOT
ATOM      1  C   UNL     1      81.360  83.475 102.860  0.00  0.00    +0.000 A 
ATOM      2  C   UNL     1      80.156  85.342 101.171  0.00  0.00    +0.000 A 
ATOM      3  C   UNL     1      79.588  84.078 101.333  0.00  0.00    +0.000 A 
ATOM      4  C   UNL     1      81.327  85.672 101.855  0.00  0.00    +0.000 A 
ATOM      5  C   UNL     1      80.190  83.145 102.176  0.00  0.00    +0.000 A 
ATOM      6  C   UNL     1      81.929  84.739 102.699  0.00  0.00    +0.000 A 
ENDROOT
BRANCH   2   7
ATOM      7  O   UNL     1      79.568  86.254 100.346  0.00  0.00    +0.000 OA
ATOM      8  H   UNL     1      78.825  86.664 100.822  0.00  0.00    +0.000 HD
ENDBRANCH   2   7
BRANCH   3   9
ATOM      9  O   UNL     1      78.445  83.745 100.671  0.00  0.00    +0.000 OA
ATOM     10  H   UNL     1      77.722  83.649 101.315  0.00  0.00    +0.000 HD
ENDBRANCH   3   9
BRANCH   4  11
ATOM     11  O   UNL     1      81.893  86.903 101.705  0.00  0.00    +0.000 OA
ATOM     12  H   UNL     1      82.249  86.967 100.802  0.00  0.00    +0.000 HD
ENDBRANCH   4  11
BRANCH   1  14
ATOM     13  O   UNL     1      82.999  81.844 103.471  0.00  0.00    +0.000 OA
ATOM     14  C   UNL     1      81.988  82.501 103.738  0.00  0.00    +0.000 C 
BRANCH  14  15
ATOM     15  O   UNL     1      81.336  82.375 104.926  0.00  0.00    +0.000 OA
ATOM     16  H   UNL     1      81.861  82.738 105.672  0.00  0.00    +0.000 HD
ENDBRANCH  14  15
ENDBRANCH   1  14
TORSDOF 5
ENDMDL
MODEL 4
REMARK VINA RESULT:    -6.999      1.323      3.981
REMARK INTER + INTRA:          -8.280
REMARK INTER:                  -8.231
REMARK INTRA:                  -0.049
REMARK UNBOUND:                -0.053
REMARK  Name = 370
REMARK  5 active torsions:
REMARK  status: ('A' for Active; 'I' for Inactive)
REMARK    1  A    between atoms: O_1  and  C_7
REMARK    2  A    between atoms: O_2  and  C_8
REMARK    3  A    between atoms: O_3  and  C_9
REMARK    4  A    between atoms: O_4  and  C_12
REMARK    5  A    between atoms: C_6  and  C_12
REMARK                            x       y       z     vdW  Elec       q    Type
REMARK                         _______ _______ _______ _____ _____    ______ ____
ROOT
ATOM      1  C   UNL     1      81.133  83.460 101.236  0.00  0.00    +0.000 A 
ATOM      2  C   UNL     1      81.130  82.535 103.868  0.00  0.00    +0.000 A 
ATOM      3  C   UNL     1      79.974  83.096 103.324  0.00  0.00    +0.000 A 
ATOM      4  C   UNL     1      82.287  82.436 103.095  0.00  0.00    +0.000 A 
ATOM      5  C   UNL     1      79.976  83.559 102.009  0.00  0.00    +0.000 A 
ATOM      6  C   UNL     1      82.289  82.899 101.780  0.00  0.00    +0.000 A 
ENDROOT
BRANCH   2   7
ATOM      7  O   UNL     1      81.128  82.084 105.155  0.00  0.00    +0.000 OA
ATOM      8  H   UNL     1      80.743  82.774 105.722  0.00  0.00    +0.000 HD
ENDBRANCH   2   7
BRANCH   3   9
ATOM      9  O   UNL     1      78.838  83.198 104.069  0.00  0.00    +0.000 OA
ATOM     10  H   UNL     1      78.951  83.907 104.726  0.00  0.00    +0.000 HD
ENDBRANCH   3   9
BRANCH   4  11
ATOM     11  O   UNL     1      83.423  81.892 103.615  0.00  0.00    +0.000 OA
ATOM     12  H   UNL     1      83.217  80.993 103.924  0.00  0.00    +0.000 HD
ENDBRANCH   4  11
BRANCH   1  14
ATOM     13  O   UNL     1      81.817  84.881  99.437  0.00  0.00    +0.000 OA
ATOM     14  C   UNL     1      81.135  83.944  99.864  0.00  0.00    +0.000 C 
BRANCH  14  15
ATOM     15  O   UNL     1      80.285  83.243  99.064  0.00  0.00    +0.000 OA
ATOM     16  H   UNL     1      80.765  82.753  98.362  0.00  0.00    +0.000 HD
ENDBRANCH  14  15
ENDBRANCH   1  14
TORSDOF 5
ENDMDL
MODEL 5
REMARK VINA RESULT:    -6.993      1.343      3.716
REMARK INTER + INTRA:          -8.273
REMARK INTER:                  -8.225
REMARK INTRA:                  -0.049
REMARK UNBOUND:                -0.053
REMARK  Name = 370
REMARK  5 active torsions:
REMARK  status: ('A' for Active; 'I' for Inactive)
REMARK    1  A    between atoms: O_1  and  C_7
REMARK    2  A    between atoms: O_2  and  C_8
REMARK    3  A    between atoms: O_3  and  C_9
REMARK    4  A    between atoms: O_4  and  C_12
REMARK    5  A    between atoms: C_6  and  C_12
REMARK                            x       y       z     vdW  Elec       q    Type
REMARK                         _______ _______ _______ _____ _____    ______ ____
ROOT
ATOM      1  C   UNL     1      81.123  83.445 101.262  0.00  0.00    +0.000 A 
ATOM      2  C   UNL     1      81.105  82.535 103.899  0.00  0.00    +0.000 A 
ATOM      3  C   UNL     1      82.270  82.442 103.136  0.00  0.00    +0.000 A 
ATOM      4  C   UNL     1      79.950  83.084 103.343  0.00  0.00    +0.000 A 
ATOM      5  C   UNL     1      82.277  82.896 101.818  0.00  0.00    +0.000 A 
ATOM      6  C   UNL     1      79.958  83.538 102.025  0.00  0.00    +0.000 A 
ENDROOT
BRANCH   2   7
ATOM      7  O   UNL     1      81.097  82.090 105.188  0.00  0.00    +0.000 OA
ATOM      8  H   UNL     1      80.598  81.255 105.221  0.00  0.00    +0.000 HD
ENDBRANCH   2   7
BRANCH   3   9
ATOM      9  O   UNL     1      83.405  81.909 103.669  0.00  0.00    +0.000 OA
ATOM     10  H   UNL     1      83.350  81.951 104.640  0.00  0.00    +0.000 HD
ENDBRANCH   3   9
BRANCH   4  11
ATOM     11  O   UNL     1      78.805  83.179 104.077  0.00  0.00    +0.000 OA
ATOM     12  H   UNL     1      79.019  83.612 104.921  0.00  0.00    +0.000 HD
ENDBRANCH   4  11
BRANCH   1  14
ATOM     13  O   UNL     1      81.796  84.867  99.460  0.00  0.00    +0.000 OA
ATOM     14  C   UNL     1      81.131  83.918  99.886  0.00  0.00    +0.000 C 
BRANCH  14  15
ATOM     15  O   UNL     1      80.308  83.192  99.082  0.00  0.00    +0.000 OA
ATOM     16  H   UNL     1      80.811  82.594  98.488  0.00  0.00    +0.000 HD
ENDBRANCH  14  15
ENDBRANCH   1  14
TORSDOF 5
ENDMDL
MODEL 6
REMARK VINA RESULT:    -6.972      1.835      3.545
REMARK INTER + INTRA:          -8.248
REMARK INTER:                  -8.194
REMARK INTRA:                  -0.054
REMARK UNBOUND:                -0.053
REMARK  Name = 370
REMARK  5 active torsions:
REMARK  status: ('A' for Active; 'I' for Inactive)
REMARK    1  A    between atoms: O_1  and  C_7
REMARK    2  A    between atoms: O_2  and  C_8
REMARK    3  A    between atoms: O_3  and  C_9
REMARK    4  A    between atoms: O_4  and  C_12
REMARK    5  A    between atoms: C_6  and  C_12
REMARK                            x       y       z     vdW  Elec       q    Type
REMARK                         _______ _______ _______ _____ _____    ______ ____
ROOT
ATOM      1  C   UNL     1      80.568  82.411 104.096  0.00  0.00    +0.000 A 
ATOM      2  C   UNL     1      81.209  83.394 101.564  0.00  0.00    +0.000 A 
ATOM      3  C   UNL     1      79.873  83.200 101.921  0.00  0.00    +0.000 A 
ATOM      4  C   UNL     1      82.223  83.096 102.474  0.00  0.00    +0.000 A 
ATOM      5  C   UNL     1      79.554  82.709 103.186  0.00  0.00    +0.000 A 
ATOM      6  C   UNL     1      81.903  82.605 103.739  0.00  0.00    +0.000 A 
ENDROOT
BRANCH   2   7
ATOM      7  O   UNL     1      81.521  83.873 100.327  0.00  0.00    +0.000 OA
ATOM      8  H   UNL     1      82.357  84.367 100.391  0.00  0.00    +0.000 HD
ENDBRANCH   2   7
BRANCH   3   9
ATOM      9  O   UNL     1      78.874  83.488 101.041  0.00  0.00    +0.000 OA
ATOM     10  H   UNL     1      78.019  83.262 101.446  0.00  0.00    +0.000 HD
ENDBRANCH   3   9
BRANCH   4  11
ATOM     11  O   UNL     1      83.531  83.279 102.138  0.00  0.00    +0.000 OA
ATOM     12  H   UNL     1      83.883  82.433 101.810  0.00  0.00    +0.000 HD
ENDBRANCH   4  11
BRANCH   1  14
ATOM     13  O   UNL     1      79.302  82.294 106.122  0.00  0.00    +0.000 OA
ATOM     14  C   UNL     1      80.234  81.898 105.415  0.00  0.00    +0.000 C 
BRANCH  14  15
ATOM     15  O   UNL     1      81.074  80.904 105.814  0.00  0.00    +0.000 OA
ATOM     16  H   UNL     1      80.596  80.059 105.961  0.00  0.00    +0.000 HD
ENDBRANCH  14  15
ENDBRANCH   1  14
TORSDOF 5
ENDMDL
MODEL 7
REMARK VINA RESULT:    -6.969      1.829      3.502
REMARK INTER + INTRA:          -8.245
REMARK INTER:                  -8.191
REMARK INTRA:                  -0.054
REMARK UNBOUND:                -0.053
REMARK  Name = 370
REMARK  5 active torsions:
REMARK  status: ('A' for Active; 'I' for Inactive)
REMARK    1  A    between atoms: O_1  and  C_7
REMARK    2  A    between atoms: O_2  and  C_8
REMARK    3  A    between atoms: O_3  and  C_9
REMARK    4  A    between atoms: O_4  and  C_12
REMARK    5  A    between atoms: C_6  and  C_12
REMARK                            x       y       z     vdW  Elec       q    Type
REMARK                         _______ _______ _______ _____ _____    ______ ____
ROOT
ATOM      1  C   UNL     1      80.573  82.410 104.086  0.00  0.00    +0.000 A 
ATOM      2  C   UNL     1      81.198  83.395 101.551  0.00  0.00    +0.000 A 
ATOM      3  C   UNL     1      82.218  83.102 102.457  0.00  0.00    +0.000 A 
ATOM      4  C   UNL     1      79.866  83.195 101.912  0.00  0.00    +0.000 A 
ATOM      5  C   UNL     1      81.905  82.610 103.724  0.00  0.00    +0.000 A 
ATOM      6  C   UNL     1      79.553  82.703 103.179  0.00  0.00    +0.000 A 
ENDROOT
BRANCH   2   7
ATOM      7  O   UNL     1      81.504  83.876 100.312  0.00  0.00    +0.000 OA
ATOM      8  H   UNL     1      81.162  84.784 100.243  0.00  0.00    +0.000 HD
ENDBRANCH   2   7
BRANCH   3   9
ATOM      9  O   UNL     1      83.523  83.292 102.115  0.00  0.00    +0.000 OA
ATOM     10  H   UNL     1      83.585  83.399 101.150  0.00  0.00    +0.000 HD
ENDBRANCH   3   9
BRANCH   4  11
ATOM     11  O   UNL     1      78.860  83.478 101.037  0.00  0.00    +0.000 OA
ATOM     12  H   UNL     1      79.121  84.257 100.515  0.00  0.00    +0.000 HD
ENDBRANCH   4  11
BRANCH   1  14
ATOM     13  O   UNL     1      79.323  82.301 106.122  0.00  0.00    +0.000 OA
ATOM     14  C   UNL     1      80.247  81.899 105.408  0.00  0.00    +0.000 C 
BRANCH  14  15
ATOM     15  O   UNL     1      81.083  80.899 105.799  0.00  0.00    +0.000 OA
ATOM     16  H   UNL     1      81.922  80.904 105.290  0.00  0.00    +0.000 HD
ENDBRANCH  14  15
ENDBRANCH   1  14
TORSDOF 5
ENDMDL
MODEL 8
REMARK VINA RESULT:    -6.960      2.311      2.932
REMARK INTER + INTRA:          -8.233
REMARK INTER:                  -8.187
REMARK INTRA:                  -0.047
REMARK UNBOUND:                -0.053
REMARK  Name = 370
REMARK  5 active torsions:
REMARK  status: ('A' for Active; 'I' for Inactive)
REMARK    1  A    between atoms: O_1  and  C_7
REMARK    2  A    between atoms: O_2  and  C_8
REMARK    3  A    between atoms: O_3  and  C_9
REMARK    4  A    between atoms: O_4  and  C_12
REMARK    5  A    between atoms: C_6  and  C_12
REMARK                            x       y       z     vdW  Elec       q    Type
REMARK                         _______ _______ _______ _____ _____    ______ ____
ROOT
ATOM      1  C   UNL     1      81.514  83.507 102.837  0.00  0.00    +0.000 A 
ATOM      2  C   UNL     1      80.397  85.537 101.281  0.00  0.00    +0.000 A 
ATOM      3  C   UNL     1      81.600  85.755 101.955  0.00  0.00    +0.000 A 
ATOM      4  C   UNL     1      79.753  84.303 101.386  0.00  0.00    +0.000 A 
ATOM      5  C   UNL     1      82.157  84.740 102.732  0.00  0.00    +0.000 A 
ATOM      6  C   UNL     1      80.311  83.289 102.163  0.00  0.00    +0.000 A 
ENDROOT
BRANCH   2   7
ATOM      7  O   UNL     1      79.852  86.529 100.522  0.00  0.00    +0.000 OA
ATOM      8  H   UNL     1      78.896  86.362 100.440  0.00  0.00    +0.000 HD
ENDBRANCH   2   7
BRANCH   3   9
ATOM      9  O   UNL     1      82.238  86.954 101.859  0.00  0.00    +0.000 OA
ATOM     10  H   UNL     1      82.549  87.219 102.743  0.00  0.00    +0.000 HD
ENDBRANCH   3   9
BRANCH   4  11
ATOM     11  O   UNL     1      78.577  84.078 100.735  0.00  0.00    +0.000 OA
ATOM     12  H   UNL     1      78.573  84.609  99.919  0.00  0.00    +0.000 HD
ENDBRANCH   4  11
BRANCH   1  14
ATOM     13  O   UNL     1      83.035  81.724 103.312  0.00  0.00    +0.000 OA
ATOM     14  C   UNL     1      82.095  82.450 103.649  0.00  0.00    +0.000 C 
BRANCH  14  15
ATOM     15  O   UNL     1      81.485  82.329 104.860  0.00  0.00    +0.000 OA
ATOM     16  H   UNL     1      81.388  81.390 105.128  0.00  0.00    +0.000 HD
ENDBRANCH  14  15
ENDBRANCH   1  14
TORSDOF 5
ENDMDL
MODEL 9
REMARK VINA RESULT:    -6.886      2.012      4.225
REMARK INTER + INTRA:          -8.146
REMARK INTER:                  -8.099
REMARK INTRA:                  -0.048
REMARK UNBOUND:                -0.053
REMARK  Name = 370
REMARK  5 active torsions:
REMARK  status: ('A' for Active; 'I' for Inactive)
REMARK    1  A    between atoms: O_1  and  C_7
REMARK    2  A    between atoms: O_2  and  C_8
REMARK    3  A    between atoms: O_3  and  C_9
REMARK    4  A    between atoms: O_4  and  C_12
REMARK    5  A    between atoms: C_6  and  C_12
REMARK                            x       y       z     vdW  Elec       q    Type
REMARK                         _______ _______ _______ _____ _____    ______ ____
ROOT
ATOM      1  C   UNL     1      81.095  84.991 101.794  0.00  0.00    +0.000 A 
ATOM      2  C   UNL     1      82.406  82.875 103.054  0.00  0.00    +0.000 A 
ATOM      3  C   UNL     1      82.985  83.494 101.946  0.00  0.00    +0.000 A 
ATOM      4  C   UNL     1      81.172  83.315 103.533  0.00  0.00    +0.000 A 
ATOM      5  C   UNL     1      82.329  84.551 101.316  0.00  0.00    +0.000 A 
ATOM      6  C   UNL     1      80.516  84.372 102.903  0.00  0.00    +0.000 A 
ENDROOT
BRANCH   2   7
ATOM      7  O   UNL     1      83.047  81.841 103.670  0.00  0.00    +0.000 OA
ATOM      8  H   UNL     1      83.265  81.172 102.998  0.00  0.00    +0.000 HD
ENDBRANCH   2   7
BRANCH   3   9
ATOM      9  O   UNL     1      84.191  83.074 101.471  0.00  0.00    +0.000 OA
ATOM     10  H   UNL     1      84.142  82.121 101.280  0.00  0.00    +0.000 HD
ENDBRANCH   3   9
BRANCH   4  11
ATOM     11  O   UNL     1      80.595  82.717 104.613  0.00  0.00    +0.000 OA
ATOM     12  H   UNL     1      79.657  82.558 104.409  0.00  0.00    +0.000 HD
ENDBRANCH   4  11
BRANCH   1  14
ATOM     13  O   UNL     1      80.762  87.277 101.172  0.00  0.00    +0.000 OA
ATOM     14  C   UNL     1      80.411  86.093 101.136  0.00  0.00    +0.000 C 
BRANCH  14  15
ATOM     15  O   UNL     1      79.307  85.686 100.452  0.00  0.00    +0.000 OA
ATOM     16  H   UNL     1      79.238  84.707 100.420  0.00  0.00    +0.000 HD
ENDBRANCH  14  15
ENDBRANCH   1  14
TORSDOF 5
ENDMDL
MODEL 10
REMARK VINA RESULT:    -6.878      2.035      4.759
REMARK INTER + INTRA:          -8.137
REMARK INTER:                  -8.090
REMARK INTRA:                  -0.048
REMARK UNBOUND:                -0.053
REMARK  Name = 370
REMARK  5 active torsions:
REMARK  status: ('A' for Active; 'I' for Inactive)
REMARK    1  A    between atoms: O_1  and  C_7
REMARK    2  A    between atoms: O_2  and  C_8
REMARK    3  A    between atoms: O_3  and  C_9
REMARK    4  A    between atoms: O_4  and  C_12
REMARK    5  A    between atoms: C_6  and  C_12
REMARK                            x       y       z     vdW  Elec       q    Type
REMARK                         _______ _______ _______ _____ _____    ______ ____
ROOT
ATOM      1  C   UNL     1      81.094  85.025 101.763  0.00  0.00    +0.000 A 
ATOM      2  C   UNL     1      82.369  82.918 103.076  0.00  0.00    +0.000 A 
ATOM      3  C   UNL     1      81.132  83.378 103.530  0.00  0.00    +0.000 A 
ATOM      4  C   UNL     1      82.968  83.512 101.965  0.00  0.00    +0.000 A 
ATOM      5  C   UNL     1      80.496  84.431 102.873  0.00  0.00    +0.000 A 
ATOM      6  C   UNL     1      82.332  84.566 101.309  0.00  0.00    +0.000 A 
ENDROOT
BRANCH   2   7
ATOM      7  O   UNL     1      82.991  81.889 103.718  0.00  0.00    +0.000 OA
ATOM      8  H   UNL     1      83.952  82.023 103.652  0.00  0.00    +0.000 HD
ENDBRANCH   2   7
BRANCH   3   9
ATOM      9  O   UNL     1      80.536  82.805 104.613  0.00  0.00    +0.000 OA
ATOM     10  H   UNL     1      79.574  82.942 104.556  0.00  0.00    +0.000 HD
ENDBRANCH   3   9
BRANCH   4  11
ATOM     11  O   UNL     1      84.177  83.074 101.513  0.00  0.00    +0.000 OA
ATOM     12  H   UNL     1      84.180  83.137 100.542  0.00  0.00    +0.000 HD
ENDBRANCH   4  11
BRANCH   1  14
ATOM     13  O   UNL     1      80.797  87.304 101.100  0.00  0.00    +0.000 OA
ATOM     14  C   UNL     1      80.431  86.124 101.079  0.00  0.00    +0.000 C 
BRANCH  14  15
ATOM     15  O   UNL     1      79.330  85.719 100.390  0.00  0.00    +0.000 OA
ATOM     16  H   UNL     1      78.568  85.552 100.985  0.00  0.00    +0.000 HD
ENDBRANCH  14  15
ENDBRANCH   1  14
TORSDOF 5
ENDMDL
