MODEL 1
REMARK VINA RESULT:      -6.8      0.000      0.000
REMARK  10 active torsions:
REMARK  status: ('A' for Active; 'I' for Inactive)
REMARK    1  A    between atoms: O_2  and  C_12 
REMARK    2  A    between atoms: O_2  and  C_14 
REMARK    3  A    between atoms: O_3  and  C_8 
REMARK    4  A    between atoms: O_4  and  C_9 
REMARK    5  A    between atoms: O_5  and  C_10 
REMARK    6  A    between atoms: O_6  and  C_13 
REMARK    7  A    between atoms: O_7  and  C_21 
REMARK    8  A    between atoms: C_11  and  C_13 
REMARK    9  A    between atoms: C_14  and  C_15 
REMARK   10  A    between atoms: C_15  and  C_16 
ROOT
HETATM    1  O   UNK     0     168.705 173.594 170.596  0.00  0.00    -0.348 OA
HETATM    2  C   UNK     0     169.882 175.251 172.625  0.00  0.00     0.183 C 
HETATM    3  C   UNK     0     168.375 175.213 172.368  0.00  0.00     0.180 C 
HETATM    4  C   UNK     0     170.664 174.785 171.396  0.00  0.00     0.204 C 
HETATM    5  C   UNK     0     167.958 173.863 171.783  0.00  0.00     0.179 C 
HETATM    6  C   UNK     0     170.105 173.474 170.845  0.00  0.00     0.291 C 
ENDROOT
BRANCH   5   7
HETATM    7  C   UNK     0     166.480 173.841 171.409  0.00  0.00     0.198 C 
BRANCH   7   8
HETATM    8  O   UNK     0     166.001 175.173 171.382  0.00  0.00    -0.398 OA
HETATM    9  H   UNK     0     165.606 175.362 172.250  0.00  0.00     0.209 HD
ENDBRANCH   7   8
ENDBRANCH   5   7
BRANCH   6  10
HETATM   10  O   UNK     0     170.788 173.182 169.628  0.00  0.00    -0.358 OA
BRANCH  10  11
HETATM   11  C   UNK     0     170.455 174.117 168.612  0.00  0.00     0.175 C 
BRANCH  11  12
HETATM   12  C   UNK     0     169.962 173.378 167.373  0.00  0.00     0.065 C 
BRANCH  12  13
HETATM   13  C   UNK     0     171.096 172.863 166.522  0.00  0.00    -0.056 A 
HETATM   14  C   UNK     0     171.861 173.759 165.794  0.00  0.00     0.010 A 
HETATM   15  C   UNK     0     172.909 173.282 165.007  0.00  0.00     0.037 A 
HETATM   16  C   UNK     0     173.179 171.914 164.960  0.00  0.00     0.065 A 
HETATM   17  C   UNK     0     172.401 171.024 165.699  0.00  0.00     0.037 A 
HETATM   18  C   UNK     0     171.353 171.501 166.485  0.00  0.00     0.010 A 
BRANCH  16  19
HETATM   19  O   UNK     0     174.203 171.449 164.192  0.00  0.00    -0.361 OA
HETATM   20  H   UNK     0     175.046 171.680 164.618  0.00  0.00     0.217 HD
ENDBRANCH  16  19
ENDBRANCH  12  13
ENDBRANCH  11  12
ENDBRANCH  10  11
ENDBRANCH   6  10
BRANCH   3  21
HETATM   21  O   UNK     0     167.683 175.429 173.595  0.00  0.00    -0.390 OA
HETATM   22  H   UNK     0     168.204 175.024 174.310  0.00  0.00     0.210 HD
ENDBRANCH   3  21
BRANCH   4  23
HETATM   23  O   UNK     0     172.029 174.572 171.757  0.00  0.00    -0.388 OA
HETATM   24  H   UNK     0     172.049 173.972 172.523  0.00  0.00     0.210 HD
ENDBRANCH   4  23
BRANCH   2  25
HETATM   25  O   UNK     0     170.243 176.597 172.936  0.00  0.00    -0.390 OA
HETATM   26  H   UNK     0     171.024 176.820 172.401  0.00  0.00     0.210 HD
ENDBRANCH   2  25
TORSDOF 10
ENDMDL
MODEL 2
REMARK VINA RESULT:      -6.8      4.668      6.927
REMARK  10 active torsions:
REMARK  status: ('A' for Active; 'I' for Inactive)
REMARK    1  A    between atoms: O_2  and  C_12 
REMARK    2  A    between atoms: O_2  and  C_14 
REMARK    3  A    between atoms: O_3  and  C_8 
REMARK    4  A    between atoms: O_4  and  C_9 
REMARK    5  A    between atoms: O_5  and  C_10 
REMARK    6  A    between atoms: O_6  and  C_13 
REMARK    7  A    between atoms: O_7  and  C_21 
REMARK    8  A    between atoms: C_11  and  C_13 
REMARK    9  A    between atoms: C_14  and  C_15 
REMARK   10  A    between atoms: C_15  and  C_16 
ROOT
HETATM    1  O   UNK     0     163.184 174.332 169.193  0.00  0.00    -0.348 OA
HETATM    2  C   UNK     0     160.640 173.634 168.056  0.00  0.00     0.183 C 
HETATM    3  C   UNK     0     160.774 174.260 169.445  0.00  0.00     0.180 C 
HETATM    4  C   UNK     0     161.941 172.952 167.629  0.00  0.00     0.204 C 
HETATM    5  C   UNK     0     162.039 175.115 169.535  0.00  0.00     0.179 C 
HETATM    6  C   UNK     0     163.146 173.867 167.846  0.00  0.00     0.291 C 
ENDROOT
BRANCH   5   7
HETATM    7  C   UNK     0     162.257 175.655 170.945  0.00  0.00     0.198 C 
BRANCH   7   8
HETATM    8  O   UNK     0     161.301 176.669 171.193  0.00  0.00    -0.398 OA
HETATM    9  H   UNK     0     161.687 177.513 170.905  0.00  0.00     0.209 HD
ENDBRANCH   7   8
ENDBRANCH   5   7
BRANCH   6  10
HETATM   10  O   UNK     0     164.324 173.114 167.562  0.00  0.00    -0.358 OA
BRANCH  10  11
HETATM   11  C   UNK     0     165.341 173.937 167.010  0.00  0.00     0.175 C 
BRANCH  11  12
HETATM   12  C   UNK     0     166.338 174.324 168.096  0.00  0.00     0.065 C 
BRANCH  12  13
HETATM   13  C   UNK     0     167.764 174.026 167.700  0.00  0.00    -0.056 A 
HETATM   14  C   UNK     0     168.342 174.734 166.660  0.00  0.00     0.010 A 
HETATM   15  C   UNK     0     169.659 174.458 166.294  0.00  0.00     0.037 A 
HETATM   16  C   UNK     0     170.381 173.477 166.974  0.00  0.00     0.065 A 
HETATM   17  C   UNK     0     169.786 172.772 168.019  0.00  0.00     0.037 A 
HETATM   18  C   UNK     0     168.468 173.048 168.385  0.00  0.00     0.010 A 
BRANCH  16  19
HETATM   19  O   UNK     0     171.667 173.208 166.616  0.00  0.00    -0.361 OA
HETATM   20  H   UNK     0     171.712 173.117 165.649  0.00  0.00     0.217 HD
ENDBRANCH  16  19
ENDBRANCH  12  13
ENDBRANCH  11  12
ENDBRANCH  10  11
ENDBRANCH   6  10
BRANCH   3  21
HETATM   21  O   UNK     0     159.635 175.075 169.706  0.00  0.00    -0.390 OA
HETATM   22  H   UNK     0     159.095 175.105 168.898  0.00  0.00     0.210 HD
ENDBRANCH   3  21
BRANCH   4  23
HETATM   23  O   UNK     0     161.871 172.626 166.240  0.00  0.00    -0.388 OA
HETATM   24  H   UNK     0     162.554 173.140 165.775  0.00  0.00     0.210 HD
ENDBRANCH   4  23
BRANCH   2  25
HETATM   25  O   UNK     0     159.590 172.668 168.106  0.00  0.00    -0.390 OA
HETATM   26  H   UNK     0     158.747 173.151 168.071  0.00  0.00     0.210 HD
ENDBRANCH   2  25
TORSDOF 10
ENDMDL
MODEL 3
REMARK VINA RESULT:      -6.8      4.660      6.741
REMARK  10 active torsions:
REMARK  status: ('A' for Active; 'I' for Inactive)
REMARK    1  A    between atoms: O_2  and  C_12 
REMARK    2  A    between atoms: O_2  and  C_14 
REMARK    3  A    between atoms: O_3  and  C_8 
REMARK    4  A    between atoms: O_4  and  C_9 
REMARK    5  A    between atoms: O_5  and  C_10 
REMARK    6  A    between atoms: O_6  and  C_13 
REMARK    7  A    between atoms: O_7  and  C_21 
REMARK    8  A    between atoms: C_11  and  C_13 
REMARK    9  A    between atoms: C_14  and  C_15 
REMARK   10  A    between atoms: C_15  and  C_16 
ROOT
HETATM    1  O   UNK     0     163.152 174.477 168.592  0.00  0.00    -0.348 OA
HETATM    2  C   UNK     0     162.181 172.284 167.011  0.00  0.00     0.183 C 
HETATM    3  C   UNK     0     161.490 172.738 168.297  0.00  0.00     0.180 C 
HETATM    4  C   UNK     0     163.646 172.724 166.986  0.00  0.00     0.204 C 
HETATM    5  C   UNK     0     161.747 174.223 168.557  0.00  0.00     0.179 C 
HETATM    6  C   UNK     0     163.789 174.202 167.346  0.00  0.00     0.291 C 
ENDROOT
BRANCH   5   7
HETATM    7  C   UNK     0     161.166 174.672 169.894  0.00  0.00     0.198 C 
BRANCH   7   8
HETATM    8  O   UNK     0     159.832 175.097 169.688  0.00  0.00    -0.398 OA
HETATM    9  H   UNK     0     159.388 175.104 170.553  0.00  0.00     0.209 HD
ENDBRANCH   7   8
ENDBRANCH   5   7
BRANCH   6  10
HETATM   10  O   UNK     0     165.181 174.498 167.441  0.00  0.00    -0.358 OA
BRANCH  10  11
HETATM   11  C   UNK     0     165.879 173.478 168.141  0.00  0.00     0.175 C 
BRANCH  11  12
HETATM   12  C   UNK     0     167.104 174.071 168.828  0.00  0.00     0.065 C 
BRANCH  12  13
HETATM   13  C   UNK     0     168.368 173.861 168.029  0.00  0.00    -0.056 A 
HETATM   14  C   UNK     0     169.247 172.858 168.399  0.00  0.00     0.010 A 
HETATM   15  C   UNK     0     170.414 172.664 167.661  0.00  0.00     0.037 A 
HETATM   16  C   UNK     0     170.687 173.479 166.561  0.00  0.00     0.065 A 
HETATM   17  C   UNK     0     169.792 174.485 166.200  0.00  0.00     0.037 A 
HETATM   18  C   UNK     0     168.625 174.678 166.939  0.00  0.00     0.010 A 
BRANCH  16  19
HETATM   19  O   UNK     0     171.826 173.289 165.840  0.00  0.00    -0.361 OA
HETATM   20  H   UNK     0     172.554 173.772 166.269  0.00  0.00     0.217 HD
ENDBRANCH  16  19
ENDBRANCH  12  13
ENDBRANCH  11  12
ENDBRANCH  10  11
ENDBRANCH   6  10
BRANCH   3  21
HETATM   21  O   UNK     0     160.087 172.515 168.182  0.00  0.00    -0.390 OA
HETATM   22  H   UNK     0     159.940 171.903 167.441  0.00  0.00     0.210 HD
ENDBRANCH   3  21
BRANCH   4  23
HETATM   23  O   UNK     0     164.176 172.530 165.674  0.00  0.00    -0.388 OA
HETATM   24  H   UNK     0     165.042 172.971 165.631  0.00  0.00     0.210 HD
ENDBRANCH   4  23
BRANCH   2  25
HETATM   25  O   UNK     0     162.111 170.859 166.951  0.00  0.00    -0.390 OA
HETATM   26  H   UNK     0     163.023 170.525 166.895  0.00  0.00     0.210 HD
ENDBRANCH   2  25
TORSDOF 10
ENDMDL
MODEL 4
REMARK VINA RESULT:      -6.6      2.200      3.468
REMARK  10 active torsions:
REMARK  status: ('A' for Active; 'I' for Inactive)
REMARK    1  A    between atoms: O_2  and  C_12 
REMARK    2  A    between atoms: O_2  and  C_14 
REMARK    3  A    between atoms: O_3  and  C_8 
REMARK    4  A    between atoms: O_4  and  C_9 
REMARK    5  A    between atoms: O_5  and  C_10 
REMARK    6  A    between atoms: O_6  and  C_13 
REMARK    7  A    between atoms: O_7  and  C_21 
REMARK    8  A    between atoms: C_11  and  C_13 
REMARK    9  A    between atoms: C_14  and  C_15 
REMARK   10  A    between atoms: C_15  and  C_16 
ROOT
HETATM    1  O   UNK     0     167.345 173.328 170.276  0.00  0.00    -0.348 OA
HETATM    2  C   UNK     0     165.336 174.611 168.673  0.00  0.00     0.183 C 
HETATM    3  C   UNK     0     165.192 174.439 170.185  0.00  0.00     0.180 C 
HETATM    4  C   UNK     0     166.319 173.593 168.091  0.00  0.00     0.204 C 
HETATM    5  C   UNK     0     166.565 174.375 170.858  0.00  0.00     0.179 C 
HETATM    6  C   UNK     0     167.618 173.552 168.895  0.00  0.00     0.291 C 
ENDROOT
BRANCH   5   7
HETATM    7  C   UNK     0     166.450 174.086 172.351  0.00  0.00     0.198 C 
BRANCH   7   8
HETATM    8  O   UNK     0     166.314 175.315 173.039  0.00  0.00    -0.398 OA
HETATM    9  H   UNK     0     167.180 175.534 173.424  0.00  0.00     0.209 HD
ENDBRANCH   7   8
ENDBRANCH   5   7
BRANCH   6  10
HETATM   10  O   UNK     0     168.418 172.488 168.383  0.00  0.00    -0.358 OA
BRANCH  10  11
HETATM   11  C   UNK     0     169.797 172.822 168.403  0.00  0.00     0.175 C 
BRANCH  11  12
HETATM   12  C   UNK     0     170.147 173.646 167.169  0.00  0.00     0.065 C 
BRANCH  12  13
HETATM   13  C   UNK     0     171.255 173.021 166.357  0.00  0.00    -0.056 A 
HETATM   14  C   UNK     0     172.106 173.835 165.628  0.00  0.00     0.010 A 
HETATM   15  C   UNK     0     173.130 173.257 164.878  0.00  0.00     0.037 A 
HETATM   16  C   UNK     0     173.288 171.871 164.866  0.00  0.00     0.065 A 
HETATM   17  C   UNK     0     172.424 171.064 165.605  0.00  0.00     0.037 A 
HETATM   18  C   UNK     0     171.401 171.642 166.355  0.00  0.00     0.010 A 
BRANCH  16  19
HETATM   19  O   UNK     0     174.288 171.307 164.134  0.00  0.00    -0.361 OA
HETATM   20  H   UNK     0     175.122 171.765 164.334  0.00  0.00     0.217 HD
ENDBRANCH  16  19
ENDBRANCH  12  13
ENDBRANCH  11  12
ENDBRANCH  10  11
ENDBRANCH   6  10
BRANCH   3  21
HETATM   21  O   UNK     0     164.459 175.539 170.716  0.00  0.00    -0.390 OA
HETATM   22  H   UNK     0     164.591 175.552 171.679  0.00  0.00     0.210 HD
ENDBRANCH   3  21
BRANCH   4  23
HETATM   23  O   UNK     0     166.635 173.955 166.747  0.00  0.00    -0.388 OA
HETATM   24  H   UNK     0     166.113 174.742 166.516  0.00  0.00     0.210 HD
ENDBRANCH   4  23
BRANCH   2  25
HETATM   25  O   UNK     0     164.050 174.422 168.082  0.00  0.00    -0.390 OA
HETATM   26  H   UNK     0     163.651 173.638 168.497  0.00  0.00     0.210 HD
ENDBRANCH   2  25
TORSDOF 10
ENDMDL
MODEL 5
REMARK VINA RESULT:      -6.6      2.121      6.890
REMARK  10 active torsions:
REMARK  status: ('A' for Active; 'I' for Inactive)
REMARK    1  A    between atoms: O_2  and  C_12 
REMARK    2  A    between atoms: O_2  and  C_14 
REMARK    3  A    between atoms: O_3  and  C_8 
REMARK    4  A    between atoms: O_4  and  C_9 
REMARK    5  A    between atoms: O_5  and  C_10 
REMARK    6  A    between atoms: O_6  and  C_13 
REMARK    7  A    between atoms: O_7  and  C_21 
REMARK    8  A    between atoms: C_11  and  C_13 
REMARK    9  A    between atoms: C_14  and  C_15 
REMARK   10  A    between atoms: C_15  and  C_16 
ROOT
HETATM    1  O   UNK     0     171.601 174.054 167.852  0.00  0.00    -0.348 OA
HETATM    2  C   UNK     0     172.071 171.505 166.616  0.00  0.00     0.183 C 
HETATM    3  C   UNK     0     170.881 172.390 166.244  0.00  0.00     0.180 C 
HETATM    4  C   UNK     0     172.602 171.848 168.008  0.00  0.00     0.204 C 
HETATM    5  C   UNK     0     171.202 173.865 166.494  0.00  0.00     0.179 C 
HETATM    6  C   UNK     0     172.801 173.354 168.173  0.00  0.00     0.291 C 
ENDROOT
BRANCH   5   7
HETATM    7  C   UNK     0     169.991 174.757 166.242  0.00  0.00     0.198 C 
BRANCH   7   8
HETATM    8  O   UNK     0     168.823 173.960 166.300  0.00  0.00    -0.398 OA
HETATM    9  H   UNK     0     168.225 174.262 165.595  0.00  0.00     0.209 HD
ENDBRANCH   7   8
ENDBRANCH   5   7
BRANCH   6  10
HETATM   10  O   UNK     0     173.156 173.604 169.532  0.00  0.00    -0.358 OA
BRANCH  10  11
HETATM   11  C   UNK     0     172.471 174.737 170.045  0.00  0.00     0.175 C 
BRANCH  11  12
HETATM   12  C   UNK     0     172.009 174.458 171.470  0.00  0.00     0.065 C 
BRANCH  12  13
HETATM   13  C   UNK     0     170.518 174.630 171.634  0.00  0.00    -0.056 A 
HETATM   14  C   UNK     0     169.657 173.819 170.914  0.00  0.00     0.010 A 
HETATM   15  C   UNK     0     168.280 173.978 171.065  0.00  0.00     0.037 A 
HETATM   16  C   UNK     0     167.782 174.948 171.936  0.00  0.00     0.065 A 
HETATM   17  C   UNK     0     168.661 175.758 172.655  0.00  0.00     0.037 A 
HETATM   18  C   UNK     0     170.038 175.598 172.503  0.00  0.00     0.010 A 
BRANCH  16  19
HETATM   19  O   UNK     0     166.437 175.104 172.084  0.00  0.00    -0.361 OA
HETATM   20  H   UNK     0     166.246 176.041 172.258  0.00  0.00     0.217 HD
ENDBRANCH  16  19
ENDBRANCH  12  13
ENDBRANCH  11  12
ENDBRANCH  10  11
ENDBRANCH   6  10
BRANCH   3  21
HETATM   21  O   UNK     0     170.566 172.202 164.867  0.00  0.00    -0.390 OA
HETATM   22  H   UNK     0     171.027 172.890 164.357  0.00  0.00     0.210 HD
ENDBRANCH   3  21
BRANCH   4  23
HETATM   23  O   UNK     0     173.862 171.206 168.206  0.00  0.00    -0.388 OA
HETATM   24  H   UNK     0     174.560 171.877 168.117  0.00  0.00     0.210 HD
ENDBRANCH   4  23
BRANCH   2  25
HETATM   25  O   UNK     0     171.635 170.146 166.594  0.00  0.00    -0.390 OA
HETATM   26  H   UNK     0     171.237 169.981 165.722  0.00  0.00     0.210 HD
ENDBRANCH   2  25
TORSDOF 10
ENDMDL
MODEL 6
REMARK VINA RESULT:      -6.6      2.474      3.506
REMARK  10 active torsions:
REMARK  status: ('A' for Active; 'I' for Inactive)
REMARK    1  A    between atoms: O_2  and  C_12 
REMARK    2  A    between atoms: O_2  and  C_14 
REMARK    3  A    between atoms: O_3  and  C_8 
REMARK    4  A    between atoms: O_4  and  C_9 
REMARK    5  A    between atoms: O_5  and  C_10 
REMARK    6  A    between atoms: O_6  and  C_13 
REMARK    7  A    between atoms: O_7  and  C_21 
REMARK    8  A    between atoms: C_11  and  C_13 
REMARK    9  A    between atoms: C_14  and  C_15 
REMARK   10  A    between atoms: C_15  and  C_16 
ROOT
HETATM    1  O   UNK     0     167.066 173.338 167.665  0.00  0.00    -0.348 OA
HETATM    2  C   UNK     0     166.227 174.051 170.317  0.00  0.00     0.183 C 
HETATM    3  C   UNK     0     165.473 174.507 169.068  0.00  0.00     0.180 C 
HETATM    4  C   UNK     0     167.677 173.692 169.988  0.00  0.00     0.204 C 
HETATM    5  C   UNK     0     165.672 173.514 167.921  0.00  0.00     0.179 C 
HETATM    6  C   UNK     0     167.759 172.768 168.773  0.00  0.00     0.291 C 
ENDROOT
BRANCH   5   7
HETATM    7  C   UNK     0     165.026 174.005 166.630  0.00  0.00     0.198 C 
BRANCH   7   8
HETATM    8  O   UNK     0     164.484 172.892 165.944  0.00  0.00    -0.398 OA
HETATM    9  H   UNK     0     163.596 172.728 166.303  0.00  0.00     0.209 HD
ENDBRANCH   7   8
ENDBRANCH   5   7
BRANCH   6  10
HETATM   10  O   UNK     0     169.137 172.597 168.445  0.00  0.00    -0.358 OA
BRANCH  10  11
HETATM   11  C   UNK     0     169.727 173.823 168.039  0.00  0.00     0.175 C 
BRANCH  11  12
HETATM   12  C   UNK     0     171.217 173.808 168.359  0.00  0.00     0.065 C 
BRANCH  12  13
HETATM   13  C   UNK     0     172.031 173.153 167.269  0.00  0.00    -0.056 A 
HETATM   14  C   UNK     0     172.908 172.133 167.596  0.00  0.00     0.010 A 
HETATM   15  C   UNK     0     173.660 171.527 166.589  0.00  0.00     0.037 A 
HETATM   16  C   UNK     0     173.524 171.952 165.267  0.00  0.00     0.065 A 
HETATM   17  C   UNK     0     172.637 172.980 164.953  0.00  0.00     0.037 A 
HETATM   18  C   UNK     0     171.885 173.585 165.960  0.00  0.00     0.010 A 
BRANCH  16  19
HETATM   19  O   UNK     0     174.258 171.361 164.285  0.00  0.00    -0.361 OA
HETATM   20  H   UNK     0     173.946 171.683 163.421  0.00  0.00     0.217 HD
ENDBRANCH  16  19
ENDBRANCH  12  13
ENDBRANCH  11  12
ENDBRANCH  10  11
ENDBRANCH   6  10
BRANCH   3  21
HETATM   21  O   UNK     0     164.083 174.608 169.368  0.00  0.00    -0.390 OA
HETATM   22  H   UNK     0     163.590 174.145 168.668  0.00  0.00     0.210 HD
ENDBRANCH   3  21
BRANCH   4  23
HETATM   23  O   UNK     0     168.263 173.019 171.102  0.00  0.00    -0.388 OA
HETATM   24  H   UNK     0     167.975 172.090 171.079  0.00  0.00     0.210 HD
ENDBRANCH   4  23
BRANCH   2  25
HETATM   25  O   UNK     0     166.205 175.122 171.262  0.00  0.00    -0.390 OA
HETATM   26  H   UNK     0     165.388 175.627 171.111  0.00  0.00     0.210 HD
ENDBRANCH   2  25
TORSDOF 10
ENDMDL
MODEL 7
REMARK VINA RESULT:      -6.6      4.324      6.152
REMARK  10 active torsions:
REMARK  status: ('A' for Active; 'I' for Inactive)
REMARK    1  A    between atoms: O_2  and  C_12 
REMARK    2  A    between atoms: O_2  and  C_14 
REMARK    3  A    between atoms: O_3  and  C_8 
REMARK    4  A    between atoms: O_4  and  C_9 
REMARK    5  A    between atoms: O_5  and  C_10 
REMARK    6  A    between atoms: O_6  and  C_13 
REMARK    7  A    between atoms: O_7  and  C_21 
REMARK    8  A    between atoms: C_11  and  C_13 
REMARK    9  A    between atoms: C_14  and  C_15 
REMARK   10  A    between atoms: C_15  and  C_16 
ROOT
HETATM    1  O   UNK     0     164.712 171.710 168.665  0.00  0.00    -0.348 OA
HETATM    2  C   UNK     0     162.451 172.807 167.274  0.00  0.00     0.183 C 
HETATM    3  C   UNK     0     162.403 171.449 167.976  0.00  0.00     0.180 C 
HETATM    4  C   UNK     0     163.889 173.205 166.938  0.00  0.00     0.204 C 
HETATM    5  C   UNK     0     163.399 171.402 169.136  0.00  0.00     0.179 C 
HETATM    6  C   UNK     0     164.810 173.035 168.145  0.00  0.00     0.291 C 
ENDROOT
BRANCH   5   7
HETATM    7  C   UNK     0     163.455 170.020 169.777  0.00  0.00     0.198 C 
BRANCH   7   8
HETATM    8  O   UNK     0     162.353 169.884 170.655  0.00  0.00    -0.398 OA
HETATM    9  H   UNK     0     162.448 169.035 171.118  0.00  0.00     0.209 HD
ENDBRANCH   7   8
ENDBRANCH   5   7
BRANCH   6  10
HETATM   10  O   UNK     0     166.147 173.286 167.715  0.00  0.00    -0.358 OA
BRANCH  10  11
HETATM   11  C   UNK     0     167.089 172.902 168.706  0.00  0.00     0.175 C 
BRANCH  11  12
HETATM   12  C   UNK     0     168.149 173.987 168.858  0.00  0.00     0.065 C 
BRANCH  12  13
HETATM   13  C   UNK     0     169.295 173.808 167.891  0.00  0.00    -0.056 A 
HETATM   14  C   UNK     0     169.661 174.861 167.070  0.00  0.00     0.010 A 
HETATM   15  C   UNK     0     170.720 174.696 166.177  0.00  0.00     0.037 A 
HETATM   16  C   UNK     0     171.398 173.478 166.118  0.00  0.00     0.065 A 
HETATM   17  C   UNK     0     171.018 172.427 166.951  0.00  0.00     0.037 A 
HETATM   18  C   UNK     0     169.959 172.593 167.843  0.00  0.00     0.010 A 
BRANCH  16  19
HETATM   19  O   UNK     0     172.431 173.317 165.246  0.00  0.00    -0.361 OA
HETATM   20  H   UNK     0     173.007 172.603 165.569  0.00  0.00     0.217 HD
ENDBRANCH  16  19
ENDBRANCH  12  13
ENDBRANCH  11  12
ENDBRANCH  10  11
ENDBRANCH   6  10
BRANCH   3  21
HETATM   21  O   UNK     0     161.088 171.223 168.475  0.00  0.00    -0.390 OA
HETATM   22  H   UNK     0     161.131 170.497 169.121  0.00  0.00     0.210 HD
ENDBRANCH   3  21
BRANCH   4  23
HETATM   23  O   UNK     0     163.920 174.577 166.542  0.00  0.00    -0.388 OA
HETATM   24  H   UNK     0     164.660 174.695 165.921  0.00  0.00     0.210 HD
ENDBRANCH   4  23
BRANCH   2  25
HETATM   25  O   UNK     0     161.690 172.709 166.070  0.00  0.00    -0.390 OA
HETATM   26  H   UNK     0     161.445 171.775 165.955  0.00  0.00     0.210 HD
ENDBRANCH   2  25
TORSDOF 10
ENDMDL
MODEL 8
REMARK VINA RESULT:      -6.6      2.029      2.614
REMARK  10 active torsions:
REMARK  status: ('A' for Active; 'I' for Inactive)
REMARK    1  A    between atoms: O_2  and  C_12 
REMARK    2  A    between atoms: O_2  and  C_14 
REMARK    3  A    between atoms: O_3  and  C_8 
REMARK    4  A    between atoms: O_4  and  C_9 
REMARK    5  A    between atoms: O_5  and  C_10 
REMARK    6  A    between atoms: O_6  and  C_13 
REMARK    7  A    between atoms: O_7  and  C_21 
REMARK    8  A    between atoms: C_11  and  C_13 
REMARK    9  A    between atoms: C_14  and  C_15 
REMARK   10  A    between atoms: C_15  and  C_16 
ROOT
HETATM    1  O   UNK     0     168.830 174.568 168.714  0.00  0.00    -0.348 OA
HETATM    2  C   UNK     0     167.880 173.629 171.256  0.00  0.00     0.183 C 
HETATM    3  C   UNK     0     166.944 173.892 170.076  0.00  0.00     0.180 C 
HETATM    4  C   UNK     0     169.186 174.411 171.111  0.00  0.00     0.204 C 
HETATM    5  C   UNK     0     167.682 173.719 168.748  0.00  0.00     0.179 C 
HETATM    6  C   UNK     0     169.788 174.235 169.717  0.00  0.00     0.291 C 
ENDROOT
BRANCH   5   7
HETATM    7  C   UNK     0     166.802 174.090 167.559  0.00  0.00     0.198 C 
BRANCH   7   8
HETATM    8  O   UNK     0     165.917 173.016 167.300  0.00  0.00    -0.398 OA
HETATM    9  H   UNK     0     165.578 173.126 166.396  0.00  0.00     0.209 HD
ENDBRANCH   7   8
ENDBRANCH   5   7
BRANCH   6  10
HETATM   10  O   UNK     0     170.916 175.102 169.613  0.00  0.00    -0.358 OA
BRANCH  10  11
HETATM   11  C   UNK     0     172.125 174.365 169.505  0.00  0.00     0.175 C 
BRANCH  11  12
HETATM   12  C   UNK     0     171.822 172.939 169.061  0.00  0.00     0.065 C 
BRANCH  12  13
HETATM   13  C   UNK     0     172.460 172.603 167.735  0.00  0.00    -0.056 A 
HETATM   14  C   UNK     0     171.892 173.083 166.567  0.00  0.00     0.010 A 
HETATM   15  C   UNK     0     172.481 172.773 165.341  0.00  0.00     0.037 A 
HETATM   16  C   UNK     0     173.632 171.985 165.301  0.00  0.00     0.065 A 
HETATM   17  C   UNK     0     174.193 171.509 166.485  0.00  0.00     0.037 A 
HETATM   18  C   UNK     0     173.603 171.820 167.711  0.00  0.00     0.010 A 
BRANCH  16  19
HETATM   19  O   UNK     0     174.207 171.682 164.105  0.00  0.00    -0.361 OA
HETATM   20  H   UNK     0     175.123 171.395 164.260  0.00  0.00     0.217 HD
ENDBRANCH  16  19
ENDBRANCH  12  13
ENDBRANCH  11  12
ENDBRANCH  10  11
ENDBRANCH   6  10
BRANCH   3  21
HETATM   21  O   UNK     0     165.851 172.979 170.130  0.00  0.00    -0.390 OA
HETATM   22  H   UNK     0     165.487 172.892 169.233  0.00  0.00     0.210 HD
ENDBRANCH   3  21
BRANCH   4  23
HETATM   23  O   UNK     0     170.132 173.937 172.069  0.00  0.00    -0.388 OA
HETATM   24  H   UNK     0     170.084 174.513 172.852  0.00  0.00     0.210 HD
ENDBRANCH   4  23
BRANCH   2  25
HETATM   25  O   UNK     0     167.212 174.037 172.450  0.00  0.00    -0.390 OA
HETATM   26  H   UNK     0     167.454 173.407 173.150  0.00  0.00     0.210 HD
ENDBRANCH   2  25
TORSDOF 10
ENDMDL
MODEL 9
REMARK VINA RESULT:      -6.6      3.552      5.243
REMARK  10 active torsions:
REMARK  status: ('A' for Active; 'I' for Inactive)
REMARK    1  A    between atoms: O_2  and  C_12 
REMARK    2  A    between atoms: O_2  and  C_14 
REMARK    3  A    between atoms: O_3  and  C_8 
REMARK    4  A    between atoms: O_4  and  C_9 
REMARK    5  A    between atoms: O_5  and  C_10 
REMARK    6  A    between atoms: O_6  and  C_13 
REMARK    7  A    between atoms: O_7  and  C_21 
REMARK    8  A    between atoms: C_11  and  C_13 
REMARK    9  A    between atoms: C_14  and  C_15 
REMARK   10  A    between atoms: C_15  and  C_16 
ROOT
HETATM    1  O   UNK     0     164.890 173.288 167.539  0.00  0.00    -0.348 OA
HETATM    2  C   UNK     0     163.432 174.228 169.828  0.00  0.00     0.183 C 
HETATM    3  C   UNK     0     162.747 173.552 168.640  0.00  0.00     0.180 C 
HETATM    4  C   UNK     0     164.787 174.811 169.427  0.00  0.00     0.204 C 
HETATM    5  C   UNK     0     163.706 172.592 167.934  0.00  0.00     0.179 C 
HETATM    6  C   UNK     0     165.624 173.794 168.652  0.00  0.00     0.291 C 
ENDROOT
BRANCH   5   7
HETATM    7  C   UNK     0     163.084 171.995 166.676  0.00  0.00     0.198 C 
BRANCH   7   8
HETATM    8  O   UNK     0     161.986 172.800 166.290  0.00  0.00    -0.398 OA
HETATM    9  H   UNK     0     162.143 173.093 165.376  0.00  0.00     0.209 HD
ENDBRANCH   7   8
ENDBRANCH   5   7
BRANCH   6  10
HETATM   10  O   UNK     0     166.802 174.454 168.192  0.00  0.00    -0.358 OA
BRANCH  10  11
HETATM   11  C   UNK     0     167.934 173.600 168.265  0.00  0.00     0.175 C 
BRANCH  11  12
HETATM   12  C   UNK     0     169.191 174.376 167.887  0.00  0.00     0.065 C 
BRANCH  12  13
HETATM   13  C   UNK     0     170.436 173.527 167.971  0.00  0.00    -0.056 A 
HETATM   14  C   UNK     0     170.683 172.584 166.987  0.00  0.00     0.010 A 
HETATM   15  C   UNK     0     171.834 171.800 167.064  0.00  0.00     0.037 A 
HETATM   16  C   UNK     0     172.723 171.970 168.126  0.00  0.00     0.065 A 
HETATM   17  C   UNK     0     172.462 172.924 169.109  0.00  0.00     0.037 A 
HETATM   18  C   UNK     0     171.311 173.707 169.031  0.00  0.00     0.010 A 
BRANCH  16  19
HETATM   19  O   UNK     0     173.846 171.204 168.201  0.00  0.00    -0.361 OA
HETATM   20  H   UNK     0     173.897 170.642 167.409  0.00  0.00     0.217 HD
ENDBRANCH  16  19
ENDBRANCH  12  13
ENDBRANCH  11  12
ENDBRANCH  10  11
ENDBRANCH   6  10
BRANCH   3  21
HETATM   21  O   UNK     0     161.610 172.827 169.101  0.00  0.00    -0.390 OA
HETATM   22  H   UNK     0     161.497 172.049 168.530  0.00  0.00     0.210 HD
ENDBRANCH   3  21
BRANCH   4  23
HETATM   23  O   UNK     0     165.510 175.183 170.601  0.00  0.00    -0.388 OA
HETATM   24  H   UNK     0     166.330 174.661 170.628  0.00  0.00     0.210 HD
ENDBRANCH   4  23
BRANCH   2  25
HETATM   25  O   UNK     0     162.581 175.276 170.292  0.00  0.00    -0.390 OA
HETATM   26  H   UNK     0     162.061 174.923 171.034  0.00  0.00     0.210 HD
ENDBRANCH   2  25
TORSDOF 10
ENDMDL
MODEL 10
REMARK VINA RESULT:      -6.5      3.149      7.185
REMARK  10 active torsions:
REMARK  status: ('A' for Active; 'I' for Inactive)
REMARK    1  A    between atoms: O_2  and  C_12 
REMARK    2  A    between atoms: O_2  and  C_14 
REMARK    3  A    between atoms: O_3  and  C_8 
REMARK    4  A    between atoms: O_4  and  C_9 
REMARK    5  A    between atoms: O_5  and  C_10 
REMARK    6  A    between atoms: O_6  and  C_13 
REMARK    7  A    between atoms: O_7  and  C_21 
REMARK    8  A    between atoms: C_11  and  C_13 
REMARK    9  A    between atoms: C_14  and  C_15 
REMARK   10  A    between atoms: C_15  and  C_16 
ROOT
HETATM    1  O   UNK     0     171.140 173.795 168.227  0.00  0.00    -0.348 OA
HETATM    2  C   UNK     0     172.375 171.727 166.663  0.00  0.00     0.183 C 
HETATM    3  C   UNK     0     173.046 172.335 167.896  0.00  0.00     0.180 C 
HETATM    4  C   UNK     0     171.325 172.674 166.081  0.00  0.00     0.204 C 
HETATM    5  C   UNK     0     171.999 172.860 168.880  0.00  0.00     0.179 C 
HETATM    6  C   UNK     0     170.390 173.204 167.168  0.00  0.00     0.291 C 
ENDROOT
BRANCH   5   7
HETATM    7  C   UNK     0     172.643 173.576 170.062  0.00  0.00     0.198 C 
BRANCH   7   8
HETATM    8  O   UNK     0     173.848 174.176 169.624  0.00  0.00    -0.398 OA
HETATM    9  H   UNK     0     173.845 174.167 168.652  0.00  0.00     0.209 HD
ENDBRANCH   7   8
ENDBRANCH   5   7
BRANCH   6  10
HETATM   10  O   UNK     0     169.538 174.182 166.575  0.00  0.00    -0.358 OA
BRANCH  10  11
HETATM   11  C   UNK     0     168.529 174.605 167.480  0.00  0.00     0.175 C 
BRANCH  11  12
HETATM   12  C   UNK     0     167.827 173.390 168.074  0.00  0.00     0.065 C 
BRANCH  12  13
HETATM   13  C   UNK     0     166.327 173.551 168.102  0.00  0.00    -0.056 A 
HETATM   14  C   UNK     0     165.659 173.905 166.942  0.00  0.00     0.010 A 
HETATM   15  C   UNK     0     164.273 174.054 166.968  0.00  0.00     0.037 A 
HETATM   16  C   UNK     0     163.572 173.847 168.156  0.00  0.00     0.065 A 
HETATM   17  C   UNK     0     164.257 173.491 169.317  0.00  0.00     0.037 A 
HETATM   18  C   UNK     0     165.644 173.342 169.290  0.00  0.00     0.010 A 
BRANCH  16  19
HETATM   19  O   UNK     0     162.218 173.992 168.181  0.00  0.00    -0.361 OA
HETATM   20  H   UNK     0     161.973 174.751 167.624  0.00  0.00     0.217 HD
ENDBRANCH  16  19
ENDBRANCH  12  13
ENDBRANCH  11  12
ENDBRANCH  10  11
ENDBRANCH   6  10
BRANCH   3  21
HETATM   21  O   UNK     0     173.840 171.342 168.538  0.00  0.00    -0.390 OA
HETATM   22  H   UNK     0     174.105 170.688 167.868  0.00  0.00     0.210 HD
ENDBRANCH   3  21
BRANCH   4  23
HETATM   23  O   UNK     0     170.539 171.973 165.117  0.00  0.00    -0.388 OA
HETATM   24  H   UNK     0     171.036 171.186 164.837  0.00  0.00     0.210 HD
ENDBRANCH   4  23
BRANCH   2  25
HETATM   25  O   UNK     0     173.387 171.480 165.687  0.00  0.00    -0.390 OA
HETATM   26  H   UNK     0     173.330 172.189 165.023  0.00  0.00     0.210 HD
ENDBRANCH   2  25
TORSDOF 10
ENDMDL
