MODEL 1
REMARK VINA RESULT:      -4.6      0.000      0.000
REMARK  16 active torsions:
REMARK  status: ('A' for Active; 'I' for Inactive)
REMARK    1  A    between atoms: O_2  and  C_22 
REMARK    2  A    between atoms: O_2  and  C_26 
REMARK    3  A    between atoms: O_4  and  C_18 
REMARK    4  A    between atoms: O_5  and  C_19 
REMARK    5  A    between atoms: O_6  and  C_25 
REMARK    6  A    between atoms: O_6  and  C_29 
REMARK    7  A    between atoms: O_7  and  C_20 
REMARK    8  A    between atoms: O_8  and  C_21 
REMARK    9  A    between atoms: O_9  and  C_23 
REMARK   10  A    between atoms: O_10  and  C_24 
REMARK   11  A    between atoms: O_13  and  C_35 
REMARK   12  A    between atoms: O_14  and  C_40 
REMARK   13  A    between atoms: O_15  and  C_41 
REMARK   14  A    between atoms: O_16  and  C_43 
REMARK   15  A    between atoms: C_17  and  C_26 
REMARK   16  A    between atoms: C_30  and  C_33 
ROOT
HETATM    1  O   UNK     0     -13.206   4.396   4.206  0.00  0.00    -0.348 OA
HETATM    2  C   UNK     0     -12.195   4.823   3.292  0.00  0.00     0.180 C 
HETATM    3  C   UNK     0     -10.823   4.339   3.769  0.00  0.00     0.180 C 
HETATM    4  C   UNK     0     -10.542   4.821   5.192  0.00  0.00     0.183 C 
HETATM    5  C   UNK     0     -11.717   4.517   6.122  0.00  0.00     0.205 C 
HETATM    6  C   UNK     0     -13.043   4.962   5.505  0.00  0.00     0.298 C 
ENDROOT
BRANCH   2   7
HETATM    7  C   UNK     0     -12.548   4.257   1.920  0.00  0.00     0.205 C 
BRANCH   7   8
HETATM    8  O   UNK     0     -11.787   4.933   0.931  0.00  0.00    -0.356 OA
BRANCH   8   9
HETATM    9  C   UNK     0     -12.342   6.209   0.629  0.00  0.00     0.291 C 
HETATM   10  O   UNK     0     -13.427   6.126  -0.301  0.00  0.00    -0.351 OA
HETATM   11  C   UNK     0     -13.053   5.646  -1.597  0.00  0.00     0.152 C 
HETATM   12  C   UNK     0     -11.992   6.553  -2.236  0.00  0.00     0.178 C 
HETATM   13  C   UNK     0     -14.328   5.581  -2.434  0.00  0.00     0.042 C 
HETATM   14  C   UNK     0     -10.796   6.706  -1.296  0.00  0.00     0.183 C 
HETATM   15  C   UNK     0     -11.249   7.136   0.101  0.00  0.00     0.204 C 
BRANCH  12  16
HETATM   16  O   UNK     0     -11.526   5.984  -3.457  0.00  0.00    -0.390 OA
HETATM   17  H   UNK     0     -12.285   5.571  -3.903  0.00  0.00     0.210 HD
ENDBRANCH  12  16
BRANCH  14  18
HETATM   18  O   UNK     0      -9.896   7.673  -1.834  0.00  0.00    -0.390 OA
HETATM   19  H   UNK     0      -9.178   7.192  -2.282  0.00  0.00     0.210 HD
ENDBRANCH  14  18
BRANCH  15  20
HETATM   20  O   UNK     0     -11.786   8.459   0.053  0.00  0.00    -0.388 OA
HETATM   21  H   UNK     0     -12.743   8.408   0.219  0.00  0.00     0.210 HD
ENDBRANCH  15  20
ENDBRANCH   8   9
ENDBRANCH   7   8
ENDBRANCH   2   7
BRANCH   6  22
HETATM   22  O   UNK     0     -14.097   4.519   6.360  0.00  0.00    -0.311 OA
BRANCH  22  23
HETATM   23  C   UNK     0     -14.805   5.578   6.883  0.00  0.00     0.157 A 
HETATM   24  C   UNK     0     -15.609   6.362   6.143  0.00  0.00     0.124 A 
HETATM   25  O   UNK     0     -16.310   7.454   6.631  0.00  0.00    -0.306 OA
HETATM   26  C   UNK     0     -16.202   7.758   7.963  0.00  0.00     0.096 A 
HETATM   27  C   UNK     0     -15.410   7.023   8.843  0.00  0.00     0.084 A 
HETATM   28  C   UNK     0     -16.927   8.856   8.427  0.00  0.00     0.075 A 
HETATM   29  C   UNK     0     -14.654   5.871   8.329  0.00  0.00     0.223 A 
HETATM   30  C   UNK     0     -15.337   7.380  10.193  0.00  0.00     0.085 A 
HETATM   31  O   UNK     0     -13.938   5.193   9.053  0.00  0.00    -0.284 OA
HETATM   32  C   UNK     0     -16.064   8.479  10.654  0.00  0.00     0.074 A 
HETATM   33  C   UNK     0     -16.857   9.215   9.773  0.00  0.00     0.071 A 
BRANCH  24  34
HETATM   34  C   UNK     0     -15.813   6.148   4.699  0.00  0.00     0.004 A 
HETATM   35  C   UNK     0     -15.354   7.093   3.781  0.00  0.00     0.053 A 
HETATM   36  C   UNK     0     -15.545   6.891   2.415  0.00  0.00     0.099 A 
HETATM   37  C   UNK     0     -16.197   5.743   1.965  0.00  0.00     0.098 A 
HETATM   38  C   UNK     0     -16.657   4.798   2.881  0.00  0.00     0.040 A 
HETATM   39  C   UNK     0     -16.464   5.000   4.248  0.00  0.00     0.017 A 
BRANCH  36  40
HETATM   40  O   UNK     0     -15.093   7.822   1.529  0.00  0.00    -0.358 OA
HETATM   41  H   UNK     0     -15.542   7.707   0.676  0.00  0.00     0.217 HD
ENDBRANCH  36  40
BRANCH  37  42
HETATM   42  O   UNK     0     -16.389   5.534   0.633  0.00  0.00    -0.358 OA
HETATM   43  H   UNK     0     -15.538   5.574   0.169  0.00  0.00     0.217 HD
ENDBRANCH  37  42
ENDBRANCH  24  34
BRANCH  30  44
HETATM   44  O   UNK     0     -14.579   6.697  11.093  0.00  0.00    -0.360 OA
HETATM   45  H   UNK     0     -13.935   6.141  10.621  0.00  0.00     0.217 HD
ENDBRANCH  30  44
BRANCH  33  46
HETATM   46  O   UNK     0     -17.563  10.287  10.227  0.00  0.00    -0.361 OA
HETATM   47  H   UNK     0     -17.211  10.552  11.094  0.00  0.00     0.217 HD
ENDBRANCH  33  46
ENDBRANCH  22  23
ENDBRANCH   6  22
BRANCH   3  48
HETATM   48  O   UNK     0      -9.816   4.841   2.894  0.00  0.00    -0.390 OA
HETATM   49  H   UNK     0      -9.782   5.807   2.998  0.00  0.00     0.210 HD
ENDBRANCH   3  48
BRANCH   5  50
HETATM   50  O   UNK     0     -11.540   5.215   7.354  0.00  0.00    -0.388 OA
HETATM   51  H   UNK     0     -11.850   6.128   7.231  0.00  0.00     0.210 HD
ENDBRANCH   5  50
BRANCH   4  52
HETATM   52  O   UNK     0      -9.375   4.146   5.665  0.00  0.00    -0.390 OA
HETATM   53  H   UNK     0      -9.321   3.296   5.196  0.00  0.00     0.210 HD
ENDBRANCH   4  52
TORSDOF 16
ENDMDL
MODEL 2
REMARK VINA RESULT:      -4.6      1.960      5.138
REMARK  16 active torsions:
REMARK  status: ('A' for Active; 'I' for Inactive)
REMARK    1  A    between atoms: O_2  and  C_22 
REMARK    2  A    between atoms: O_2  and  C_26 
REMARK    3  A    between atoms: O_4  and  C_18 
REMARK    4  A    between atoms: O_5  and  C_19 
REMARK    5  A    between atoms: O_6  and  C_25 
REMARK    6  A    between atoms: O_6  and  C_29 
REMARK    7  A    between atoms: O_7  and  C_20 
REMARK    8  A    between atoms: O_8  and  C_21 
REMARK    9  A    between atoms: O_9  and  C_23 
REMARK   10  A    between atoms: O_10  and  C_24 
REMARK   11  A    between atoms: O_13  and  C_35 
REMARK   12  A    between atoms: O_14  and  C_40 
REMARK   13  A    between atoms: O_15  and  C_41 
REMARK   14  A    between atoms: O_16  and  C_43 
REMARK   15  A    between atoms: C_17  and  C_26 
REMARK   16  A    between atoms: C_30  and  C_33 
ROOT
HETATM    1  O   UNK     0     -12.193   3.963   4.312  0.00  0.00    -0.348 OA
HETATM    2  C   UNK     0     -10.764   3.971   4.317  0.00  0.00     0.180 C 
HETATM    3  C   UNK     0     -10.245   3.500   5.678  0.00  0.00     0.180 C 
HETATM    4  C   UNK     0     -10.821   4.357   6.805  0.00  0.00     0.183 C 
HETATM    5  C   UNK     0     -12.339   4.489   6.680  0.00  0.00     0.205 C 
HETATM    6  C   UNK     0     -12.747   4.875   5.258  0.00  0.00     0.298 C 
ENDROOT
BRANCH   2   7
HETATM    7  C   UNK     0     -10.297   3.059   3.187  0.00  0.00     0.205 C 
BRANCH   7   8
HETATM    8  O   UNK     0      -9.651   3.844   2.196  0.00  0.00    -0.356 OA
BRANCH   8   9
HETATM    9  C   UNK     0     -10.440   3.945   1.015  0.00  0.00     0.291 C 
HETATM   10  O   UNK     0      -9.661   3.793  -0.176  0.00  0.00    -0.351 OA
HETATM   11  C   UNK     0      -8.688   4.823  -0.375  0.00  0.00     0.152 C 
HETATM   12  C   UNK     0      -9.355   6.203  -0.457  0.00  0.00     0.178 C 
HETATM   13  C   UNK     0      -7.930   4.478  -1.655  0.00  0.00     0.042 C 
HETATM   14  C   UNK     0     -10.221   6.442   0.780  0.00  0.00     0.183 C 
HETATM   15  C   UNK     0     -11.187   5.278   1.006  0.00  0.00     0.204 C 
BRANCH  12  16
HETATM   16  O   UNK     0      -8.364   7.228  -0.510  0.00  0.00    -0.390 OA
HETATM   17  H   UNK     0      -7.774   7.112   0.254  0.00  0.00     0.210 HD
ENDBRANCH  12  16
BRANCH  14  18
HETATM   18  O   UNK     0     -10.953   7.655   0.614  0.00  0.00    -0.390 OA
HETATM   19  H   UNK     0     -11.850   7.421   0.319  0.00  0.00     0.210 HD
ENDBRANCH  14  18
BRANCH  15  20
HETATM   20  O   UNK     0     -12.148   5.230  -0.050  0.00  0.00    -0.388 OA
HETATM   21  H   UNK     0     -12.497   4.324  -0.107  0.00  0.00     0.210 HD
ENDBRANCH  15  20
ENDBRANCH   8   9
ENDBRANCH   7   8
ENDBRANCH   2   7
BRANCH   6  22
HETATM   22  O   UNK     0     -14.172   4.839   5.185  0.00  0.00    -0.311 OA
BRANCH  22  23
HETATM   23  C   UNK     0     -14.685   6.014   4.681  0.00  0.00     0.157 A 
HETATM   24  C   UNK     0     -15.413   6.873   5.416  0.00  0.00     0.124 A 
HETATM   25  O   UNK     0     -15.970   8.046   4.932  0.00  0.00    -0.306 OA
HETATM   26  C   UNK     0     -15.756   8.379   3.620  0.00  0.00     0.096 A 
HETATM   27  C   UNK     0     -15.013   7.583   2.751  0.00  0.00     0.084 A 
HETATM   28  C   UNK     0     -16.322   9.571   3.164  0.00  0.00     0.075 A 
HETATM   29  C   UNK     0     -14.431   6.330   3.255  0.00  0.00     0.223 A 
HETATM   30  C   UNK     0     -14.829   7.972   1.421  0.00  0.00     0.085 A 
HETATM   31  O   UNK     0     -13.774   5.589   2.536  0.00  0.00    -0.284 OA
HETATM   32  C   UNK     0     -15.395   9.165   0.968  0.00  0.00     0.074 A 
HETATM   33  C   UNK     0     -16.139   9.963   1.838  0.00  0.00     0.071 A 
BRANCH  24  34
HETATM   34  C   UNK     0     -15.720   6.636   6.838  0.00  0.00     0.004 A 
HETATM   35  C   UNK     0     -15.130   7.431   7.821  0.00  0.00     0.053 A 
HETATM   36  C   UNK     0     -15.421   7.208   9.167  0.00  0.00     0.099 A 
HETATM   37  C   UNK     0     -16.301   6.189   9.530  0.00  0.00     0.098 A 
HETATM   38  C   UNK     0     -16.891   5.393   8.548  0.00  0.00     0.040 A 
HETATM   39  C   UNK     0     -16.600   5.617   7.202  0.00  0.00     0.017 A 
BRANCH  36  40
HETATM   40  O   UNK     0     -14.838   7.990  10.118  0.00  0.00    -0.358 OA
HETATM   41  H   UNK     0     -13.882   8.042   9.957  0.00  0.00     0.217 HD
ENDBRANCH  36  40
BRANCH  37  42
HETATM   42  O   UNK     0     -16.594   5.962  10.841  0.00  0.00    -0.358 OA
HETATM   43  H   UNK     0     -16.283   5.080  11.098  0.00  0.00     0.217 HD
ENDBRANCH  37  42
ENDBRANCH  24  34
BRANCH  30  44
HETATM   44  O   UNK     0     -14.113   7.232   0.531  0.00  0.00    -0.360 OA
HETATM   45  H   UNK     0     -13.273   6.958   0.938  0.00  0.00     0.217 HD
ENDBRANCH  30  44
BRANCH  33  46
HETATM   46  O   UNK     0     -16.690  11.125   1.392  0.00  0.00    -0.361 OA
HETATM   47  H   UNK     0     -15.978  11.719   1.099  0.00  0.00     0.217 HD
ENDBRANCH  33  46
ENDBRANCH  22  23
ENDBRANCH   6  22
BRANCH   3  48
HETATM   48  O   UNK     0      -8.823   3.592   5.696  0.00  0.00    -0.390 OA
HETATM   49  H   UNK     0      -8.473   2.981   5.026  0.00  0.00     0.210 HD
ENDBRANCH   3  48
BRANCH   5  50
HETATM   50  O   UNK     0     -12.801   5.504   7.570  0.00  0.00    -0.388 OA
HETATM   51  H   UNK     0     -13.352   5.081   8.250  0.00  0.00     0.210 HD
ENDBRANCH   5  50
BRANCH   4  52
HETATM   52  O   UNK     0     -10.499   3.727   8.047  0.00  0.00    -0.390 OA
HETATM   53  H   UNK     0     -11.236   3.897   8.658  0.00  0.00     0.210 HD
ENDBRANCH   4  52
TORSDOF 16
ENDMDL
MODEL 3
REMARK VINA RESULT:      -4.5      6.354     11.374
REMARK  16 active torsions:
REMARK  status: ('A' for Active; 'I' for Inactive)
REMARK    1  A    between atoms: O_2  and  C_22 
REMARK    2  A    between atoms: O_2  and  C_26 
REMARK    3  A    between atoms: O_4  and  C_18 
REMARK    4  A    between atoms: O_5  and  C_19 
REMARK    5  A    between atoms: O_6  and  C_25 
REMARK    6  A    between atoms: O_6  and  C_29 
REMARK    7  A    between atoms: O_7  and  C_20 
REMARK    8  A    between atoms: O_8  and  C_21 
REMARK    9  A    between atoms: O_9  and  C_23 
REMARK   10  A    between atoms: O_10  and  C_24 
REMARK   11  A    between atoms: O_13  and  C_35 
REMARK   12  A    between atoms: O_14  and  C_40 
REMARK   13  A    between atoms: O_15  and  C_41 
REMARK   14  A    between atoms: O_16  and  C_43 
REMARK   15  A    between atoms: C_17  and  C_26 
REMARK   16  A    between atoms: C_30  and  C_33 
ROOT
HETATM    1  O   UNK     0      -9.981   3.763  13.020  0.00  0.00    -0.348 OA
HETATM    2  C   UNK     0      -9.256   4.799  13.686  0.00  0.00     0.180 C 
HETATM    3  C   UNK     0     -10.137   5.446  14.758  0.00  0.00     0.180 C 
HETATM    4  C   UNK     0     -11.439   5.965  14.148  0.00  0.00     0.183 C 
HETATM    5  C   UNK     0     -12.112   4.897  13.286  0.00  0.00     0.205 C 
HETATM    6  C   UNK     0     -11.118   4.258  12.317  0.00  0.00     0.298 C 
ENDROOT
BRANCH   2   7
HETATM    7  C   UNK     0      -8.004   4.168  14.289  0.00  0.00     0.205 C 
BRANCH   7   8
HETATM    8  O   UNK     0      -6.930   5.091  14.194  0.00  0.00    -0.356 OA
BRANCH   8   9
HETATM    9  C   UNK     0      -5.802   4.512  13.546  0.00  0.00     0.291 C 
HETATM   10  O   UNK     0      -4.681   5.401  13.505  0.00  0.00    -0.351 OA
HETATM   11  C   UNK     0      -4.900   6.584  12.729  0.00  0.00     0.152 C 
HETATM   12  C   UNK     0      -5.240   6.234  11.274  0.00  0.00     0.178 C 
HETATM   13  C   UNK     0      -3.630   7.426  12.832  0.00  0.00     0.042 C 
HETATM   14  C   UNK     0      -6.427   5.272  11.228  0.00  0.00     0.183 C 
HETATM   15  C   UNK     0      -6.189   4.065  12.138  0.00  0.00     0.204 C 
BRANCH  12  16
HETATM   16  O   UNK     0      -5.596   7.412  10.553  0.00  0.00    -0.390 OA
HETATM   17  H   UNK     0      -6.555   7.388  10.397  0.00  0.00     0.210 HD
ENDBRANCH  12  16
BRANCH  14  18
HETATM   18  O   UNK     0      -6.628   4.836   9.886  0.00  0.00    -0.390 OA
HETATM   19  H   UNK     0      -6.153   5.451   9.300  0.00  0.00     0.210 HD
ENDBRANCH  14  18
BRANCH  15  20
HETATM   20  O   UNK     0      -5.118   3.272  11.624  0.00  0.00    -0.388 OA
HETATM   21  H   UNK     0      -4.894   2.593  12.284  0.00  0.00     0.210 HD
ENDBRANCH  15  20
ENDBRANCH   8   9
ENDBRANCH   7   8
ENDBRANCH   2   7
BRANCH   6  22
HETATM   22  O   UNK     0     -11.781   3.181  11.654  0.00  0.00    -0.311 OA
BRANCH  22  23
HETATM   23  C   UNK     0     -11.422   3.105  10.326  0.00  0.00     0.157 A 
HETATM   24  C   UNK     0     -10.507   2.235   9.861  0.00  0.00     0.124 A 
HETATM   25  O   UNK     0     -10.100   2.155   8.538  0.00  0.00    -0.306 OA
HETATM   26  C   UNK     0     -10.674   3.001   7.624  0.00  0.00     0.096 A 
HETATM   27  C   UNK     0     -11.640   3.943   7.971  0.00  0.00     0.084 A 
HETATM   28  C   UNK     0     -10.251   2.889   6.299  0.00  0.00     0.075 A 
HETATM   29  C   UNK     0     -12.067   4.042   9.375  0.00  0.00     0.223 A 
HETATM   30  C   UNK     0     -12.191   4.781   6.997  0.00  0.00     0.085 A 
HETATM   31  O   UNK     0     -12.907   4.854   9.739  0.00  0.00    -0.284 OA
HETATM   32  C   UNK     0     -11.766   4.667   5.672  0.00  0.00     0.074 A 
HETATM   33  C   UNK     0     -10.799   3.723   5.324  0.00  0.00     0.071 A 
BRANCH  24  34
HETATM   34  C   UNK     0      -9.812   1.273  10.735  0.00  0.00     0.004 A 
HETATM   35  C   UNK     0      -8.440   1.394  10.954  0.00  0.00     0.053 A 
HETATM   36  C   UNK     0      -7.782   0.486  11.782  0.00  0.00     0.099 A 
HETATM   37  C   UNK     0      -8.496  -0.547  12.390  0.00  0.00     0.098 A 
HETATM   38  C   UNK     0      -9.868  -0.669  12.171  0.00  0.00     0.040 A 
HETATM   39  C   UNK     0     -10.526   0.241  11.344  0.00  0.00     0.017 A 
BRANCH  36  40
HETATM   40  O   UNK     0      -6.441   0.613  11.987  0.00  0.00    -0.358 OA
HETATM   41  H   UNK     0      -5.958   0.234  11.235  0.00  0.00     0.217 HD
ENDBRANCH  36  40
BRANCH  37  42
HETATM   42  O   UNK     0      -7.865  -1.440  13.202  0.00  0.00    -0.358 OA
HETATM   43  H   UNK     0      -6.923  -1.215  13.267  0.00  0.00     0.217 HD
ENDBRANCH  37  42
ENDBRANCH  24  34
BRANCH  30  44
HETATM   44  O   UNK     0     -13.136   5.718   7.282  0.00  0.00    -0.360 OA
HETATM   45  H   UNK     0     -12.714   6.488   7.701  0.00  0.00     0.217 HD
ENDBRANCH  30  44
BRANCH  33  46
HETATM   46  O   UNK     0     -10.388   3.616   4.031  0.00  0.00    -0.361 OA
HETATM   47  H   UNK     0     -10.190   2.683   3.839  0.00  0.00     0.217 HD
ENDBRANCH  33  46
ENDBRANCH  22  23
ENDBRANCH   6  22
BRANCH   3  48
HETATM   48  O   UNK     0      -9.432   6.530  15.356  0.00  0.00    -0.390 OA
HETATM   49  H   UNK     0      -8.636   6.701  14.824  0.00  0.00     0.210 HD
ENDBRANCH   3  48
BRANCH   5  50
HETATM   50  O   UNK     0     -13.161   5.494  12.523  0.00  0.00    -0.388 OA
HETATM   51  H   UNK     0     -12.819   5.675  11.632  0.00  0.00     0.210 HD
ENDBRANCH   5  50
BRANCH   4  52
HETATM   52  O   UNK     0     -12.312   6.333  15.218  0.00  0.00    -0.390 OA
HETATM   53  H   UNK     0     -13.165   6.585  14.825  0.00  0.00     0.210 HD
ENDBRANCH   4  52
TORSDOF 16
ENDMDL
MODEL 4
REMARK VINA RESULT:      -4.5      7.124     12.432
REMARK  16 active torsions:
REMARK  status: ('A' for Active; 'I' for Inactive)
REMARK    1  A    between atoms: O_2  and  C_22 
REMARK    2  A    between atoms: O_2  and  C_26 
REMARK    3  A    between atoms: O_4  and  C_18 
REMARK    4  A    between atoms: O_5  and  C_19 
REMARK    5  A    between atoms: O_6  and  C_25 
REMARK    6  A    between atoms: O_6  and  C_29 
REMARK    7  A    between atoms: O_7  and  C_20 
REMARK    8  A    between atoms: O_8  and  C_21 
REMARK    9  A    between atoms: O_9  and  C_23 
REMARK   10  A    between atoms: O_10  and  C_24 
REMARK   11  A    between atoms: O_13  and  C_35 
REMARK   12  A    between atoms: O_14  and  C_40 
REMARK   13  A    between atoms: O_15  and  C_41 
REMARK   14  A    between atoms: O_16  and  C_43 
REMARK   15  A    between atoms: C_17  and  C_26 
REMARK   16  A    between atoms: C_30  and  C_33 
ROOT
HETATM    1  O   UNK     0     -16.801  12.725  12.403  0.00  0.00    -0.348 OA
HETATM    2  C   UNK     0     -18.076  12.995  11.817  0.00  0.00     0.180 C 
HETATM    3  C   UNK     0     -17.919  13.986  10.661  0.00  0.00     0.180 C 
HETATM    4  C   UNK     0     -17.228  15.265  11.133  0.00  0.00     0.183 C 
HETATM    5  C   UNK     0     -15.955  14.950  11.919  0.00  0.00     0.205 C 
HETATM    6  C   UNK     0     -16.210  13.885  12.985  0.00  0.00     0.298 C 
ENDROOT
BRANCH   2   7
HETATM    7  C   UNK     0     -18.656  11.665  11.346  0.00  0.00     0.205 C 
BRANCH   7   8
HETATM    8  O   UNK     0     -18.261  11.438  10.002  0.00  0.00    -0.356 OA
BRANCH   8   9
HETATM    9  C   UNK     0     -16.921  10.960   9.926  0.00  0.00     0.291 C 
HETATM   10  O   UNK     0     -16.522  10.667   8.583  0.00  0.00    -0.351 OA
HETATM   11  C   UNK     0     -17.256   9.601   7.972  0.00  0.00     0.152 C 
HETATM   12  C   UNK     0     -17.106   8.300   8.772  0.00  0.00     0.178 C 
HETATM   13  C   UNK     0     -16.732   9.459   6.545  0.00  0.00     0.042 C 
HETATM   14  C   UNK     0     -17.504   8.530  10.230  0.00  0.00     0.183 C 
HETATM   15  C   UNK     0     -16.760   9.731  10.818  0.00  0.00     0.204 C 
BRANCH  12  16
HETATM   16  O   UNK     0     -17.956   7.289   8.235  0.00  0.00    -0.390 OA
HETATM   17  H   UNK     0     -17.752   7.199   7.288  0.00  0.00     0.210 HD
ENDBRANCH  12  16
BRANCH  14  18
HETATM   18  O   UNK     0     -17.209   7.358  10.988  0.00  0.00    -0.390 OA
HETATM   19  H   UNK     0     -17.912   6.708  10.814  0.00  0.00     0.210 HD
ENDBRANCH  14  18
BRANCH  15  20
HETATM   20  O   UNK     0     -15.364   9.441  10.911  0.00  0.00    -0.388 OA
HETATM   21  H   UNK     0     -15.229   8.507  10.679  0.00  0.00     0.210 HD
ENDBRANCH  15  20
ENDBRANCH   8   9
ENDBRANCH   7   8
ENDBRANCH   2   7
BRANCH   6  22
HETATM   22  O   UNK     0     -14.956  13.543  13.574  0.00  0.00    -0.311 OA
BRANCH  22  23
HETATM   23  C   UNK     0     -14.982  13.690  14.943  0.00  0.00     0.157 A 
HETATM   24  C   UNK     0     -15.524  12.777  15.770  0.00  0.00     0.124 A 
HETATM   25  O   UNK     0     -15.595  12.909  17.149  0.00  0.00    -0.306 OA
HETATM   26  C   UNK     0     -15.063  14.033  17.726  0.00  0.00     0.096 A 
HETATM   27  C   UNK     0     -14.465  15.051  16.987  0.00  0.00     0.084 A 
HETATM   28  C   UNK     0     -15.141  14.132  19.116  0.00  0.00     0.075 A 
HETATM   29  C   UNK     0     -14.398  14.923  15.523  0.00  0.00     0.223 A 
HETATM   30  C   UNK     0     -13.940  16.176  17.631  0.00  0.00     0.085 A 
HETATM   31  O   UNK     0     -13.890  15.788  14.822  0.00  0.00    -0.284 OA
HETATM   32  C   UNK     0     -14.020  16.272  19.021  0.00  0.00     0.074 A 
HETATM   33  C   UNK     0     -14.618  15.253  19.762  0.00  0.00     0.071 A 
BRANCH  24  34
HETATM   34  C   UNK     0     -16.131  11.527  15.281  0.00  0.00     0.004 A 
HETATM   35  C   UNK     0     -15.326  10.523  14.744  0.00  0.00     0.053 A 
HETATM   36  C   UNK     0     -15.900   9.339  14.282  0.00  0.00     0.099 A 
HETATM   37  C   UNK     0     -17.281   9.159  14.357  0.00  0.00     0.098 A 
HETATM   38  C   UNK     0     -18.087  10.163  14.893  0.00  0.00     0.040 A 
HETATM   39  C   UNK     0     -17.512  11.346  15.356  0.00  0.00     0.017 A 
BRANCH  36  40
HETATM   40  O   UNK     0     -15.102   8.366  13.758  0.00  0.00    -0.358 OA
HETATM   41  H   UNK     0     -15.480   8.051  12.921  0.00  0.00     0.217 HD
ENDBRANCH  36  40
BRANCH  37  42
HETATM   42  O   UNK     0     -17.854   8.006  13.910  0.00  0.00    -0.358 OA
HETATM   43  H   UNK     0     -17.802   7.326  14.599  0.00  0.00     0.217 HD
ENDBRANCH  37  42
ENDBRANCH  24  34
BRANCH  30  44
HETATM   44  O   UNK     0     -13.347  17.198  16.956  0.00  0.00    -0.360 OA
HETATM   45  H   UNK     0     -13.934  17.501  16.242  0.00  0.00     0.217 HD
ENDBRANCH  30  44
BRANCH  33  46
HETATM   46  O   UNK     0     -14.693  15.352  21.117  0.00  0.00    -0.361 OA
HETATM   47  H   UNK     0     -13.793  15.397  21.481  0.00  0.00     0.217 HD
ENDBRANCH  33  46
ENDBRANCH  22  23
ENDBRANCH   6  22
BRANCH   3  48
HETATM   48  O   UNK     0     -19.205  14.310  10.140  0.00  0.00    -0.390 OA
HETATM   49  H   UNK     0     -19.796  13.556  10.307  0.00  0.00     0.210 HD
ENDBRANCH   3  48
BRANCH   5  50
HETATM   50  O   UNK     0     -15.494  16.134  12.569  0.00  0.00    -0.388 OA
HETATM   51  H   UNK     0     -16.188  16.810  12.491  0.00  0.00     0.210 HD
ENDBRANCH   5  50
BRANCH   4  52
HETATM   52  O   UNK     0     -16.895  16.039   9.978  0.00  0.00    -0.390 OA
HETATM   53  H   UNK     0     -17.684  16.550   9.733  0.00  0.00     0.210 HD
ENDBRANCH   4  52
TORSDOF 16
ENDMDL
MODEL 5
REMARK VINA RESULT:      -4.5      8.658     16.479
REMARK  16 active torsions:
REMARK  status: ('A' for Active; 'I' for Inactive)
REMARK    1  A    between atoms: O_2  and  C_22 
REMARK    2  A    between atoms: O_2  and  C_26 
REMARK    3  A    between atoms: O_4  and  C_18 
REMARK    4  A    between atoms: O_5  and  C_19 
REMARK    5  A    between atoms: O_6  and  C_25 
REMARK    6  A    between atoms: O_6  and  C_29 
REMARK    7  A    between atoms: O_7  and  C_20 
REMARK    8  A    between atoms: O_8  and  C_21 
REMARK    9  A    between atoms: O_9  and  C_23 
REMARK   10  A    between atoms: O_10  and  C_24 
REMARK   11  A    between atoms: O_13  and  C_35 
REMARK   12  A    between atoms: O_14  and  C_40 
REMARK   13  A    between atoms: O_15  and  C_41 
REMARK   14  A    between atoms: O_16  and  C_43 
REMARK   15  A    between atoms: C_17  and  C_26 
REMARK   16  A    between atoms: C_30  and  C_33 
ROOT
HETATM    1  O   UNK     0     -15.604  13.365  16.913  0.00  0.00    -0.348 OA
HETATM    2  C   UNK     0     -14.445  13.989  17.468  0.00  0.00     0.180 C 
HETATM    3  C   UNK     0     -14.173  15.314  16.751  0.00  0.00     0.180 C 
HETATM    4  C   UNK     0     -14.034  15.097  15.244  0.00  0.00     0.183 C 
HETATM    5  C   UNK     0     -15.196  14.268  14.695  0.00  0.00     0.205 C 
HETATM    6  C   UNK     0     -15.433  13.017  15.541  0.00  0.00     0.298 C 
ENDROOT
BRANCH   2   7
HETATM    7  C   UNK     0     -14.703  14.195  18.957  0.00  0.00     0.205 C 
BRANCH   7   8
HETATM    8  O   UNK     0     -13.476  14.503  19.601  0.00  0.00    -0.356 OA
BRANCH   8   9
HETATM    9  C   UNK     0     -12.746  13.323  19.922  0.00  0.00     0.291 C 
HETATM   10  O   UNK     0     -13.283  12.641  21.059  0.00  0.00    -0.351 OA
HETATM   11  C   UNK     0     -13.205  13.384  22.279  0.00  0.00     0.152 C 
HETATM   12  C   UNK     0     -11.749  13.732  22.621  0.00  0.00     0.178 C 
HETATM   13  C   UNK     0     -13.858  12.530  23.364  0.00  0.00     0.042 C 
HETATM   14  C   UNK     0     -11.093  14.457  21.445  0.00  0.00     0.183 C 
HETATM   15  C   UNK     0     -11.275  13.671  20.146  0.00  0.00     0.204 C 
BRANCH  12  16
HETATM   16  O   UNK     0     -11.700  14.592  23.756  0.00  0.00    -0.390 OA
HETATM   17  H   UNK     0     -11.005  14.263  24.350  0.00  0.00     0.210 HD
ENDBRANCH  12  16
BRANCH  14  18
HETATM   18  O   UNK     0      -9.704  14.631  21.717  0.00  0.00    -0.390 OA
HETATM   19  H   UNK     0      -9.222  13.917  21.265  0.00  0.00     0.210 HD
ENDBRANCH  14  18
BRANCH  15  20
HETATM   20  O   UNK     0     -10.544  12.446  20.211  0.00  0.00    -0.388 OA
HETATM   21  H   UNK     0     -10.395  12.129  19.304  0.00  0.00     0.210 HD
ENDBRANCH  15  20
ENDBRANCH   8   9
ENDBRANCH   7   8
ENDBRANCH   2   7
BRANCH   6  22
HETATM   22  O   UNK     0     -16.613  12.376  15.056  0.00  0.00    -0.311 OA
BRANCH  22  23
HETATM   23  C   UNK     0     -16.347  11.106  14.594  0.00  0.00     0.157 A 
HETATM   24  C   UNK     0     -16.037  10.079  15.405  0.00  0.00     0.124 A 
HETATM   25  O   UNK     0     -15.732   8.798  14.972  0.00  0.00    -0.306 OA
HETATM   26  C   UNK     0     -15.764   8.538  13.626  0.00  0.00     0.096 A 
HETATM   27  C   UNK     0     -16.078   9.509  12.677  0.00  0.00     0.084 A 
HETATM   28  C   UNK     0     -15.462   7.238  13.220  0.00  0.00     0.075 A 
HETATM   29  C   UNK     0     -16.389  10.873  13.130  0.00  0.00     0.223 A 
HETATM   30  C   UNK     0     -16.093   9.188  11.317  0.00  0.00     0.085 A 
HETATM   31  O   UNK     0     -16.666  11.768  12.343  0.00  0.00    -0.284 OA
HETATM   32  C   UNK     0     -15.791   7.885  10.914  0.00  0.00     0.074 A 
HETATM   33  C   UNK     0     -15.477   6.913  11.864  0.00  0.00     0.071 A 
BRANCH  24  34
HETATM   34  C   UNK     0     -15.966  10.221  16.871  0.00  0.00     0.004 A 
HETATM   35  C   UNK     0     -14.743  10.075  17.527  0.00  0.00     0.053 A 
HETATM   36  C   UNK     0     -14.675  10.211  18.913  0.00  0.00     0.099 A 
HETATM   37  C   UNK     0     -15.829  10.491  19.644  0.00  0.00     0.098 A 
HETATM   38  C   UNK     0     -17.052  10.635  18.989  0.00  0.00     0.040 A 
HETATM   39  C   UNK     0     -17.120  10.501  17.602  0.00  0.00     0.017 A 
BRANCH  36  40
HETATM   40  O   UNK     0     -13.475  10.065  19.543  0.00  0.00    -0.358 OA
HETATM   41  H   UNK     0     -12.755  10.266  18.924  0.00  0.00     0.217 HD
ENDBRANCH  36  40
BRANCH  37  42
HETATM   42  O   UNK     0     -15.775  10.626  20.999  0.00  0.00    -0.358 OA
HETATM   43  H   UNK     0     -16.637  10.921  21.333  0.00  0.00     0.217 HD
ENDBRANCH  37  42
ENDBRANCH  24  34
BRANCH  30  44
HETATM   44  O   UNK     0     -16.392  10.098  10.350  0.00  0.00    -0.360 OA
HETATM   45  H   UNK     0     -16.238  10.996  10.690  0.00  0.00     0.217 HD
ENDBRANCH  30  44
BRANCH  33  46
HETATM   46  O   UNK     0     -15.183   5.645  11.466  0.00  0.00    -0.361 OA
HETATM   47  H   UNK     0     -14.645   5.215  12.154  0.00  0.00     0.217 HD
ENDBRANCH  33  46
ENDBRANCH  22  23
ENDBRANCH   6  22
BRANCH   3  48
HETATM   48  O   UNK     0     -12.968  15.884  17.257  0.00  0.00    -0.390 OA
HETATM   49  H   UNK     0     -12.448  16.208  16.502  0.00  0.00     0.210 HD
ENDBRANCH   3  48
BRANCH   5  50
HETATM   50  O   UNK     0     -14.896  13.857  13.362  0.00  0.00    -0.388 OA
HETATM   51  H   UNK     0     -15.270  12.970  13.228  0.00  0.00     0.210 HD
ENDBRANCH   5  50
BRANCH   4  52
HETATM   52  O   UNK     0     -14.025  16.379  14.613  0.00  0.00    -0.390 OA
HETATM   53  H   UNK     0     -14.081  17.050  15.314  0.00  0.00     0.210 HD
ENDBRANCH   4  52
TORSDOF 16
ENDMDL
MODEL 6
REMARK VINA RESULT:      -4.5     11.875     14.145
REMARK  16 active torsions:
REMARK  status: ('A' for Active; 'I' for Inactive)
REMARK    1  A    between atoms: O_2  and  C_22 
REMARK    2  A    between atoms: O_2  and  C_26 
REMARK    3  A    between atoms: O_4  and  C_18 
REMARK    4  A    between atoms: O_5  and  C_19 
REMARK    5  A    between atoms: O_6  and  C_25 
REMARK    6  A    between atoms: O_6  and  C_29 
REMARK    7  A    between atoms: O_7  and  C_20 
REMARK    8  A    between atoms: O_8  and  C_21 
REMARK    9  A    between atoms: O_9  and  C_23 
REMARK   10  A    between atoms: O_10  and  C_24 
REMARK   11  A    between atoms: O_13  and  C_35 
REMARK   12  A    between atoms: O_14  and  C_40 
REMARK   13  A    between atoms: O_15  and  C_41 
REMARK   14  A    between atoms: O_16  and  C_43 
REMARK   15  A    between atoms: C_17  and  C_26 
REMARK   16  A    between atoms: C_30  and  C_33 
ROOT
HETATM    1  O   UNK     0      -3.279  12.817   8.307  0.00  0.00    -0.348 OA
HETATM    2  C   UNK     0      -2.138  12.892   7.451  0.00  0.00     0.180 C 
HETATM    3  C   UNK     0      -2.438  12.202   6.118  0.00  0.00     0.180 C 
HETATM    4  C   UNK     0      -2.884  10.757   6.344  0.00  0.00     0.183 C 
HETATM    5  C   UNK     0      -3.986  10.676   7.401  0.00  0.00     0.205 C 
HETATM    6  C   UNK     0      -3.616  11.474   8.651  0.00  0.00     0.298 C 
ENDROOT
BRANCH   2   7
HETATM    7  C   UNK     0      -1.804  14.369   7.261  0.00  0.00     0.205 C 
BRANCH   7   8
HETATM    8  O   UNK     0      -2.939  15.148   7.609  0.00  0.00    -0.356 OA
BRANCH   8   9
HETATM    9  C   UNK     0      -3.573  15.689   6.456  0.00  0.00     0.291 C 
HETATM   10  O   UNK     0      -3.813  17.095   6.574  0.00  0.00    -0.351 OA
HETATM   11  C   UNK     0      -4.729  17.448   7.614  0.00  0.00     0.152 C 
HETATM   12  C   UNK     0      -6.096  16.784   7.394  0.00  0.00     0.178 C 
HETATM   13  C   UNK     0      -4.830  18.972   7.623  0.00  0.00     0.042 C 
HETATM   14  C   UNK     0      -5.927  15.272   7.245  0.00  0.00     0.183 C 
HETATM   15  C   UNK     0      -4.877  14.940   6.184  0.00  0.00     0.204 C 
BRANCH  12  16
HETATM   16  O   UNK     0      -6.949  17.027   8.511  0.00  0.00    -0.390 OA
HETATM   17  H   UNK     0      -6.719  16.389   9.207  0.00  0.00     0.210 HD
ENDBRANCH  12  16
BRANCH  14  18
HETATM   18  O   UNK     0      -7.180  14.693   6.886  0.00  0.00    -0.390 OA
HETATM   19  H   UNK     0      -7.803  15.419   6.710  0.00  0.00     0.210 HD
ENDBRANCH  14  18
BRANCH  15  20
HETATM   20  O   UNK     0      -5.345  15.336   4.894  0.00  0.00    -0.388 OA
HETATM   21  H   UNK     0      -6.089  14.760   4.648  0.00  0.00     0.210 HD
ENDBRANCH  15  20
ENDBRANCH   8   9
ENDBRANCH   7   8
ENDBRANCH   2   7
BRANCH   6  22
HETATM   22  O   UNK     0      -4.744  11.470   9.525  0.00  0.00    -0.311 OA
BRANCH  22  23
HETATM   23  C   UNK     0      -4.397  11.077  10.799  0.00  0.00     0.157 A 
HETATM   24  C   UNK     0      -3.949  11.933  11.735  0.00  0.00     0.124 A 
HETATM   25  O   UNK     0      -3.561  11.566  13.015  0.00  0.00    -0.306 OA
HETATM   26  C   UNK     0      -3.653  10.246  13.373  0.00  0.00     0.096 A 
HETATM   27  C   UNK     0      -4.109   9.258  12.504  0.00  0.00     0.084 A 
HETATM   28  C   UNK     0      -3.265   9.910  14.671  0.00  0.00     0.075 A 
HETATM   29  C   UNK     0      -4.509   9.639  11.140  0.00  0.00     0.223 A 
HETATM   30  C   UNK     0      -4.180   7.926  12.923  0.00  0.00     0.085 A 
HETATM   31  O   UNK     0      -4.912   8.813  10.331  0.00  0.00    -0.284 OA
HETATM   32  C   UNK     0      -3.791   7.593  14.222  0.00  0.00     0.074 A 
HETATM   33  C   UNK     0      -3.335   8.582  15.093  0.00  0.00     0.071 A 
BRANCH  24  34
HETATM   34  C   UNK     0      -3.800  13.377  11.482  0.00  0.00     0.004 A 
HETATM   35  C   UNK     0      -4.930  14.189  11.386  0.00  0.00     0.053 A 
HETATM   36  C   UNK     0      -4.789  15.556  11.148  0.00  0.00     0.099 A 
HETATM   37  C   UNK     0      -3.518  16.112  11.005  0.00  0.00     0.098 A 
HETATM   38  C   UNK     0      -2.388  15.300  11.100  0.00  0.00     0.040 A 
HETATM   39  C   UNK     0      -2.529  13.933  11.339  0.00  0.00     0.017 A 
BRANCH  36  40
HETATM   40  O   UNK     0      -5.901  16.339  11.054  0.00  0.00    -0.358 OA
HETATM   41  H   UNK     0      -6.548  16.069  11.727  0.00  0.00     0.217 HD
ENDBRANCH  36  40
BRANCH  37  42
HETATM   42  O   UNK     0      -3.368  17.446  10.773  0.00  0.00    -0.358 OA
HETATM   43  H   UNK     0      -3.170  17.903  11.605  0.00  0.00     0.217 HD
ENDBRANCH  37  42
ENDBRANCH  24  34
BRANCH  30  44
HETATM   44  O   UNK     0      -4.617   6.923  12.114  0.00  0.00    -0.360 OA
HETATM   45  H   UNK     0      -4.410   6.064  12.520  0.00  0.00     0.217 HD
ENDBRANCH  30  44
BRANCH  33  46
HETATM   46  O   UNK     0      -2.956   8.252  16.358  0.00  0.00    -0.361 OA
HETATM   47  H   UNK     0      -2.230   8.836  16.633  0.00  0.00     0.217 HD
ENDBRANCH  33  46
ENDBRANCH  22  23
ENDBRANCH   6  22
BRANCH   3  48
HETATM   48  O   UNK     0      -1.266  12.212   5.308  0.00  0.00    -0.390 OA
HETATM   49  H   UNK     0      -1.092  11.301   5.020  0.00  0.00     0.210 HD
ENDBRANCH   3  48
BRANCH   5  50
HETATM   50  O   UNK     0      -4.180   9.314   7.780  0.00  0.00    -0.388 OA
HETATM   51  H   UNK     0      -5.100   9.073   7.578  0.00  0.00     0.210 HD
ENDBRANCH   5  50
BRANCH   4  52
HETATM   52  O   UNK     0      -3.377  10.249   5.103  0.00  0.00    -0.390 OA
HETATM   53  H   UNK     0      -4.244  10.661   4.944  0.00  0.00     0.210 HD
ENDBRANCH   4  52
TORSDOF 16
ENDMDL
MODEL 7
REMARK VINA RESULT:      -4.4     11.750     16.832
REMARK  16 active torsions:
REMARK  status: ('A' for Active; 'I' for Inactive)
REMARK    1  A    between atoms: O_2  and  C_22 
REMARK    2  A    between atoms: O_2  and  C_26 
REMARK    3  A    between atoms: O_4  and  C_18 
REMARK    4  A    between atoms: O_5  and  C_19 
REMARK    5  A    between atoms: O_6  and  C_25 
REMARK    6  A    between atoms: O_6  and  C_29 
REMARK    7  A    between atoms: O_7  and  C_20 
REMARK    8  A    between atoms: O_8  and  C_21 
REMARK    9  A    between atoms: O_9  and  C_23 
REMARK   10  A    between atoms: O_10  and  C_24 
REMARK   11  A    between atoms: O_13  and  C_35 
REMARK   12  A    between atoms: O_14  and  C_40 
REMARK   13  A    between atoms: O_15  and  C_41 
REMARK   14  A    between atoms: O_16  and  C_43 
REMARK   15  A    between atoms: C_17  and  C_26 
REMARK   16  A    between atoms: C_30  and  C_33 
ROOT
HETATM    1  O   UNK     0     -15.488  13.114  16.760  0.00  0.00    -0.348 OA
HETATM    2  C   UNK     0     -14.577  14.206  16.625  0.00  0.00     0.180 C 
HETATM    3  C   UNK     0     -14.890  14.992  15.350  0.00  0.00     0.180 C 
HETATM    4  C   UNK     0     -14.862  14.075  14.127  0.00  0.00     0.183 C 
HETATM    5  C   UNK     0     -15.700  12.818  14.358  0.00  0.00     0.205 C 
HETATM    6  C   UNK     0     -15.366  12.167  15.701  0.00  0.00     0.298 C 
ENDROOT
BRANCH   2   7
HETATM    7  C   UNK     0     -14.714  15.075  17.873  0.00  0.00     0.205 C 
BRANCH   7   8
HETATM    8  O   UNK     0     -13.427  15.527  18.265  0.00  0.00    -0.356 OA
BRANCH   8   9
HETATM    9  C   UNK     0     -12.807  14.616  19.165  0.00  0.00     0.291 C 
HETATM   10  O   UNK     0     -13.309  14.739  20.499  0.00  0.00    -0.351 OA
HETATM   11  C   UNK     0     -13.036  16.002  21.114  0.00  0.00     0.152 C 
HETATM   12  C   UNK     0     -11.525  16.265  21.186  0.00  0.00     0.178 C 
HETATM   13  C   UNK     0     -13.677  15.972  22.500  0.00  0.00     0.042 C 
HETATM   14  C   UNK     0     -10.904  16.140  19.794  0.00  0.00     0.183 C 
HETATM   15  C   UNK     0     -11.292  14.814  19.139  0.00  0.00     0.204 C 
BRANCH  12  16
HETATM   16  O   UNK     0     -11.276  17.585  21.666  0.00  0.00    -0.390 OA
HETATM   17  H   UNK     0     -12.134  18.021  21.800  0.00  0.00     0.210 HD
ENDBRANCH  12  16
BRANCH  14  18
HETATM   18  O   UNK     0      -9.485  16.231  19.904  0.00  0.00    -0.390 OA
HETATM   19  H   UNK     0      -9.266  17.140  20.172  0.00  0.00     0.210 HD
ENDBRANCH  14  18
BRANCH  15  20
HETATM   20  O   UNK     0     -10.699  13.727  19.850  0.00  0.00    -0.388 OA
HETATM   21  H   UNK     0      -9.732  13.793  19.761  0.00  0.00     0.210 HD
ENDBRANCH  15  20
ENDBRANCH   8   9
ENDBRANCH   7   8
ENDBRANCH   2   7
BRANCH   6  22
HETATM   22  O   UNK     0     -16.282  11.092  15.908  0.00  0.00    -0.311 OA
BRANCH  22  23
HETATM   23  C   UNK     0     -15.657   9.991  16.449  0.00  0.00     0.157 A 
HETATM   24  C   UNK     0     -15.641   9.728  17.769  0.00  0.00     0.124 A 
HETATM   25  O   UNK     0     -14.995   8.648  18.349  0.00  0.00    -0.306 OA
HETATM   26  C   UNK     0     -14.337   7.765  17.532  0.00  0.00     0.096 A 
HETATM   27  C   UNK     0     -14.282   7.913  16.148  0.00  0.00     0.084 A 
HETATM   28  C   UNK     0     -13.704   6.682  18.144  0.00  0.00     0.075 A 
HETATM   29  C   UNK     0     -14.954   9.065  15.528  0.00  0.00     0.223 A 
HETATM   30  C   UNK     0     -13.594   6.981  15.365  0.00  0.00     0.085 A 
HETATM   31  O   UNK     0     -14.935   9.250  14.319  0.00  0.00    -0.284 OA
HETATM   32  C   UNK     0     -12.962   5.899  15.980  0.00  0.00     0.074 A 
HETATM   33  C   UNK     0     -13.018   5.749  17.366  0.00  0.00     0.071 A 
BRANCH  24  34
HETATM   34  C   UNK     0     -16.306  10.597  18.756  0.00  0.00     0.004 A 
HETATM   35  C   UNK     0     -15.548  11.444  19.564  0.00  0.00     0.053 A 
HETATM   36  C   UNK     0     -16.176  12.268  20.497  0.00  0.00     0.099 A 
HETATM   37  C   UNK     0     -17.565  12.243  20.625  0.00  0.00     0.098 A 
HETATM   38  C   UNK     0     -18.324  11.395  19.819  0.00  0.00     0.040 A 
HETATM   39  C   UNK     0     -17.695  10.573  18.885  0.00  0.00     0.017 A 
BRANCH  36  40
HETATM   40  O   UNK     0     -15.424  13.090  21.281  0.00  0.00    -0.358 OA
HETATM   41  H   UNK     0     -14.714  12.580  21.702  0.00  0.00     0.217 HD
ENDBRANCH  36  40
BRANCH  37  42
HETATM   42  O   UNK     0     -18.191  13.042  21.533  0.00  0.00    -0.358 OA
HETATM   43  H   UNK     0     -17.532  13.561  22.022  0.00  0.00     0.217 HD
ENDBRANCH  37  42
ENDBRANCH  24  34
BRANCH  30  44
HETATM   44  O   UNK     0     -13.509   7.080  14.010  0.00  0.00    -0.360 OA
HETATM   45  H   UNK     0     -14.364   6.838  13.613  0.00  0.00     0.217 HD
ENDBRANCH  30  44
BRANCH  33  46
HETATM   46  O   UNK     0     -12.400   4.692  17.961  0.00  0.00    -0.361 OA
HETATM   47  H   UNK     0     -12.444   3.925  17.366  0.00  0.00     0.217 HD
ENDBRANCH  33  46
ENDBRANCH  22  23
ENDBRANCH   6  22
BRANCH   3  48
HETATM   48  O   UNK     0     -13.923  16.027  15.185  0.00  0.00    -0.390 OA
HETATM   49  H   UNK     0     -13.396  15.823  14.395  0.00  0.00     0.210 HD
ENDBRANCH   3  48
BRANCH   5  50
HETATM   50  O   UNK     0     -15.432  11.872  13.324  0.00  0.00    -0.388 OA
HETATM   51  H   UNK     0     -15.979  11.085  13.485  0.00  0.00     0.210 HD
ENDBRANCH   5  50
BRANCH   4  52
HETATM   52  O   UNK     0     -15.392  14.803  13.018  0.00  0.00    -0.390 OA
HETATM   53  H   UNK     0     -16.193  15.261  13.326  0.00  0.00     0.210 HD
ENDBRANCH   4  52
TORSDOF 16
ENDMDL
MODEL 8
REMARK VINA RESULT:      -4.4      8.568     12.735
REMARK  16 active torsions:
REMARK  status: ('A' for Active; 'I' for Inactive)
REMARK    1  A    between atoms: O_2  and  C_22 
REMARK    2  A    between atoms: O_2  and  C_26 
REMARK    3  A    between atoms: O_4  and  C_18 
REMARK    4  A    between atoms: O_5  and  C_19 
REMARK    5  A    between atoms: O_6  and  C_25 
REMARK    6  A    between atoms: O_6  and  C_29 
REMARK    7  A    between atoms: O_7  and  C_20 
REMARK    8  A    between atoms: O_8  and  C_21 
REMARK    9  A    between atoms: O_9  and  C_23 
REMARK   10  A    between atoms: O_10  and  C_24 
REMARK   11  A    between atoms: O_13  and  C_35 
REMARK   12  A    between atoms: O_14  and  C_40 
REMARK   13  A    between atoms: O_15  and  C_41 
REMARK   14  A    between atoms: O_16  and  C_43 
REMARK   15  A    between atoms: C_17  and  C_26 
REMARK   16  A    between atoms: C_30  and  C_33 
ROOT
HETATM    1  O   UNK     0     -17.245  12.555  12.723  0.00  0.00    -0.348 OA
HETATM    2  C   UNK     0     -18.502  12.989  12.198  0.00  0.00     0.180 C 
HETATM    3  C   UNK     0     -18.287  13.721  10.871  0.00  0.00     0.180 C 
HETATM    4  C   UNK     0     -17.312  14.886  11.045  0.00  0.00     0.183 C 
HETATM    5  C   UNK     0     -16.044  14.441  11.774  0.00  0.00     0.205 C 
HETATM    6  C   UNK     0     -16.379  13.643  13.035  0.00  0.00     0.298 C 
ENDROOT
BRANCH   2   7
HETATM    7  C   UNK     0     -19.379  11.752  12.026  0.00  0.00     0.205 C 
BRANCH   7   8
HETATM    8  O   UNK     0     -18.550  10.600  11.983  0.00  0.00    -0.356 OA
BRANCH   8   9
HETATM    9  C   UNK     0     -18.416  10.104  10.655  0.00  0.00     0.291 C 
HETATM   10  O   UNK     0     -19.085   8.853  10.470  0.00  0.00    -0.351 OA
HETATM   11  C   UNK     0     -18.548   7.779  11.248  0.00  0.00     0.152 C 
HETATM   12  C   UNK     0     -17.068   7.542  10.913  0.00  0.00     0.178 C 
HETATM   13  C   UNK     0     -19.403   6.547  10.961  0.00  0.00     0.042 C 
HETATM   14  C   UNK     0     -16.278   8.841  11.075  0.00  0.00     0.183 C 
HETATM   15  C   UNK     0     -16.935   9.982  10.297  0.00  0.00     0.204 C 
BRANCH  12  16
HETATM   16  O   UNK     0     -16.511   6.571  11.796  0.00  0.00    -0.390 OA
HETATM   17  H   UNK     0     -16.539   5.709  11.348  0.00  0.00     0.210 HD
ENDBRANCH  12  16
BRANCH  14  18
HETATM   18  O   UNK     0     -14.945   8.640  10.610  0.00  0.00    -0.390 OA
HETATM   19  H   UNK     0     -14.445   9.456  10.784  0.00  0.00     0.210 HD
ENDBRANCH  14  18
BRANCH  15  20
HETATM   20  O   UNK     0     -16.847   9.729   8.894  0.00  0.00    -0.388 OA
HETATM   21  H   UNK     0     -16.281   8.950   8.757  0.00  0.00     0.210 HD
ENDBRANCH  15  20
ENDBRANCH   8   9
ENDBRANCH   7   8
ENDBRANCH   2   7
BRANCH   6  22
HETATM   22  O   UNK     0     -15.156  13.145  13.577  0.00  0.00    -0.311 OA
BRANCH  22  23
HETATM   23  C   UNK     0     -15.075  13.368  14.934  0.00  0.00     0.157 A 
HETATM   24  C   UNK     0     -15.478  12.470  15.851  0.00  0.00     0.124 A 
HETATM   25  O   UNK     0     -15.441  12.675  17.222  0.00  0.00    -0.306 OA
HETATM   26  C   UNK     0     -14.943  13.863  17.692  0.00  0.00     0.096 A 
HETATM   27  C   UNK     0     -14.484  14.875  16.852  0.00  0.00     0.084 A 
HETATM   28  C   UNK     0     -14.909  14.036  19.076  0.00  0.00     0.075 A 
HETATM   29  C   UNK     0     -14.534  14.668  15.396  0.00  0.00     0.223 A 
HETATM   30  C   UNK     0     -13.988  16.066  17.388  0.00  0.00     0.085 A 
HETATM   31  O   UNK     0     -14.150  15.523  14.609  0.00  0.00    -0.284 OA
HETATM   32  C   UNK     0     -13.955  16.237  18.773  0.00  0.00     0.074 A 
HETATM   33  C   UNK     0     -14.414  15.224  19.615  0.00  0.00     0.071 A 
BRANCH  24  34
HETATM   34  C   UNK     0     -16.035  11.156  15.482  0.00  0.00     0.004 A 
HETATM   35  C   UNK     0     -15.203  10.170  14.950  0.00  0.00     0.053 A 
HETATM   36  C   UNK     0     -15.729   8.926  14.602  0.00  0.00     0.099 A 
HETATM   37  C   UNK     0     -17.087   8.668  14.786  0.00  0.00     0.098 A 
HETATM   38  C   UNK     0     -17.919   9.653  15.318  0.00  0.00     0.040 A 
HETATM   39  C   UNK     0     -17.393  10.896  15.666  0.00  0.00     0.017 A 
BRANCH  36  40
HETATM   40  O   UNK     0     -14.907   7.972  14.082  0.00  0.00    -0.358 OA
HETATM   41  H   UNK     0     -14.526   7.442  14.800  0.00  0.00     0.217 HD
ENDBRANCH  36  40
BRANCH  37  42
HETATM   42  O   UNK     0     -17.613   7.456  14.451  0.00  0.00    -0.358 OA
HETATM   43  H   UNK     0     -18.504   7.371  14.825  0.00  0.00     0.217 HD
ENDBRANCH  37  42
ENDBRANCH  24  34
BRANCH  30  44
HETATM   44  O   UNK     0     -13.529  17.086  16.612  0.00  0.00    -0.360 OA
HETATM   45  H   UNK     0     -12.661  16.847  16.241  0.00  0.00     0.217 HD
ENDBRANCH  30  44
BRANCH  33  46
HETATM   46  O   UNK     0     -14.381  15.394  20.965  0.00  0.00    -0.361 OA
HETATM   47  H   UNK     0     -13.944  14.625  21.370  0.00  0.00     0.217 HD
ENDBRANCH  33  46
ENDBRANCH  22  23
ENDBRANCH   6  22
BRANCH   3  48
HETATM   48  O   UNK     0     -19.537  14.220  10.401  0.00  0.00    -0.390 OA
HETATM   49  H   UNK     0     -19.484  15.190  10.377  0.00  0.00     0.210 HD
ENDBRANCH   3  48
BRANCH   5  50
HETATM   50  O   UNK     0     -15.291  15.591  12.159  0.00  0.00    -0.388 OA
HETATM   51  H   UNK     0     -15.782  16.381  11.878  0.00  0.00     0.210 HD
ENDBRANCH   5  50
BRANCH   4  52
HETATM   52  O   UNK     0     -16.968  15.371   9.746  0.00  0.00    -0.390 OA
HETATM   53  H   UNK     0     -17.793  15.643   9.309  0.00  0.00     0.210 HD
ENDBRANCH   4  52
TORSDOF 16
ENDMDL
MODEL 9
REMARK VINA RESULT:      -4.4     10.040     14.466
REMARK  16 active torsions:
REMARK  status: ('A' for Active; 'I' for Inactive)
REMARK    1  A    between atoms: O_2  and  C_22 
REMARK    2  A    between atoms: O_2  and  C_26 
REMARK    3  A    between atoms: O_4  and  C_18 
REMARK    4  A    between atoms: O_5  and  C_19 
REMARK    5  A    between atoms: O_6  and  C_25 
REMARK    6  A    between atoms: O_6  and  C_29 
REMARK    7  A    between atoms: O_7  and  C_20 
REMARK    8  A    between atoms: O_8  and  C_21 
REMARK    9  A    between atoms: O_9  and  C_23 
REMARK   10  A    between atoms: O_10  and  C_24 
REMARK   11  A    between atoms: O_13  and  C_35 
REMARK   12  A    between atoms: O_14  and  C_40 
REMARK   13  A    between atoms: O_15  and  C_41 
REMARK   14  A    between atoms: O_16  and  C_43 
REMARK   15  A    between atoms: C_17  and  C_26 
REMARK   16  A    between atoms: C_30  and  C_33 
ROOT
HETATM    1  O   UNK     0      -4.171   6.873  11.889  0.00  0.00    -0.348 OA
HETATM    2  C   UNK     0      -5.297   6.023  12.118  0.00  0.00     0.180 C 
HETATM    3  C   UNK     0      -5.467   5.055  10.945  0.00  0.00     0.180 C 
HETATM    4  C   UNK     0      -5.591   5.819   9.626  0.00  0.00     0.183 C 
HETATM    5  C   UNK     0      -4.476   6.855   9.479  0.00  0.00     0.205 C 
HETATM    6  C   UNK     0      -4.338   7.704  10.743  0.00  0.00     0.298 C 
ENDROOT
BRANCH   2   7
HETATM    7  C   UNK     0      -5.054   5.284  13.430  0.00  0.00     0.205 C 
BRANCH   7   8
HETATM    8  O   UNK     0      -6.127   5.556  14.320  0.00  0.00    -0.356 OA
BRANCH   8   9
HETATM    9  C   UNK     0      -6.815   4.365  14.686  0.00  0.00     0.291 C 
HETATM   10  O   UNK     0      -7.903   4.071  13.805  0.00  0.00    -0.351 OA
HETATM   11  C   UNK     0      -8.953   5.044  13.825  0.00  0.00     0.152 C 
HETATM   12  C   UNK     0      -9.550   5.182  15.232  0.00  0.00     0.178 C 
HETATM   13  C   UNK     0      -9.996   4.596  12.803  0.00  0.00     0.042 C 
HETATM   14  C   UNK     0      -8.445   5.487  16.244  0.00  0.00     0.183 C 
HETATM   15  C   UNK     0      -7.304   4.474  16.130  0.00  0.00     0.204 C 
BRANCH  12  16
HETATM   16  O   UNK     0     -10.491   6.253  15.267  0.00  0.00    -0.390 OA
HETATM   17  H   UNK     0     -11.330   5.926  14.902  0.00  0.00     0.210 HD
ENDBRANCH  12  16
BRANCH  14  18
HETATM   18  O   UNK     0      -8.992   5.456  17.560  0.00  0.00    -0.390 OA
HETATM   19  H   UNK     0      -9.222   4.532  17.764  0.00  0.00     0.210 HD
ENDBRANCH  14  18
BRANCH  15  20
HETATM   20  O   UNK     0      -7.757   3.182  16.534  0.00  0.00    -0.388 OA
HETATM   21  H   UNK     0      -7.810   2.614  15.746  0.00  0.00     0.210 HD
ENDBRANCH  15  20
ENDBRANCH   8   9
ENDBRANCH   7   8
ENDBRANCH   2   7
BRANCH   6  22
HETATM   22  O   UNK     0      -3.194   8.543  10.586  0.00  0.00    -0.311 OA
BRANCH  22  23
HETATM   23  C   UNK     0      -3.509   9.870  10.778  0.00  0.00     0.157 A 
HETATM   24  C   UNK     0      -3.574  10.442  11.994  0.00  0.00     0.124 A 
HETATM   25  O   UNK     0      -3.919  11.765  12.224  0.00  0.00    -0.306 OA
HETATM   26  C   UNK     0      -4.196  12.565  11.146  0.00  0.00     0.096 A 
HETATM   27  C   UNK     0      -4.157  12.103   9.832  0.00  0.00     0.084 A 
HETATM   28  C   UNK     0      -4.530  13.894  11.409  0.00  0.00     0.075 A 
HETATM   29  C   UNK     0      -3.805  10.697   9.583  0.00  0.00     0.223 A 
HETATM   30  C   UNK     0      -4.451  12.965   8.772  0.00  0.00     0.085 A 
HETATM   31  O   UNK     0      -3.760  10.233   8.451  0.00  0.00    -0.284 OA
HETATM   32  C   UNK     0      -4.784  14.294   9.038  0.00  0.00     0.074 A 
HETATM   33  C   UNK     0      -4.824  14.758  10.353  0.00  0.00     0.071 A 
BRANCH  24  34
HETATM   34  C   UNK     0      -3.302   9.695  13.235  0.00  0.00     0.004 A 
HETATM   35  C   UNK     0      -4.361   9.216  14.007  0.00  0.00     0.053 A 
HETATM   36  C   UNK     0      -4.104   8.508  15.181  0.00  0.00     0.099 A 
HETATM   37  C   UNK     0      -2.788   8.281  15.585  0.00  0.00     0.098 A 
HETATM   38  C   UNK     0      -1.730   8.760  14.813  0.00  0.00     0.040 A 
HETATM   39  C   UNK     0      -1.987   9.467  13.639  0.00  0.00     0.017 A 
BRANCH  36  40
HETATM   40  O   UNK     0      -5.146   8.046  15.928  0.00  0.00    -0.358 OA
HETATM   41  H   UNK     0      -5.453   8.745  16.528  0.00  0.00     0.217 HD
ENDBRANCH  36  40
BRANCH  37  42
HETATM   42  O   UNK     0      -2.525   7.590  16.729  0.00  0.00    -0.358 OA
HETATM   43  H   UNK     0      -3.299   7.619  17.314  0.00  0.00     0.217 HD
ENDBRANCH  37  42
ENDBRANCH  24  34
BRANCH  30  44
HETATM   44  O   UNK     0      -4.428  12.564   7.471  0.00  0.00    -0.360 OA
HETATM   45  H   UNK     0      -3.908  13.196   6.945  0.00  0.00     0.217 HD
ENDBRANCH  30  44
BRANCH  33  46
HETATM   46  O   UNK     0      -5.150  16.054  10.607  0.00  0.00    -0.361 OA
HETATM   47  H   UNK     0      -5.728  16.087  11.388  0.00  0.00     0.217 HD
ENDBRANCH  33  46
ENDBRANCH  22  23
ENDBRANCH   6  22
BRANCH   3  48
HETATM   48  O   UNK     0      -6.641   4.272  11.147  0.00  0.00    -0.390 OA
HETATM   49  H   UNK     0      -6.377   3.337  11.178  0.00  0.00     0.210 HD
ENDBRANCH   3  48
BRANCH   5  50
HETATM   50  O   UNK     0      -4.776   7.723   8.387  0.00  0.00    -0.388 OA
HETATM   51  H   UNK     0      -5.080   7.177   7.642  0.00  0.00     0.210 HD
ENDBRANCH   5  50
BRANCH   4  52
HETATM   52  O   UNK     0      -5.503   4.872   8.559  0.00  0.00    -0.390 OA
HETATM   53  H   UNK     0      -4.710   4.330   8.714  0.00  0.00     0.210 HD
ENDBRANCH   4  52
TORSDOF 16
ENDMDL
MODEL 10
REMARK VINA RESULT:      -4.4      2.812      9.403
REMARK  16 active torsions:
REMARK  status: ('A' for Active; 'I' for Inactive)
REMARK    1  A    between atoms: O_2  and  C_22 
REMARK    2  A    between atoms: O_2  and  C_26 
REMARK    3  A    between atoms: O_4  and  C_18 
REMARK    4  A    between atoms: O_5  and  C_19 
REMARK    5  A    between atoms: O_6  and  C_25 
REMARK    6  A    between atoms: O_6  and  C_29 
REMARK    7  A    between atoms: O_7  and  C_20 
REMARK    8  A    between atoms: O_8  and  C_21 
REMARK    9  A    between atoms: O_9  and  C_23 
REMARK   10  A    between atoms: O_10  and  C_24 
REMARK   11  A    between atoms: O_13  and  C_35 
REMARK   12  A    between atoms: O_14  and  C_40 
REMARK   13  A    between atoms: O_15  and  C_41 
REMARK   14  A    between atoms: O_16  and  C_43 
REMARK   15  A    between atoms: C_17  and  C_26 
REMARK   16  A    between atoms: C_30  and  C_33 
ROOT
HETATM    1  O   UNK     0     -13.258   4.459   9.109  0.00  0.00    -0.348 OA
HETATM    2  C   UNK     0     -13.648   3.377   9.957  0.00  0.00     0.180 C 
HETATM    3  C   UNK     0     -12.518   3.047  10.936  0.00  0.00     0.180 C 
HETATM    4  C   UNK     0     -11.222   2.742  10.185  0.00  0.00     0.183 C 
HETATM    5  C   UNK     0     -10.914   3.823   9.149  0.00  0.00     0.205 C 
HETATM    6  C   UNK     0     -12.138   4.134   8.288  0.00  0.00     0.298 C 
ENDROOT
BRANCH   2   7
HETATM    7  C   UNK     0     -14.921   3.800  10.685  0.00  0.00     0.205 C 
BRANCH   7   8
HETATM    8  O   UNK     0     -14.567   4.416  11.914  0.00  0.00    -0.356 OA
BRANCH   8   9
HETATM    9  C   UNK     0     -14.189   5.775  11.727  0.00  0.00     0.291 C 
HETATM   10  O   UNK     0     -13.849   6.422  12.957  0.00  0.00    -0.351 OA
HETATM   11  C   UNK     0     -14.936   6.537  13.880  0.00  0.00     0.152 C 
HETATM   12  C   UNK     0     -16.096   7.335  13.268  0.00  0.00     0.178 C 
HETATM   13  C   UNK     0     -14.385   7.203  15.139  0.00  0.00     0.042 C 
HETATM   14  C   UNK     0     -16.516   6.714  11.936  0.00  0.00     0.183 C 
HETATM   15  C   UNK     0     -15.310   6.529  11.013  0.00  0.00     0.204 C 
BRANCH  12  16
HETATM   16  O   UNK     0     -17.223   7.316  14.142  0.00  0.00    -0.390 OA
HETATM   17  H   UNK     0     -18.016   7.501  13.610  0.00  0.00     0.210 HD
ENDBRANCH  12  16
BRANCH  14  18
HETATM   18  O   UNK     0     -17.483   7.555  11.310  0.00  0.00    -0.390 OA
HETATM   19  H   UNK     0     -17.712   8.262  11.938  0.00  0.00     0.210 HD
ENDBRANCH  14  18
BRANCH  15  20
HETATM   20  O   UNK     0     -14.797   7.803  10.622  0.00  0.00    -0.388 OA
HETATM   21  H   UNK     0     -15.186   8.482  11.200  0.00  0.00     0.210 HD
ENDBRANCH  15  20
ENDBRANCH   8   9
ENDBRANCH   7   8
ENDBRANCH   2   7
BRANCH   6  22
HETATM   22  O   UNK     0     -11.817   5.243   7.450  0.00  0.00    -0.311 OA
BRANCH  22  23
HETATM   23  C   UNK     0     -12.051   4.960   6.123  0.00  0.00     0.157 A 
HETATM   24  C   UNK     0     -13.274   5.015   5.565  0.00  0.00     0.124 A 
HETATM   25  O   UNK     0     -13.549   4.706   4.241  0.00  0.00    -0.306 OA
HETATM   26  C   UNK     0     -12.511   4.336   3.427  0.00  0.00     0.096 A 
HETATM   27  C   UNK     0     -11.194   4.247   3.874  0.00  0.00     0.084 A 
HETATM   28  C   UNK     0     -12.817   4.040   2.098  0.00  0.00     0.075 A 
HETATM   29  C   UNK     0     -10.898   4.561   5.281  0.00  0.00     0.223 A 
HETATM   30  C   UNK     0     -10.175   3.863   2.998  0.00  0.00     0.085 A 
HETATM   31  O   UNK     0      -9.762   4.495   5.732  0.00  0.00    -0.284 OA
HETATM   32  C   UNK     0     -10.485   3.568   1.670  0.00  0.00     0.074 A 
HETATM   33  C   UNK     0     -11.803   3.657   1.220  0.00  0.00     0.071 A 
BRANCH  24  34
HETATM   34  C   UNK     0     -14.477   5.395   6.327  0.00  0.00     0.004 A 
HETATM   35  C   UNK     0     -14.648   6.714   6.747  0.00  0.00     0.053 A 
HETATM   36  C   UNK     0     -15.787   7.075   7.467  0.00  0.00     0.099 A 
HETATM   37  C   UNK     0     -16.754   6.116   7.769  0.00  0.00     0.098 A 
HETATM   38  C   UNK     0     -16.582   4.797   7.349  0.00  0.00     0.040 A 
HETATM   39  C   UNK     0     -15.445   4.437   6.628  0.00  0.00     0.017 A 
BRANCH  36  40
HETATM   40  O   UNK     0     -15.942   8.366   7.874  0.00  0.00    -0.358 OA
HETATM   41  H   UNK     0     -16.713   8.758   7.432  0.00  0.00     0.217 HD
ENDBRANCH  36  40
BRANCH  37  42
HETATM   42  O   UNK     0     -17.870   6.457   8.471  0.00  0.00    -0.358 OA
HETATM   43  H   UNK     0     -18.120   5.729   9.062  0.00  0.00     0.217 HD
ENDBRANCH  37  42
ENDBRANCH  24  34
BRANCH  30  44
HETATM   44  O   UNK     0      -8.874   3.760   3.385  0.00  0.00    -0.360 OA
HETATM   45  H   UNK     0      -8.696   2.853   3.689  0.00  0.00     0.217 HD
ENDBRANCH  30  44
BRANCH  33  46
HETATM   46  O   UNK     0     -12.100   3.368  -0.076  0.00  0.00    -0.361 OA
HETATM   47  H   UNK     0     -11.512   2.658  -0.384  0.00  0.00     0.217 HD
ENDBRANCH  33  46
ENDBRANCH  22  23
ENDBRANCH   6  22
BRANCH   3  48
HETATM   48  O   UNK     0     -12.888   1.915  11.717  0.00  0.00    -0.390 OA
HETATM   49  H   UNK     0     -12.264   1.844  12.459  0.00  0.00     0.210 HD
ENDBRANCH   3  48
BRANCH   5  50
HETATM   50  O   UNK     0      -9.866   3.373   8.291  0.00  0.00    -0.388 OA
HETATM   51  H   UNK     0      -9.691   2.439   8.494  0.00  0.00     0.210 HD
ENDBRANCH   5  50
BRANCH   4  52
HETATM   52  O   UNK     0     -10.162   2.682  11.141  0.00  0.00    -0.390 OA
HETATM   53  H   UNK     0     -10.412   3.250  11.889  0.00  0.00     0.210 HD
ENDBRANCH   4  52
TORSDOF 16
ENDMDL
