MODEL 1
REMARK VINA RESULT:      -7.3      0.000      0.000
REMARK  10 active torsions:
REMARK  status: ('A' for Active; 'I' for Inactive)
REMARK    1  A    between atoms: O_2  and  C_12 
REMARK    2  A    between atoms: O_2  and  C_14 
REMARK    3  A    between atoms: O_3  and  C_8 
REMARK    4  A    between atoms: O_4  and  C_9 
REMARK    5  A    between atoms: O_5  and  C_10 
REMARK    6  A    between atoms: O_6  and  C_13 
REMARK    7  A    between atoms: O_7  and  C_21 
REMARK    8  A    between atoms: C_11  and  C_13 
REMARK    9  A    between atoms: C_14  and  C_15 
REMARK   10  A    between atoms: C_15  and  C_16 
ROOT
HETATM    1  O   UNK     0     153.266 156.302 151.370  0.00  0.00    -0.348 OA
HETATM    2  C   UNK     0     154.686 153.979 152.282  0.00  0.00     0.183 C 
HETATM    3  C   UNK     0     155.366 155.336 152.099  0.00  0.00     0.180 C 
HETATM    4  C   UNK     0     153.412 153.880 151.442  0.00  0.00     0.204 C 
HETATM    5  C   UNK     0     154.359 156.475 152.273  0.00  0.00     0.179 C 
HETATM    6  C   UNK     0     152.526 155.111 151.628  0.00  0.00     0.291 C 
ENDROOT
BRANCH   5   7
HETATM    7  C   UNK     0     154.987 157.833 151.979  0.00  0.00     0.198 C 
BRANCH   7   8
HETATM    8  O   UNK     0     155.921 158.130 153.000  0.00  0.00    -0.398 OA
HETATM    9  H   UNK     0     155.441 158.136 153.845  0.00  0.00     0.209 HD
ENDBRANCH   7   8
ENDBRANCH   5   7
BRANCH   6  10
HETATM   10  O   UNK     0     151.438 155.011 150.710  0.00  0.00    -0.358 OA
BRANCH  10  11
HETATM   11  C   UNK     0     150.392 155.908 151.051  0.00  0.00     0.175 C 
BRANCH  11  12
HETATM   12  C   UNK     0     149.107 155.128 151.307  0.00  0.00     0.065 C 
BRANCH  12  13
HETATM   13  C   UNK     0     147.913 155.749 150.623  0.00  0.00    -0.056 A 
HETATM   14  C   UNK     0     146.903 154.932 150.143  0.00  0.00     0.010 A 
HETATM   15  C   UNK     0     145.800 155.506 149.512  0.00  0.00     0.037 A 
HETATM   16  C   UNK     0     145.722 156.892 149.369  0.00  0.00     0.065 A 
HETATM   17  C   UNK     0     146.746 157.703 149.857  0.00  0.00     0.037 A 
HETATM   18  C   UNK     0     147.849 157.128 150.488  0.00  0.00     0.010 A 
BRANCH  16  19
HETATM   19  O   UNK     0     144.645 157.452 148.753  0.00  0.00    -0.361 OA
HETATM   20  H   UNK     0     144.484 158.331 149.137  0.00  0.00     0.217 HD
ENDBRANCH  16  19
ENDBRANCH  12  13
ENDBRANCH  11  12
ENDBRANCH  10  11
ENDBRANCH   6  10
BRANCH   3  21
HETATM   21  O   UNK     0     156.407 155.476 153.062  0.00  0.00    -0.390 OA
HETATM   22  H   UNK     0     156.260 154.816 153.761  0.00  0.00     0.210 HD
ENDBRANCH   3  21
BRANCH   4  23
HETATM   23  O   UNK     0     152.669 152.729 151.843  0.00  0.00    -0.388 OA
HETATM   24  H   UNK     0     151.732 152.984 151.913  0.00  0.00     0.210 HD
ENDBRANCH   4  23
BRANCH   2  25
HETATM   25  O   UNK     0     155.606 152.965 151.874  0.00  0.00    -0.390 OA
HETATM   26  H   UNK     0     156.287 152.895 152.564  0.00  0.00     0.210 HD
ENDBRANCH   2  25
TORSDOF 10
ENDMDL
MODEL 2
REMARK VINA RESULT:      -7.2      0.360      1.099
REMARK  10 active torsions:
REMARK  status: ('A' for Active; 'I' for Inactive)
REMARK    1  A    between atoms: O_2  and  C_12 
REMARK    2  A    between atoms: O_2  and  C_14 
REMARK    3  A    between atoms: O_3  and  C_8 
REMARK    4  A    between atoms: O_4  and  C_9 
REMARK    5  A    between atoms: O_5  and  C_10 
REMARK    6  A    between atoms: O_6  and  C_13 
REMARK    7  A    between atoms: O_7  and  C_21 
REMARK    8  A    between atoms: C_11  and  C_13 
REMARK    9  A    between atoms: C_14  and  C_15 
REMARK   10  A    between atoms: C_15  and  C_16 
ROOT
HETATM    1  O   UNK     0     153.270 156.233 151.342  0.00  0.00    -0.348 OA
HETATM    2  C   UNK     0     154.699 153.917 152.259  0.00  0.00     0.183 C 
HETATM    3  C   UNK     0     155.378 155.271 152.052  0.00  0.00     0.180 C 
HETATM    4  C   UNK     0     153.414 153.811 151.437  0.00  0.00     0.204 C 
HETATM    5  C   UNK     0     154.376 156.414 152.228  0.00  0.00     0.179 C 
HETATM    6  C   UNK     0     152.532 155.046 151.622  0.00  0.00     0.291 C 
ENDROOT
BRANCH   5   7
HETATM    7  C   UNK     0     155.001 157.768 151.911  0.00  0.00     0.198 C 
BRANCH   7   8
HETATM    8  O   UNK     0     155.863 158.127 152.974  0.00  0.00    -0.398 OA
HETATM    9  H   UNK     0     156.653 158.540 152.586  0.00  0.00     0.209 HD
ENDBRANCH   7   8
ENDBRANCH   5   7
BRANCH   6  10
HETATM   10  O   UNK     0     151.431 154.938 150.721  0.00  0.00    -0.358 OA
BRANCH  10  11
HETATM   11  C   UNK     0     150.236 155.436 151.304  0.00  0.00     0.175 C 
BRANCH  11  12
HETATM   12  C   UNK     0     149.035 154.692 150.731  0.00  0.00     0.065 C 
BRANCH  12  13
HETATM   13  C   UNK     0     147.936 155.630 150.291  0.00  0.00    -0.056 A 
HETATM   14  C   UNK     0     148.162 156.996 150.307  0.00  0.00     0.010 A 
HETATM   15  C   UNK     0     147.148 157.862 149.900  0.00  0.00     0.037 A 
HETATM   16  C   UNK     0     145.919 157.349 149.483  0.00  0.00     0.065 A 
HETATM   17  C   UNK     0     145.706 155.971 149.473  0.00  0.00     0.037 A 
HETATM   18  C   UNK     0     146.721 155.105 149.879  0.00  0.00     0.010 A 
BRANCH  16  19
HETATM   19  O   UNK     0     144.928 158.194 149.086  0.00  0.00    -0.361 OA
HETATM   20  H   UNK     0     145.325 159.042 148.821  0.00  0.00     0.217 HD
ENDBRANCH  16  19
ENDBRANCH  12  13
ENDBRANCH  11  12
ENDBRANCH  10  11
ENDBRANCH   6  10
BRANCH   3  21
HETATM   21  O   UNK     0     156.432 155.420 152.999  0.00  0.00    -0.390 OA
HETATM   22  H   UNK     0     156.078 155.206 153.879  0.00  0.00     0.210 HD
ENDBRANCH   3  21
BRANCH   4  23
HETATM   23  O   UNK     0     152.674 152.666 151.860  0.00  0.00    -0.388 OA
HETATM   24  H   UNK     0     152.070 152.943 152.571  0.00  0.00     0.210 HD
ENDBRANCH   4  23
BRANCH   2  25
HETATM   25  O   UNK     0     155.611 152.898 151.848  0.00  0.00    -0.390 OA
HETATM   26  H   UNK     0     155.245 152.485 151.048  0.00  0.00     0.210 HD
ENDBRANCH   2  25
TORSDOF 10
ENDMDL
MODEL 3
REMARK VINA RESULT:      -7.2      1.545      2.018
REMARK  10 active torsions:
REMARK  status: ('A' for Active; 'I' for Inactive)
REMARK    1  A    between atoms: O_2  and  C_12 
REMARK    2  A    between atoms: O_2  and  C_14 
REMARK    3  A    between atoms: O_3  and  C_8 
REMARK    4  A    between atoms: O_4  and  C_9 
REMARK    5  A    between atoms: O_5  and  C_10 
REMARK    6  A    between atoms: O_6  and  C_13 
REMARK    7  A    between atoms: O_7  and  C_21 
REMARK    8  A    between atoms: C_11  and  C_13 
REMARK    9  A    between atoms: C_14  and  C_15 
REMARK   10  A    between atoms: C_15  and  C_16 
ROOT
HETATM    1  O   UNK     0     152.495 154.418 152.387  0.00  0.00    -0.348 OA
HETATM    2  C   UNK     0     155.022 154.857 151.094  0.00  0.00     0.183 C 
HETATM    3  C   UNK     0     154.774 155.224 152.558  0.00  0.00     0.180 C 
HETATM    4  C   UNK     0     153.709 154.777 150.315  0.00  0.00     0.204 C 
HETATM    5  C   UNK     0     153.689 154.332 153.165  0.00  0.00     0.179 C 
HETATM    6  C   UNK     0     152.671 153.934 151.057  0.00  0.00     0.291 C 
ENDROOT
BRANCH   5   7
HETATM    7  C   UNK     0     153.341 154.755 154.588  0.00  0.00     0.198 C 
BRANCH   7   8
HETATM    8  O   UNK     0     154.442 154.461 155.429  0.00  0.00    -0.398 OA
HETATM    9  H   UNK     0     154.758 153.571 155.199  0.00  0.00     0.209 HD
ENDBRANCH   7   8
ENDBRANCH   5   7
BRANCH   6  10
HETATM   10  O   UNK     0     151.440 154.025 150.343  0.00  0.00    -0.358 OA
BRANCH  10  11
HETATM   11  C   UNK     0     150.659 155.120 150.799  0.00  0.00     0.175 C 
BRANCH  11  12
HETATM   12  C   UNK     0     149.241 154.649 151.105  0.00  0.00     0.065 C 
BRANCH  12  13
HETATM   13  C   UNK     0     148.194 155.576 150.537  0.00  0.00    -0.056 A 
HETATM   14  C   UNK     0     146.978 155.056 150.126  0.00  0.00     0.010 A 
HETATM   15  C   UNK     0     146.010 155.912 149.601  0.00  0.00     0.037 A 
HETATM   16  C   UNK     0     146.272 157.278 149.494  0.00  0.00     0.065 A 
HETATM   17  C   UNK     0     147.501 157.788 149.912  0.00  0.00     0.037 A 
HETATM   18  C   UNK     0     148.468 156.931 150.437  0.00  0.00     0.010 A 
BRANCH  16  19
HETATM   19  O   UNK     0     145.327 158.113 148.981  0.00  0.00    -0.361 OA
HETATM   20  H   UNK     0     144.452 157.705 149.093  0.00  0.00     0.217 HD
ENDBRANCH  16  19
ENDBRANCH  12  13
ENDBRANCH  11  12
ENDBRANCH  10  11
ENDBRANCH   6  10
BRANCH   3  21
HETATM   21  O   UNK     0     155.983 155.063 153.295  0.00  0.00    -0.390 OA
HETATM   22  H   UNK     0     156.540 155.843 153.133  0.00  0.00     0.210 HD
ENDBRANCH   3  21
BRANCH   4  23
HETATM   23  O   UNK     0     153.949 154.172 149.044  0.00  0.00    -0.388 OA
HETATM   24  H   UNK     0     153.227 153.545 148.867  0.00  0.00     0.210 HD
ENDBRANCH   4  23
BRANCH   2  25
HETATM   25  O   UNK     0     155.854 155.866 150.521  0.00  0.00    -0.390 OA
HETATM   26  H   UNK     0     155.750 156.670 151.059  0.00  0.00     0.210 HD
ENDBRANCH   2  25
TORSDOF 10
ENDMDL
MODEL 4
REMARK VINA RESULT:      -7.1      4.261      6.164
REMARK  10 active torsions:
REMARK  status: ('A' for Active; 'I' for Inactive)
REMARK    1  A    between atoms: O_2  and  C_12 
REMARK    2  A    between atoms: O_2  and  C_14 
REMARK    3  A    between atoms: O_3  and  C_8 
REMARK    4  A    between atoms: O_4  and  C_9 
REMARK    5  A    between atoms: O_5  and  C_10 
REMARK    6  A    between atoms: O_6  and  C_13 
REMARK    7  A    between atoms: O_7  and  C_21 
REMARK    8  A    between atoms: C_11  and  C_13 
REMARK    9  A    between atoms: C_14  and  C_15 
REMARK   10  A    between atoms: C_15  and  C_16 
ROOT
HETATM    1  O   UNK     0     152.798 154.258 152.178  0.00  0.00    -0.348 OA
HETATM    2  C   UNK     0     155.486 154.414 151.178  0.00  0.00     0.183 C 
HETATM    3  C   UNK     0     155.084 154.973 152.543  0.00  0.00     0.180 C 
HETATM    4  C   UNK     0     154.275 154.296 150.251  0.00  0.00     0.204 C 
HETATM    5  C   UNK     0     153.881 154.216 153.108  0.00  0.00     0.179 C 
HETATM    6  C   UNK     0     153.105 153.603 150.949  0.00  0.00     0.291 C 
ENDROOT
BRANCH   5   7
HETATM    7  C   UNK     0     153.389 154.830 154.414  0.00  0.00     0.198 C 
BRANCH   7   8
HETATM    8  O   UNK     0     154.342 154.563 155.426  0.00  0.00    -0.398 OA
HETATM    9  H   UNK     0     155.143 154.222 154.993  0.00  0.00     0.209 HD
ENDBRANCH   7   8
ENDBRANCH   5   7
BRANCH   6  10
HETATM   10  O   UNK     0     151.978 153.661 150.077  0.00  0.00    -0.358 OA
BRANCH  10  11
HETATM   11  C   UNK     0     151.778 152.424 149.409  0.00  0.00     0.175 C 
BRANCH  11  12
HETATM   12  C   UNK     0     151.314 152.678 147.980  0.00  0.00     0.065 C 
BRANCH  12  13
HETATM   13  C   UNK     0     152.231 152.049 146.959  0.00  0.00    -0.056 A 
HETATM   14  C   UNK     0     152.643 152.793 145.866  0.00  0.00     0.010 A 
HETATM   15  C   UNK     0     153.490 152.212 144.922  0.00  0.00     0.037 A 
HETATM   16  C   UNK     0     153.913 150.892 145.085  0.00  0.00     0.065 A 
HETATM   17  C   UNK     0     153.490 150.155 146.190  0.00  0.00     0.037 A 
HETATM   18  C   UNK     0     152.643 150.737 147.133  0.00  0.00     0.010 A 
BRANCH  16  19
HETATM   19  O   UNK     0     154.740 150.325 144.164  0.00  0.00    -0.361 OA
HETATM   20  H   UNK     0     154.491 150.642 143.279  0.00  0.00     0.217 HD
ENDBRANCH  16  19
ENDBRANCH  12  13
ENDBRANCH  11  12
ENDBRANCH  10  11
ENDBRANCH   6  10
BRANCH   3  21
HETATM   21  O   UNK     0     156.183 154.850 153.443  0.00  0.00    -0.390 OA
HETATM   22  H   UNK     0     156.033 155.460 154.185  0.00  0.00     0.210 HD
ENDBRANCH   3  21
BRANCH   4  23
HETATM   23  O   UNK     0     154.630 153.526 149.103  0.00  0.00    -0.388 OA
HETATM   24  H   UNK     0     153.826 153.382 148.575  0.00  0.00     0.210 HD
ENDBRANCH   4  23
BRANCH   2  25
HETATM   25  O   UNK     0     156.442 155.303 150.600  0.00  0.00    -0.390 OA
HETATM   26  H   UNK     0     156.059 155.648 149.776  0.00  0.00     0.210 HD
ENDBRANCH   2  25
TORSDOF 10
ENDMDL
MODEL 5
REMARK VINA RESULT:      -7.1      1.704      3.304
REMARK  10 active torsions:
REMARK  status: ('A' for Active; 'I' for Inactive)
REMARK    1  A    between atoms: O_2  and  C_12 
REMARK    2  A    between atoms: O_2  and  C_14 
REMARK    3  A    between atoms: O_3  and  C_8 
REMARK    4  A    between atoms: O_4  and  C_9 
REMARK    5  A    between atoms: O_5  and  C_10 
REMARK    6  A    between atoms: O_6  and  C_13 
REMARK    7  A    between atoms: O_7  and  C_21 
REMARK    8  A    between atoms: C_11  and  C_13 
REMARK    9  A    between atoms: C_14  and  C_15 
REMARK   10  A    between atoms: C_15  and  C_16 
ROOT
HETATM    1  O   UNK     0     151.879 155.086 151.100  0.00  0.00    -0.348 OA
HETATM    2  C   UNK     0     153.696 154.576 153.266  0.00  0.00     0.183 C 
HETATM    3  C   UNK     0     152.943 153.457 152.545  0.00  0.00     0.180 C 
HETATM    4  C   UNK     0     152.985 155.919 153.095  0.00  0.00     0.204 C 
HETATM    5  C   UNK     0     152.615 153.862 151.106  0.00  0.00     0.179 C 
HETATM    6  C   UNK     0     152.628 156.178 151.632  0.00  0.00     0.291 C 
ENDROOT
BRANCH   5   7
HETATM    7  C   UNK     0     151.763 152.811 150.404  0.00  0.00     0.198 C 
BRANCH   7   8
HETATM    8  O   UNK     0     150.822 152.300 151.329  0.00  0.00    -0.398 OA
HETATM    9  H   UNK     0     150.955 152.765 152.172  0.00  0.00     0.209 HD
ENDBRANCH   7   8
ENDBRANCH   5   7
BRANCH   6  10
HETATM   10  O   UNK     0     151.847 157.370 151.575  0.00  0.00    -0.358 OA
BRANCH  10  11
HETATM   11  C   UNK     0     150.746 157.225 150.691  0.00  0.00     0.175 C 
BRANCH  11  12
HETATM   12  C   UNK     0     149.848 158.454 150.779  0.00  0.00     0.065 C 
BRANCH  12  13
HETATM   13  C   UNK     0     148.442 158.172 150.308  0.00  0.00    -0.056 A 
HETATM   14  C   UNK     0     148.038 156.861 150.120  0.00  0.00     0.010 A 
HETATM   15  C   UNK     0     146.738 156.600 149.686  0.00  0.00     0.037 A 
HETATM   16  C   UNK     0     145.860 157.657 149.445  0.00  0.00     0.065 A 
HETATM   17  C   UNK     0     146.280 158.972 149.639  0.00  0.00     0.037 A 
HETATM   18  C   UNK     0     147.580 159.231 150.073  0.00  0.00     0.010 A 
BRANCH  16  19
HETATM   19  O   UNK     0     144.591 157.403 149.021  0.00  0.00    -0.361 OA
HETATM   20  H   UNK     0     144.614 157.179 148.074  0.00  0.00     0.217 HD
ENDBRANCH  16  19
ENDBRANCH  12  13
ENDBRANCH  11  12
ENDBRANCH  10  11
ENDBRANCH   6  10
BRANCH   3  21
HETATM   21  O   UNK     0     153.748 152.281 152.531  0.00  0.00    -0.390 OA
HETATM   22  H   UNK     0     154.608 152.501 152.928  0.00  0.00     0.210 HD
ENDBRANCH   3  21
BRANCH   4  23
HETATM   23  O   UNK     0     153.845 156.969 153.538  0.00  0.00    -0.388 OA
HETATM   24  H   UNK     0     153.847 156.968 154.510  0.00  0.00     0.210 HD
ENDBRANCH   4  23
BRANCH   2  25
HETATM   25  O   UNK     0     153.758 154.244 154.653  0.00  0.00    -0.390 OA
HETATM   26  H   UNK     0     154.411 153.530 154.753  0.00  0.00     0.210 HD
ENDBRANCH   2  25
TORSDOF 10
ENDMDL
MODEL 6
REMARK VINA RESULT:      -7.0      0.964      2.921
REMARK  10 active torsions:
REMARK  status: ('A' for Active; 'I' for Inactive)
REMARK    1  A    between atoms: O_2  and  C_12 
REMARK    2  A    between atoms: O_2  and  C_14 
REMARK    3  A    between atoms: O_3  and  C_8 
REMARK    4  A    between atoms: O_4  and  C_9 
REMARK    5  A    between atoms: O_5  and  C_10 
REMARK    6  A    between atoms: O_6  and  C_13 
REMARK    7  A    between atoms: O_7  and  C_21 
REMARK    8  A    between atoms: C_11  and  C_13 
REMARK    9  A    between atoms: C_14  and  C_15 
REMARK   10  A    between atoms: C_15  and  C_16 
ROOT
HETATM    1  O   UNK     0     152.377 154.325 151.638  0.00  0.00    -0.348 OA
HETATM    2  C   UNK     0     154.969 155.531 151.911  0.00  0.00     0.183 C 
HETATM    3  C   UNK     0     154.745 154.026 152.060  0.00  0.00     0.180 C 
HETATM    4  C   UNK     0     153.676 156.310 152.156  0.00  0.00     0.204 C 
HETATM    5  C   UNK     0     153.529 153.575 151.248  0.00  0.00     0.179 C 
HETATM    6  C   UNK     0     152.511 155.717 151.362  0.00  0.00     0.291 C 
ENDROOT
BRANCH   5   7
HETATM    7  C   UNK     0     153.215 152.100 151.473  0.00  0.00     0.198 C 
BRANCH   7   8
HETATM    8  O   UNK     0     154.027 151.621 152.529  0.00  0.00    -0.398 OA
HETATM    9  H   UNK     0     154.240 152.377 153.102  0.00  0.00     0.209 HD
ENDBRANCH   7   8
ENDBRANCH   5   7
BRANCH   6  10
HETATM   10  O   UNK     0     151.322 156.402 151.751  0.00  0.00    -0.358 OA
BRANCH  10  11
HETATM   11  C   UNK     0     150.381 156.447 150.689  0.00  0.00     0.175 C 
BRANCH  11  12
HETATM   12  C   UNK     0     149.216 155.513 150.992  0.00  0.00     0.065 C 
BRANCH  12  13
HETATM   13  C   UNK     0     147.914 156.013 150.413  0.00  0.00    -0.056 A 
HETATM   14  C   UNK     0     147.743 157.370 150.198  0.00  0.00     0.010 A 
HETATM   15  C   UNK     0     146.540 157.832 149.663  0.00  0.00     0.037 A 
HETATM   16  C   UNK     0     145.524 156.928 149.352  0.00  0.00     0.065 A 
HETATM   17  C   UNK     0     145.710 155.565 149.574  0.00  0.00     0.037 A 
HETATM   18  C   UNK     0     146.913 155.104 150.109  0.00  0.00     0.010 A 
BRANCH  16  19
HETATM   19  O   UNK     0     144.350 157.379 148.830  0.00  0.00    -0.361 OA
HETATM   20  H   UNK     0     144.503 158.243 148.409  0.00  0.00     0.217 HD
ENDBRANCH  16  19
ENDBRANCH  12  13
ENDBRANCH  11  12
ENDBRANCH  10  11
ENDBRANCH   6  10
BRANCH   3  21
HETATM   21  O   UNK     0     155.901 153.330 151.603  0.00  0.00    -0.390 OA
HETATM   22  H   UNK     0     155.628 152.437 151.333  0.00  0.00     0.210 HD
ENDBRANCH   3  21
BRANCH   4  23
HETATM   23  O   UNK     0     153.854 157.665 151.743  0.00  0.00    -0.388 OA
HETATM   24  H   UNK     0     154.769 157.767 151.430  0.00  0.00     0.210 HD
ENDBRANCH   4  23
BRANCH   2  25
HETATM   25  O   UNK     0     155.951 155.928 152.869  0.00  0.00    -0.390 OA
HETATM   26  H   UNK     0     155.798 156.867 153.071  0.00  0.00     0.210 HD
ENDBRANCH   2  25
TORSDOF 10
ENDMDL
MODEL 7
REMARK VINA RESULT:      -7.0      4.010      5.494
REMARK  10 active torsions:
REMARK  status: ('A' for Active; 'I' for Inactive)
REMARK    1  A    between atoms: O_2  and  C_12 
REMARK    2  A    between atoms: O_2  and  C_14 
REMARK    3  A    between atoms: O_3  and  C_8 
REMARK    4  A    between atoms: O_4  and  C_9 
REMARK    5  A    between atoms: O_5  and  C_10 
REMARK    6  A    between atoms: O_6  and  C_13 
REMARK    7  A    between atoms: O_7  and  C_21 
REMARK    8  A    between atoms: C_11  and  C_13 
REMARK    9  A    between atoms: C_14  and  C_15 
REMARK   10  A    between atoms: C_15  and  C_16 
ROOT
HETATM    1  O   UNK     0     152.844 155.946 151.314  0.00  0.00    -0.348 OA
HETATM    2  C   UNK     0     155.112 154.903 152.735  0.00  0.00     0.183 C 
HETATM    3  C   UNK     0     155.087 156.317 152.154  0.00  0.00     0.180 C 
HETATM    4  C   UNK     0     154.104 153.997 152.027  0.00  0.00     0.204 C 
HETATM    5  C   UNK     0     153.654 156.846 152.072  0.00  0.00     0.179 C 
HETATM    6  C   UNK     0     152.732 154.662 151.925  0.00  0.00     0.291 C 
ENDROOT
BRANCH   5   7
HETATM    7  C   UNK     0     153.592 158.207 151.387  0.00  0.00     0.198 C 
BRANCH   7   8
HETATM    8  O   UNK     0     153.826 159.212 152.356  0.00  0.00    -0.398 OA
HETATM    9  H   UNK     0     154.364 159.905 151.938  0.00  0.00     0.209 HD
ENDBRANCH   7   8
ENDBRANCH   5   7
BRANCH   6  10
HETATM   10  O   UNK     0     151.895 153.823 151.133  0.00  0.00    -0.358 OA
BRANCH  10  11
HETATM   11  C   UNK     0     152.305 153.818 149.774  0.00  0.00     0.175 C 
BRANCH  11  12
HETATM   12  C   UNK     0     152.029 152.452 149.156  0.00  0.00     0.065 C 
BRANCH  12  13
HETATM   13  C   UNK     0     152.644 152.308 147.785  0.00  0.00    -0.056 A 
HETATM   14  C   UNK     0     153.232 151.107 147.427  0.00  0.00     0.010 A 
HETATM   15  C   UNK     0     153.799 150.974 146.160  0.00  0.00     0.037 A 
HETATM   16  C   UNK     0     153.771 152.046 145.267  0.00  0.00     0.065 A 
HETATM   17  C   UNK     0     153.174 153.249 145.641  0.00  0.00     0.037 A 
HETATM   18  C   UNK     0     152.607 153.381 146.909  0.00  0.00     0.010 A 
BRANCH  16  19
HETATM   19  O   UNK     0     154.324 151.915 144.030  0.00  0.00    -0.361 OA
HETATM   20  H   UNK     0     154.489 152.801 143.664  0.00  0.00     0.217 HD
ENDBRANCH  16  19
ENDBRANCH  12  13
ENDBRANCH  11  12
ENDBRANCH  10  11
ENDBRANCH   6  10
BRANCH   3  21
HETATM   21  O   UNK     0     155.861 157.181 152.982  0.00  0.00    -0.390 OA
HETATM   22  H   UNK     0     155.347 157.368 153.786  0.00  0.00     0.210 HD
ENDBRANCH   3  21
BRANCH   4  23
HETATM   23  O   UNK     0     153.959 152.783 152.766  0.00  0.00    -0.388 OA
HETATM   24  H   UNK     0     153.828 153.014 153.702  0.00  0.00     0.210 HD
ENDBRANCH   4  23
BRANCH   2  25
HETATM   25  O   UNK     0     156.428 154.378 152.562  0.00  0.00    -0.390 OA
HETATM   26  H   UNK     0     156.364 153.627 151.948  0.00  0.00     0.210 HD
ENDBRANCH   2  25
TORSDOF 10
ENDMDL
MODEL 8
REMARK VINA RESULT:      -6.9      1.524      3.196
REMARK  10 active torsions:
REMARK  status: ('A' for Active; 'I' for Inactive)
REMARK    1  A    between atoms: O_2  and  C_12 
REMARK    2  A    between atoms: O_2  and  C_14 
REMARK    3  A    between atoms: O_3  and  C_8 
REMARK    4  A    between atoms: O_4  and  C_9 
REMARK    5  A    between atoms: O_5  and  C_10 
REMARK    6  A    between atoms: O_6  and  C_13 
REMARK    7  A    between atoms: O_7  and  C_21 
REMARK    8  A    between atoms: C_11  and  C_13 
REMARK    9  A    between atoms: C_14  and  C_15 
REMARK   10  A    between atoms: C_15  and  C_16 
ROOT
HETATM    1  O   UNK     0     153.408 155.844 150.845  0.00  0.00    -0.348 OA
HETATM    2  C   UNK     0     155.199 157.679 152.140  0.00  0.00     0.183 C 
HETATM    3  C   UNK     0     155.131 156.197 152.513  0.00  0.00     0.180 C 
HETATM    4  C   UNK     0     153.907 158.139 151.464  0.00  0.00     0.204 C 
HETATM    5  C   UNK     0     154.665 155.358 151.321  0.00  0.00     0.179 C 
HETATM    6  C   UNK     0     153.490 157.179 150.350  0.00  0.00     0.291 C 
ENDROOT
BRANCH   5   7
HETATM    7  C   UNK     0     154.476 153.894 151.701  0.00  0.00     0.198 C 
BRANCH   7   8
HETATM    8  O   UNK     0     155.748 153.274 151.756  0.00  0.00    -0.398 OA
HETATM    9  H   UNK     0     156.414 153.976 151.841  0.00  0.00     0.209 HD
ENDBRANCH   7   8
ENDBRANCH   5   7
BRANCH   6  10
HETATM   10  O   UNK     0     152.212 157.593 149.870  0.00  0.00    -0.358 OA
BRANCH  10  11
HETATM   11  C   UNK     0     151.243 157.585 150.907  0.00  0.00     0.175 C 
BRANCH  11  12
HETATM   12  C   UNK     0     150.055 156.722 150.496  0.00  0.00     0.065 C 
BRANCH  12  13
HETATM   13  C   UNK     0     148.804 157.537 150.275  0.00  0.00    -0.056 A 
HETATM   14  C   UNK     0     147.628 156.894 149.926  0.00  0.00     0.010 A 
HETATM   15  C   UNK     0     146.471 157.647 149.722  0.00  0.00     0.037 A 
HETATM   16  C   UNK     0     146.507 159.034 149.869  0.00  0.00     0.065 A 
HETATM   17  C   UNK     0     147.698 159.667 150.221  0.00  0.00     0.037 A 
HETATM   18  C   UNK     0     148.854 158.914 150.425  0.00  0.00     0.010 A 
BRANCH  16  19
HETATM   19  O   UNK     0     145.378 159.768 149.670  0.00  0.00    -0.361 OA
HETATM   20  H   UNK     0     145.280 160.400 150.403  0.00  0.00     0.217 HD
ENDBRANCH  16  19
ENDBRANCH  12  13
ENDBRANCH  11  12
ENDBRANCH  10  11
ENDBRANCH   6  10
BRANCH   3  21
HETATM   21  O   UNK     0     156.423 155.755 152.923  0.00  0.00    -0.390 OA
HETATM   22  H   UNK     0     156.309 154.961 153.472  0.00  0.00     0.210 HD
ENDBRANCH   3  21
BRANCH   4  23
HETATM   23  O   UNK     0     154.107 159.431 150.890  0.00  0.00    -0.388 OA
HETATM   24  H   UNK     0     155.023 159.478 150.567  0.00  0.00     0.210 HD
ENDBRANCH   4  23
BRANCH   2  25
HETATM   25  O   UNK     0     155.401 158.427 153.339  0.00  0.00    -0.390 OA
HETATM   26  H   UNK     0     154.537 158.518 153.775  0.00  0.00     0.210 HD
ENDBRANCH   2  25
TORSDOF 10
ENDMDL
MODEL 9
REMARK VINA RESULT:      -6.9      1.124      2.787
REMARK  10 active torsions:
REMARK  status: ('A' for Active; 'I' for Inactive)
REMARK    1  A    between atoms: O_2  and  C_12 
REMARK    2  A    between atoms: O_2  and  C_14 
REMARK    3  A    between atoms: O_3  and  C_8 
REMARK    4  A    between atoms: O_4  and  C_9 
REMARK    5  A    between atoms: O_5  and  C_10 
REMARK    6  A    between atoms: O_6  and  C_13 
REMARK    7  A    between atoms: O_7  and  C_21 
REMARK    8  A    between atoms: C_11  and  C_13 
REMARK    9  A    between atoms: C_14  and  C_15 
REMARK   10  A    between atoms: C_15  and  C_16 
ROOT
HETATM    1  O   UNK     0     152.858 155.640 151.679  0.00  0.00    -0.348 OA
HETATM    2  C   UNK     0     154.857 157.602 152.315  0.00  0.00     0.183 C 
HETATM    3  C   UNK     0     155.010 156.126 152.682  0.00  0.00     0.180 C 
HETATM    4  C   UNK     0     153.388 157.971 152.108  0.00  0.00     0.204 C 
HETATM    5  C   UNK     0     154.229 155.240 151.709  0.00  0.00     0.179 C 
HETATM    6  C   UNK     0     152.686 156.969 151.191  0.00  0.00     0.291 C 
ENDROOT
BRANCH   5   7
HETATM    7  C   UNK     0     154.270 153.773 152.123  0.00  0.00     0.198 C 
BRANCH   7   8
HETATM    8  O   UNK     0     155.545 153.249 151.804  0.00  0.00    -0.398 OA
HETATM    9  H   UNK     0     156.188 153.648 152.413  0.00  0.00     0.209 HD
ENDBRANCH   7   8
ENDBRANCH   5   7
BRANCH   6  10
HETATM   10  O   UNK     0     151.298 157.297 151.164  0.00  0.00    -0.358 OA
BRANCH  10  11
HETATM   11  C   UNK     0     150.587 156.459 150.265  0.00  0.00     0.175 C 
BRANCH  11  12
HETATM   12  C   UNK     0     149.427 155.789 150.992  0.00  0.00     0.065 C 
BRANCH  12  13
HETATM   13  C   UNK     0     148.087 156.180 150.418  0.00  0.00    -0.056 A 
HETATM   14  C   UNK     0     147.187 155.190 150.060  0.00  0.00     0.010 A 
HETATM   15  C   UNK     0     145.949 155.551 149.529  0.00  0.00     0.037 A 
HETATM   16  C   UNK     0     145.628 156.899 149.363  0.00  0.00     0.065 A 
HETATM   17  C   UNK     0     146.544 157.885 149.728  0.00  0.00     0.037 A 
HETATM   18  C   UNK     0     147.782 157.523 150.259  0.00  0.00     0.010 A 
BRANCH  16  19
HETATM   19  O   UNK     0     144.419 157.251 148.845  0.00  0.00    -0.361 OA
HETATM   20  H   UNK     0     143.737 157.130 149.527  0.00  0.00     0.217 HD
ENDBRANCH  16  19
ENDBRANCH  12  13
ENDBRANCH  11  12
ENDBRANCH  10  11
ENDBRANCH   6  10
BRANCH   3  21
HETATM   21  O   UNK     0     156.390 155.770 152.638  0.00  0.00    -0.390 OA
HETATM   22  H   UNK     0     156.449 154.812 152.482  0.00  0.00     0.210 HD
ENDBRANCH   3  21
BRANCH   4  23
HETATM   23  O   UNK     0     153.304 159.263 151.506  0.00  0.00    -0.388 OA
HETATM   24  H   UNK     0     153.233 159.923 152.217  0.00  0.00     0.210 HD
ENDBRANCH   4  23
BRANCH   2  25
HETATM   25  O   UNK     0     155.398 158.381 153.382  0.00  0.00    -0.390 OA
HETATM   26  H   UNK     0     154.719 159.025 153.646  0.00  0.00     0.210 HD
ENDBRANCH   2  25
TORSDOF 10
ENDMDL
MODEL 10
REMARK VINA RESULT:      -6.8      1.662      3.525
REMARK  10 active torsions:
REMARK  status: ('A' for Active; 'I' for Inactive)
REMARK    1  A    between atoms: O_2  and  C_12 
REMARK    2  A    between atoms: O_2  and  C_14 
REMARK    3  A    between atoms: O_3  and  C_8 
REMARK    4  A    between atoms: O_4  and  C_9 
REMARK    5  A    between atoms: O_5  and  C_10 
REMARK    6  A    between atoms: O_6  and  C_13 
REMARK    7  A    between atoms: O_7  and  C_21 
REMARK    8  A    between atoms: C_11  and  C_13 
REMARK    9  A    between atoms: C_14  and  C_15 
REMARK   10  A    between atoms: C_15  and  C_16 
ROOT
HETATM    1  O   UNK     0     153.075 155.725 151.480  0.00  0.00    -0.348 OA
HETATM    2  C   UNK     0     155.724 155.248 152.483  0.00  0.00     0.183 C 
HETATM    3  C   UNK     0     154.749 154.113 152.169  0.00  0.00     0.180 C 
HETATM    4  C   UNK     0     154.982 156.563 152.729  0.00  0.00     0.204 C 
HETATM    5  C   UNK     0     153.757 154.534 151.083  0.00  0.00     0.179 C 
HETATM    6  C   UNK     0     153.956 156.836 151.629  0.00  0.00     0.291 C 
ENDROOT
BRANCH   5   7
HETATM    7  C   UNK     0     152.702 153.462 150.835  0.00  0.00     0.198 C 
BRANCH   7   8
HETATM    8  O   UNK     0     152.332 152.896 152.079  0.00  0.00    -0.398 OA
HETATM    9  H   UNK     0     151.953 152.018 151.902  0.00  0.00     0.209 HD
ENDBRANCH   7   8
ENDBRANCH   5   7
BRANCH   6  10
HETATM   10  O   UNK     0     153.212 157.995 152.002  0.00  0.00    -0.358 OA
BRANCH  10  11
HETATM   11  C   UNK     0     152.643 158.631 150.867  0.00  0.00     0.175 C 
BRANCH  11  12
HETATM   12  C   UNK     0     151.449 159.476 151.294  0.00  0.00     0.065 C 
BRANCH  12  13
HETATM   13  C   UNK     0     150.132 158.837 150.922  0.00  0.00    -0.056 A 
HETATM   14  C   UNK     0     150.090 157.482 150.640  0.00  0.00     0.010 A 
HETATM   15  C   UNK     0     148.874 156.892 150.296  0.00  0.00     0.037 A 
HETATM   16  C   UNK     0     147.715 157.668 150.239  0.00  0.00     0.065 A 
HETATM   17  C   UNK     0     147.773 159.031 150.525  0.00  0.00     0.037 A 
HETATM   18  C   UNK     0     148.989 159.620 150.869  0.00  0.00     0.010 A 
BRANCH  16  19
HETATM   19  O   UNK     0     146.528 157.092 149.903  0.00  0.00    -0.361 OA
HETATM   20  H   UNK     0     146.701 156.318 149.339  0.00  0.00     0.217 HD
ENDBRANCH  16  19
ENDBRANCH  12  13
ENDBRANCH  11  12
ENDBRANCH  10  11
ENDBRANCH   6  10
BRANCH   3  21
HETATM   21  O   UNK     0     155.481 152.974 151.723  0.00  0.00    -0.390 OA
HETATM   22  H   UNK     0     154.948 152.182 151.910  0.00  0.00     0.210 HD
ENDBRANCH   3  21
BRANCH   4  23
HETATM   23  O   UNK     0     155.919 157.640 152.745  0.00  0.00    -0.388 OA
HETATM   24  H   UNK     0     155.481 158.426 152.374  0.00  0.00     0.210 HD
ENDBRANCH   4  23
BRANCH   2  25
HETATM   25  O   UNK     0     156.457 154.890 153.655  0.00  0.00    -0.390 OA
HETATM   26  H   UNK     0     156.342 155.607 154.301  0.00  0.00     0.210 HD
ENDBRANCH   2  25
TORSDOF 10
ENDMDL
