REMARK VINA RESULT:      -7.3      8.092     11.501
REMARK  11 active torsions:
REMARK  status: ('A' for Active; 'I' for Inactive)
REMARK    1  A    between atoms: O_1  and  C_9 
REMARK    2  A    between atoms: O_2  and  C_19 
REMARK    3  A    between atoms: O_3  and  C_26 
REMARK    4  A    between atoms: O_4  and  C_27 
REMARK    5  A    between atoms: O_6  and  C_28 
REMARK    6  A    between atoms: O_7  and  C_32 
REMARK    7  A    between atoms: C_10  and  C_19 
REMARK    8  A    between atoms: C_19  and  C_27 
REMARK    9  A    between atoms: C_27  and  C_30 
REMARK   10  A    between atoms: C_30  and  C_31 
REMARK   11  A    between atoms: C_31  and  C_32 
ROOT
HETATM    1  O   UNK     0     181.239 177.871 173.107  0.00  0.00    -0.384 OA
HETATM    2  H   UNK     0     180.327 178.038 173.403  0.00  0.00     0.211 HD
ENDROOT
BRANCH   1   3
HETATM    3  C   UNK     0     181.275 178.037 171.671  0.00  0.00     0.089 C 
HETATM    4  C   UNK     0     179.893 177.662 171.075  0.00  0.00    -0.002 C 
HETATM    5  C   UNK     0     179.827 176.153 171.425  0.00  0.00     0.034 C 
HETATM    6  C   UNK     0     178.813 178.511 171.769  0.00  0.00     0.014 C 
HETATM    7  C   UNK     0     179.818 177.877 169.539  0.00  0.00     0.019 C 
HETATM    8  C   UNK     0     181.268 175.654 171.169  0.00  0.00     0.012 C 
HETATM    9  C   UNK     0     182.172 176.905 171.148  0.00  0.00     0.044 C 
HETATM   10  C   UNK     0     179.078 180.012 171.570  0.00  0.00     0.011 C 
HETATM   11  C   UNK     0     180.527 180.480 171.912  0.00  0.00     0.027 C 
HETATM   12  C   UNK     0     180.799 181.969 171.461  0.00  0.00    -0.023 C 
HETATM   13  C   UNK     0     181.607 179.496 171.438  0.00  0.00    -0.037 C 
HETATM   14  C   UNK     0     182.304 182.314 171.642  0.00  0.00     0.071 C 
HETATM   15  C   UNK     0     179.958 182.981 172.289  0.00  0.00     0.044 C 
HETATM   16  C   UNK     0     180.432 182.190 169.968  0.00  0.00     0.016 C 
HETATM   17  C   UNK     0     182.737 182.422 173.114  0.00  0.00     0.047 C 
HETATM   18  C   UNK     0     183.187 181.307 170.929  0.00  0.00     0.154 C 
HETATM   19  C   UNK     0     181.880 183.426 173.883  0.00  0.00     0.147 C 
HETATM   20  C   UNK     0     180.394 183.088 173.755  0.00  0.00     0.147 C 
HETATM   21  O   UNK     0     184.247 181.638 170.400  0.00  0.00    -0.293 OA
HETATM   22  C   UNK     0     182.795 179.880 170.946  0.00  0.00     0.057 C 
BRANCH   5  23
HETATM   23  C   UNK     0     178.778 175.329 170.689  0.00  0.00     0.084 C 
HETATM   24  C   UNK     0     179.248 175.048 169.252  0.00  0.00     0.049 C 
BRANCH  23  25
HETATM   25  O   UNK     0     178.649 174.064 171.352  0.00  0.00    -0.387 OA
HETATM   26  H   UNK     0     177.790 174.033 171.806  0.00  0.00     0.210 HD
ENDBRANCH  23  25
BRANCH  23  27
HETATM   27  C   UNK     0     177.386 176.018 170.687  0.00  0.00     0.152 C 
BRANCH  27  28
HETATM   28  O   UNK     0     176.582 175.480 171.742  0.00  0.00    -0.393 OA
HETATM   29  H   UNK     0     176.908 174.581 171.926  0.00  0.00     0.210 HD
ENDBRANCH  27  28
BRANCH  27  30
HETATM   30  C   UNK     0     176.610 175.872 169.364  0.00  0.00     0.037 C 
BRANCH  30  31
HETATM   31  C   UNK     0     175.327 176.723 169.349  0.00  0.00     0.040 C 
BRANCH  31  32
HETATM   32  C   UNK     0     175.471 178.086 168.641  0.00  0.00     0.051 C 
HETATM   33  C   UNK     0     174.264 178.318 167.726  0.00  0.00     0.045 C 
HETATM   34  C   UNK     0     175.609 179.249 169.627  0.00  0.00     0.045 C 
BRANCH  32  35
HETATM   35  O   UNK     0     176.641 178.046 167.822  0.00  0.00    -0.391 OA
HETATM   36  H   UNK     0     176.368 178.204 166.902  0.00  0.00     0.210 HD
ENDBRANCH  32  35
ENDBRANCH  31  32
ENDBRANCH  30  31
ENDBRANCH  27  30
ENDBRANCH  23  27
ENDBRANCH   5  23
BRANCH  19  37
HETATM   37  O   UNK     0     182.112 184.736 173.362  0.00  0.00    -0.393 OA
HETATM   38  H   UNK     0     181.890 184.719 172.416  0.00  0.00     0.210 HD
ENDBRANCH  19  37
BRANCH  20  39
HETATM   39  O   UNK     0     179.630 184.099 174.408  0.00  0.00    -0.393 OA
HETATM   40  H   UNK     0     180.106 184.346 175.220  0.00  0.00     0.210 HD
ENDBRANCH  20  39
ENDBRANCH   1   3
TORSDOF 11
