REMARK VINA RESULT:      -7.3     15.077     17.819
REMARK  11 active torsions:
REMARK  status: ('A' for Active; 'I' for Inactive)
REMARK    1  A    between atoms: O_1  and  C_9 
REMARK    2  A    between atoms: O_2  and  C_19 
REMARK    3  A    between atoms: O_3  and  C_26 
REMARK    4  A    between atoms: O_4  and  C_27 
REMARK    5  A    between atoms: O_6  and  C_28 
REMARK    6  A    between atoms: O_7  and  C_32 
REMARK    7  A    between atoms: C_10  and  C_19 
REMARK    8  A    between atoms: C_19  and  C_27 
REMARK    9  A    between atoms: C_27  and  C_30 
REMARK   10  A    between atoms: C_30  and  C_31 
REMARK   11  A    between atoms: C_31  and  C_32 
ROOT
HETATM    1  O   UNK     0     174.772 171.151 170.746  0.00  0.00    -0.384 OA
HETATM    2  H   UNK     0     174.053 171.064 170.095  0.00  0.00     0.211 HD
ENDROOT
BRANCH   1   3
HETATM    3  C   UNK     0     174.672 172.466 171.340  0.00  0.00     0.089 C 
HETATM    4  C   UNK     0     175.526 173.468 170.519  0.00  0.00    -0.002 C 
HETATM    5  C   UNK     0     176.947 172.895 170.753  0.00  0.00     0.034 C 
HETATM    6  C   UNK     0     175.066 173.416 169.051  0.00  0.00     0.014 C 
HETATM    7  C   UNK     0     175.423 174.924 171.048  0.00  0.00     0.019 C 
HETATM    8  C   UNK     0     176.936 172.476 172.241  0.00  0.00     0.012 C 
HETATM    9  C   UNK     0     175.452 172.380 172.661  0.00  0.00     0.044 C 
HETATM   10  C   UNK     0     173.576 173.773 168.927  0.00  0.00     0.011 C 
HETATM   11  C   UNK     0     172.625 172.994 169.886  0.00  0.00     0.027 C 
HETATM   12  C   UNK     0     171.156 173.574 169.879  0.00  0.00    -0.023 C 
HETATM   13  C   UNK     0     173.201 172.821 171.300  0.00  0.00    -0.037 C 
HETATM   14  C   UNK     0     170.309 172.894 170.991  0.00  0.00     0.071 C 
HETATM   15  C   UNK     0     170.454 173.339 168.511  0.00  0.00     0.044 C 
HETATM   16  C   UNK     0     171.146 175.106 170.136  0.00  0.00     0.016 C 
HETATM   17  C   UNK     0     169.988 171.417 170.702  0.00  0.00     0.047 C 
HETATM   18  C   UNK     0     170.985 173.009 172.343  0.00  0.00     0.154 C 
HETATM   19  C   UNK     0     169.303 171.241 169.348  0.00  0.00     0.147 C 
HETATM   20  C   UNK     0     170.134 171.867 168.229  0.00  0.00     0.147 C 
HETATM   21  O   UNK     0     170.337 173.140 173.381  0.00  0.00    -0.293 OA
HETATM   22  C   UNK     0     172.457 172.878 172.415  0.00  0.00     0.057 C 
BRANCH   5  23
HETATM   23  C   UNK     0     178.116 173.810 170.406  0.00  0.00     0.084 C 
HETATM   24  C   UNK     0     179.045 173.111 169.400  0.00  0.00     0.049 C 
BRANCH  23  25
HETATM   25  O   UNK     0     177.597 174.984 169.766  0.00  0.00    -0.387 OA
HETATM   26  H   UNK     0     177.013 174.714 169.039  0.00  0.00     0.210 HD
ENDBRANCH  23  25
BRANCH  23  27
HETATM   27  C   UNK     0     178.907 174.255 171.666  0.00  0.00     0.152 C 
BRANCH  27  28
HETATM   28  O   UNK     0     178.987 175.684 171.703  0.00  0.00    -0.393 OA
HETATM   29  H   UNK     0     179.262 175.982 170.818  0.00  0.00     0.210 HD
ENDBRANCH  27  28
BRANCH  27  30
HETATM   30  C   UNK     0     180.337 173.687 171.749  0.00  0.00     0.037 C 
BRANCH  30  31
HETATM   31  C   UNK     0     181.404 174.791 171.626  0.00  0.00     0.040 C 
BRANCH  31  32
HETATM   32  C   UNK     0     182.392 174.599 170.457  0.00  0.00     0.051 C 
HETATM   33  C   UNK     0     182.641 173.103 170.237  0.00  0.00     0.045 C 
HETATM   34  C   UNK     0     181.898 175.242 169.159  0.00  0.00     0.045 C 
BRANCH  32  35
HETATM   35  O   UNK     0     183.637 175.202 170.816  0.00  0.00    -0.391 OA
HETATM   36  H   UNK     0     183.564 176.158 170.654  0.00  0.00     0.210 HD
ENDBRANCH  32  35
ENDBRANCH  31  32
ENDBRANCH  30  31
ENDBRANCH  27  30
ENDBRANCH  23  27
ENDBRANCH   5  23
BRANCH  19  37
HETATM   37  O   UNK     0     168.019 171.867 169.389  0.00  0.00    -0.393 OA
HETATM   38  H   UNK     0     167.818 172.181 168.491  0.00  0.00     0.210 HD
ENDBRANCH  19  37
BRANCH  20  39
HETATM   39  O   UNK     0     169.416 171.761 167.002  0.00  0.00    -0.393 OA
HETATM   40  H   UNK     0     170.055 171.876 166.278  0.00  0.00     0.210 HD
ENDBRANCH  20  39
ENDBRANCH   1   3
TORSDOF 11
