REMARK  13 active torsions:
REMARK  status: ('A' for Active; 'I' for Inactive)
REMARK    1  A    between atoms: O_2  and  C_16 
REMARK    2  A    between atoms: O_2  and  C_17 
REMARK    3  A    between atoms: O_4  and  C_12 
REMARK    4  A    between atoms: O_5  and  C_13 
REMARK    5  A    between atoms: O_6  and  C_15 
REMARK    6  A    between atoms: O_6  and  C_22 
REMARK    7  A    between atoms: O_7  and  C_14 
REMARK    8  A    between atoms: O_8  and  C_18 
REMARK    9  A    between atoms: O_9  and  C_19 
REMARK   10  A    between atoms: O_10  and  C_20 
REMARK   11  A    between atoms: C_11  and  C_16 
REMARK   12  A    between atoms: C_22  and  C_23 
REMARK   13  A    between atoms: C_24  and  C_25 
ROOT
HETATM    1  O   UNK     0       0.955  -1.196   0.577  0.00  0.00    -0.348 OA
HETATM    2  C   UNK     0       2.185  -1.717   1.083  0.00  0.00     0.180 C 
HETATM    3  C   UNK     0       2.831  -2.635   0.042  0.00  0.00     0.180 C 
HETATM    4  C   UNK     0       1.869  -3.748  -0.371  0.00  0.00     0.183 C 
HETATM    5  C   UNK     0       0.495  -3.185  -0.737  0.00  0.00     0.204 C 
HETATM    6  C   UNK     0      -0.010  -2.215   0.330  0.00  0.00     0.291 C 
ENDROOT
BRANCH   2   7
HETATM    7  C   UNK     0       3.082  -0.531   1.425  0.00  0.00     0.205 C 
BRANCH   7   8
HETATM    8  O   UNK     0       3.323   0.207   0.241  0.00  0.00    -0.356 OA
BRANCH   8   9
HETATM    9  C   UNK     0       4.158   1.335   0.483  0.00  0.00     0.290 C 
HETATM   10  O   UNK     0       3.627   2.186   1.505  0.00  0.00    -0.356 OA
HETATM   11  C   UNK     0       2.411   2.834   1.139  0.00  0.00     0.205 C 
HETATM   12  C   UNK     0       2.621   3.719  -0.083  0.00  0.00     0.173 C 
HETATM   13  C   UNK     0       3.155   2.898  -1.258  0.00  0.00     0.182 C 
HETATM   14  C   UNK     0       4.392   2.103  -0.827  0.00  0.00     0.204 C 
BRANCH  12  15
HETATM   15  O   UNK     0       1.404   4.352  -0.451  0.00  0.00    -0.391 OA
HETATM   16  H   UNK     0       1.093   4.861   0.318  0.00  0.00     0.210 HD
ENDBRANCH  12  15
BRANCH  13  17
HETATM   17  O   UNK     0       2.141   1.999  -1.704  0.00  0.00    -0.390 OA
HETATM   18  H   UNK     0       2.504   1.497  -2.454  0.00  0.00     0.210 HD
ENDBRANCH  13  17
BRANCH  14  19
HETATM   19  O   UNK     0       5.483   2.999  -0.624  0.00  0.00    -0.388 OA
HETATM   20  H   UNK     0       5.320   3.501   0.192  0.00  0.00     0.210 HD
ENDBRANCH  14  19
ENDBRANCH   8   9
ENDBRANCH   7   8
ENDBRANCH   2   7
BRANCH   6  21
HETATM   21  O   UNK     0      -1.220  -1.628  -0.147  0.00  0.00    -0.355 OA
BRANCH  21  22
HETATM   22  C   UNK     0      -1.755  -0.710   0.794  0.00  0.00     0.198 C 
BRANCH  22  23
HETATM   23  C   UNK     0      -3.016  -0.131   0.237  0.00  0.00     0.000 C 
HETATM   24  C   UNK     0      -4.206  -0.232   0.849  0.00  0.00     0.009 C 
BRANCH  24  25
HETATM   25  C   UNK     0      -5.470   0.334   0.347  0.00  0.00    -0.036 A 
HETATM   26  C   UNK     0      -5.584   0.656  -0.996  0.00  0.00     0.011 A 
HETATM   27  C   UNK     0      -6.781   1.192  -1.472  0.00  0.00     0.001 A 
HETATM   28  C   UNK     0      -7.848   1.398  -0.598  0.00  0.00     0.000 A 
HETATM   29  C   UNK     0      -7.719   1.069   0.751  0.00  0.00     0.001 A 
HETATM   30  C   UNK     0      -6.522   0.533   1.227  0.00  0.00     0.011 A 
ENDBRANCH  24  25
ENDBRANCH  22  23
ENDBRANCH  21  22
ENDBRANCH   6  21
BRANCH   3  31
HETATM   31  O   UNK     0       4.013  -3.212   0.591  0.00  0.00    -0.390 OA
HETATM   32  H   UNK     0       3.760  -3.716   1.384  0.00  0.00     0.210 HD
ENDBRANCH   3  31
BRANCH   5  33
HETATM   33  O   UNK     0      -0.441  -4.257  -0.848  0.00  0.00    -0.388 OA
HETATM   34  H   UNK     0      -0.490  -4.705   0.013  0.00  0.00     0.210 HD
ENDBRANCH   5  33
BRANCH   4  35
HETATM   35  O   UNK     0       2.427  -4.416  -1.504  0.00  0.00    -0.390 OA
HETATM   36  H   UNK     0       3.302  -4.750  -1.243  0.00  0.00     0.210 HD
ENDBRANCH   4  35
TORSDOF 13
