MODEL 1
REMARK VINA RESULT:      -8.6      0.000      0.000
REMARK  5 active torsions:
REMARK  status: ('A' for Active; 'I' for Inactive)
REMARK    1  A    between atoms: O_2  and  C_13 
REMARK    2  A    between atoms: O_4  and  C_16 
REMARK    3  A    between atoms: O_5  and  C_19 
REMARK    4  A    between atoms: O_6  and  C_21 
REMARK    5  A    between atoms: C_9  and  C_10 
ROOT
HETATM    1  O   UNK     0       4.478  43.970  22.880  0.00  0.00    -0.309 OA
HETATM    2  O   UNK     0       1.983  41.395  20.945  0.00  0.00    -0.287 OA
HETATM    3  C   UNK     0       2.919  42.110  22.993  0.00  0.00     0.081 A 
HETATM    4  C   UNK     0       3.787  43.021  23.591  0.00  0.00     0.095 A 
HETATM    5  C   UNK     0       4.310  44.016  21.505  0.00  0.00     0.090 A 
HETATM    6  C   UNK     0       2.731  42.162  21.535  0.00  0.00     0.190 A 
HETATM    7  C   UNK     0       3.499  43.198  20.815  0.00  0.00     0.094 A 
HETATM    8  C   UNK     0       2.242  41.166  23.769  0.00  0.00     0.085 A 
HETATM    9  C   UNK     0       3.983  42.995  24.972  0.00  0.00     0.075 A 
HETATM   10  C   UNK     0       3.308  42.054  25.750  0.00  0.00     0.071 A 
HETATM   11  C   UNK     0       2.440  41.142  25.150  0.00  0.00     0.074 A 
ENDROOT
BRANCH   5  12
HETATM   12  C   UNK     0       5.093  45.075  20.839  0.00  0.00     0.001 A 
HETATM   13  C   UNK     0       6.266  44.755  20.152  0.00  0.00     0.053 A 
HETATM   14  C   UNK     0       7.007  45.755  19.524  0.00  0.00     0.099 A 
HETATM   15  C   UNK     0       6.576  47.081  19.579  0.00  0.00     0.098 A 
HETATM   16  C   UNK     0       5.406  47.406  20.265  0.00  0.00     0.040 A 
HETATM   17  C   UNK     0       4.665  46.404  20.894  0.00  0.00     0.017 A 
BRANCH  14  18
HETATM   18  O   UNK     0       8.149  45.427  18.857  0.00  0.00    -0.358 OA
HETATM   19  H   UNK     0       7.903  45.029  18.005  0.00  0.00     0.217 HD
ENDBRANCH  14  18
BRANCH  15  20
HETATM   20  O   UNK     0       7.290  48.067  18.969  0.00  0.00    -0.358 OA
HETATM   21  H   UNK     0       6.804  48.905  19.048  0.00  0.00     0.217 HD
ENDBRANCH  15  20
ENDBRANCH   5  12
BRANCH   8  22
HETATM   22  O   UNK     0       1.384  40.255  23.231  0.00  0.00    -0.360 OA
HETATM   23  H   UNK     0       1.310  40.382  22.273  0.00  0.00     0.217 HD
ENDBRANCH   8  22
BRANCH  10  24
HETATM   24  O   UNK     0       3.497  42.025  27.099  0.00  0.00    -0.361 OA
HETATM   25  H   UNK     0       2.845  42.610  27.521  0.00  0.00     0.217 HD
ENDBRANCH  10  24
TORSDOF 5
ENDMDL
MODEL 2
REMARK VINA RESULT:      -8.5      1.157      2.690
REMARK  5 active torsions:
REMARK  status: ('A' for Active; 'I' for Inactive)
REMARK    1  A    between atoms: O_2  and  C_13 
REMARK    2  A    between atoms: O_4  and  C_16 
REMARK    3  A    between atoms: O_5  and  C_19 
REMARK    4  A    between atoms: O_6  and  C_21 
REMARK    5  A    between atoms: C_9  and  C_10 
ROOT
HETATM    1  O   UNK     0       4.232  43.467  21.783  0.00  0.00    -0.309 OA
HETATM    2  O   UNK     0       4.363  43.775  25.843  0.00  0.00    -0.287 OA
HETATM    3  C   UNK     0       3.621  42.566  23.954  0.00  0.00     0.081 A 
HETATM    4  C   UNK     0       3.616  42.521  22.562  0.00  0.00     0.095 A 
HETATM    5  C   UNK     0       4.882  44.519  22.412  0.00  0.00     0.090 A 
HETATM    6  C   UNK     0       4.317  43.675  24.626  0.00  0.00     0.190 A 
HETATM    7  C   UNK     0       4.962  44.669  23.744  0.00  0.00     0.094 A 
HETATM    8  C   UNK     0       2.976  41.573  24.695  0.00  0.00     0.085 A 
HETATM    9  C   UNK     0       2.965  41.479  21.900  0.00  0.00     0.075 A 
HETATM   10  C   UNK     0       2.320  40.486  22.637  0.00  0.00     0.071 A 
HETATM   11  C   UNK     0       2.326  40.533  24.031  0.00  0.00     0.074 A 
ENDROOT
BRANCH   5  12
HETATM   12  C   UNK     0       5.514  45.475  21.483  0.00  0.00     0.001 A 
HETATM   13  C   UNK     0       6.879  45.382  21.200  0.00  0.00     0.053 A 
HETATM   14  C   UNK     0       7.477  46.285  20.322  0.00  0.00     0.099 A 
HETATM   15  C   UNK     0       6.712  47.287  19.724  0.00  0.00     0.098 A 
HETATM   16  C   UNK     0       5.349  47.384  20.004  0.00  0.00     0.040 A 
HETATM   17  C   UNK     0       4.751  46.480  20.882  0.00  0.00     0.017 A 
BRANCH  14  18
HETATM   18  O   UNK     0       8.810  46.182  20.057  0.00  0.00    -0.358 OA
HETATM   19  H   UNK     0       8.962  45.347  19.582  0.00  0.00     0.217 HD
ENDBRANCH  14  18
BRANCH  15  20
HETATM   20  O   UNK     0       7.284  48.175  18.864  0.00  0.00    -0.358 OA
HETATM   21  H   UNK     0       8.144  47.826  18.575  0.00  0.00     0.217 HD
ENDBRANCH  15  20
ENDBRANCH   5  12
BRANCH   8  22
HETATM   22  O   UNK     0       2.953  41.573  26.057  0.00  0.00    -0.360 OA
HETATM   23  H   UNK     0       2.972  40.665  26.398  0.00  0.00     0.217 HD
ENDBRANCH   8  22
BRANCH  10  24
HETATM   24  O   UNK     0       1.684  39.467  21.994  0.00  0.00    -0.361 OA
HETATM   25  H   UNK     0       2.091  39.342  21.120  0.00  0.00     0.217 HD
ENDBRANCH  10  24
TORSDOF 5
ENDMDL
MODEL 3
REMARK VINA RESULT:      -7.9      1.301      3.013
REMARK  5 active torsions:
REMARK  status: ('A' for Active; 'I' for Inactive)
REMARK    1  A    between atoms: O_2  and  C_13 
REMARK    2  A    between atoms: O_4  and  C_16 
REMARK    3  A    between atoms: O_5  and  C_19 
REMARK    4  A    between atoms: O_6  and  C_21 
REMARK    5  A    between atoms: C_9  and  C_10 
ROOT
HETATM    1  O   UNK     0       4.079  42.810  21.809  0.00  0.00    -0.309 OA
HETATM    2  O   UNK     0       4.011  43.347  25.847  0.00  0.00    -0.287 OA
HETATM    3  C   UNK     0       3.340  42.045  23.993  0.00  0.00     0.081 A 
HETATM    4  C   UNK     0       3.405  41.920  22.607  0.00  0.00     0.095 A 
HETATM    5  C   UNK     0       4.717  43.884  22.411  0.00  0.00     0.090 A 
HETATM    6  C   UNK     0       4.024  43.178  24.636  0.00  0.00     0.190 A 
HETATM    7  C   UNK     0       4.733  44.109  23.734  0.00  0.00     0.094 A 
HETATM    8  C   UNK     0       2.639  41.107  24.755  0.00  0.00     0.085 A 
HETATM    9  C   UNK     0       2.767  40.854  21.972  0.00  0.00     0.075 A 
HETATM   10  C   UNK     0       2.066  39.916  22.729  0.00  0.00     0.071 A 
HETATM   11  C   UNK     0       2.002  40.042  24.117  0.00  0.00     0.074 A 
ENDROOT
BRANCH   5  12
HETATM   12  C   UNK     0       5.415  44.775  21.463  0.00  0.00     0.001 A 
HETATM   13  C   UNK     0       4.962  46.081  21.263  0.00  0.00     0.053 A 
HETATM   14  C   UNK     0       5.621  46.923  20.368  0.00  0.00     0.099 A 
HETATM   15  C   UNK     0       6.737  46.461  19.669  0.00  0.00     0.098 A 
HETATM   16  C   UNK     0       7.192  45.158  19.865  0.00  0.00     0.040 A 
HETATM   17  C   UNK     0       6.532  44.316  20.761  0.00  0.00     0.017 A 
BRANCH  14  18
HETATM   18  O   UNK     0       5.167  48.194  20.183  0.00  0.00    -0.358 OA
HETATM   19  H   UNK     0       5.550  48.759  20.876  0.00  0.00     0.217 HD
ENDBRANCH  14  18
BRANCH  15  20
HETATM   20  O   UNK     0       7.390  47.274  18.793  0.00  0.00    -0.358 OA
HETATM   21  H   UNK     0       6.750  47.882  18.388  0.00  0.00     0.217 HD
ENDBRANCH  15  20
ENDBRANCH   5  12
BRANCH   8  22
HETATM   22  O   UNK     0       2.548  41.185  26.111  0.00  0.00    -0.360 OA
HETATM   23  H   UNK     0       1.746  40.738  26.424  0.00  0.00     0.217 HD
ENDBRANCH   8  22
BRANCH  10  24
HETATM   24  O   UNK     0       1.442  38.873  22.113  0.00  0.00    -0.361 OA
HETATM   25  H   UNK     0       1.967  38.603  21.340  0.00  0.00     0.217 HD
ENDBRANCH  10  24
TORSDOF 5
ENDMDL
MODEL 4
REMARK VINA RESULT:      -7.5      1.795      6.780
REMARK  5 active torsions:
REMARK  status: ('A' for Active; 'I' for Inactive)
REMARK    1  A    between atoms: O_2  and  C_13 
REMARK    2  A    between atoms: O_4  and  C_16 
REMARK    3  A    between atoms: O_5  and  C_19 
REMARK    4  A    between atoms: O_6  and  C_21 
REMARK    5  A    between atoms: C_9  and  C_10 
ROOT
HETATM    1  O   UNK     0       5.580  44.041  22.203  0.00  0.00    -0.309 OA
HETATM    2  O   UNK     0       4.077  43.110  18.533  0.00  0.00    -0.287 OA
HETATM    3  C   UNK     0       5.673  44.314  19.791  0.00  0.00     0.081 A 
HETATM    4  C   UNK     0       6.138  44.588  21.076  0.00  0.00     0.095 A 
HETATM    5  C   UNK     0       4.501  43.183  22.056  0.00  0.00     0.090 A 
HETATM    6  C   UNK     0       4.534  43.397  19.630  0.00  0.00     0.190 A 
HETATM    7  C   UNK     0       3.967  42.836  20.874  0.00  0.00     0.094 A 
HETATM    8  C   UNK     0       6.281  44.901  18.679  0.00  0.00     0.085 A 
HETATM    9  C   UNK     0       7.218  45.453  21.256  0.00  0.00     0.075 A 
HETATM   10  C   UNK     0       7.828  46.041  20.148  0.00  0.00     0.071 A 
HETATM   11  C   UNK     0       7.361  45.766  18.863  0.00  0.00     0.074 A 
ENDROOT
BRANCH   5  12
HETATM   12  C   UNK     0       3.982  42.647  23.329  0.00  0.00     0.001 A 
HETATM   13  C   UNK     0       4.438  43.162  24.546  0.00  0.00     0.053 A 
HETATM   14  C   UNK     0       3.947  42.655  25.749  0.00  0.00     0.099 A 
HETATM   15  C   UNK     0       2.998  41.632  25.740  0.00  0.00     0.098 A 
HETATM   16  C   UNK     0       2.542  41.115  24.528  0.00  0.00     0.040 A 
HETATM   17  C   UNK     0       3.032  41.622  23.325  0.00  0.00     0.017 A 
BRANCH  14  18
HETATM   18  O   UNK     0       4.402  43.167  26.927  0.00  0.00    -0.358 OA
HETATM   19  H   UNK     0       4.445  42.445  27.577  0.00  0.00     0.217 HD
ENDBRANCH  14  18
BRANCH  15  20
HETATM   20  O   UNK     0       2.511  41.130  26.909  0.00  0.00    -0.358 OA
HETATM   21  H   UNK     0       2.397  40.169  26.817  0.00  0.00     0.217 HD
ENDBRANCH  15  20
ENDBRANCH   5  12
BRANCH   8  22
HETATM   22  O   UNK     0       5.864  44.664  17.405  0.00  0.00    -0.360 OA
HETATM   23  H   UNK     0       6.214  43.819  17.083  0.00  0.00     0.217 HD
ENDBRANCH   8  22
BRANCH  10  24
HETATM   24  O   UNK     0       8.883  46.885  20.321  0.00  0.00    -0.361 OA
HETATM   25  H   UNK     0       8.571  47.802  20.236  0.00  0.00     0.217 HD
ENDBRANCH  10  24
TORSDOF 5
ENDMDL
MODEL 5
REMARK VINA RESULT:      -7.3     22.802     24.297
REMARK  5 active torsions:
REMARK  status: ('A' for Active; 'I' for Inactive)
REMARK    1  A    between atoms: O_2  and  C_13 
REMARK    2  A    between atoms: O_4  and  C_16 
REMARK    3  A    between atoms: O_5  and  C_19 
REMARK    4  A    between atoms: O_6  and  C_21 
REMARK    5  A    between atoms: C_9  and  C_10 
ROOT
HETATM    1  O   UNK     0      -8.202  47.766   1.933  0.00  0.00    -0.309 OA
HETATM    2  O   UNK     0     -10.623  47.860   5.208  0.00  0.00    -0.287 OA
HETATM    3  C   UNK     0      -9.010  46.679   3.949  0.00  0.00     0.081 A 
HETATM    4  C   UNK     0      -8.207  46.712   2.811  0.00  0.00     0.095 A 
HETATM    5  C   UNK     0      -9.040  48.841   2.187  0.00  0.00     0.090 A 
HETATM    6  C   UNK     0      -9.894  47.822   4.227  0.00  0.00     0.190 A 
HETATM    7  C   UNK     0      -9.854  48.930   3.251  0.00  0.00     0.094 A 
HETATM    8  C   UNK     0      -8.973  45.578   4.808  0.00  0.00     0.085 A 
HETATM    9  C   UNK     0      -7.359  45.642   2.524  0.00  0.00     0.075 A 
HETATM   10  C   UNK     0      -7.319  44.541   3.380  0.00  0.00     0.071 A 
HETATM   11  C   UNK     0      -8.124  44.509   4.518  0.00  0.00     0.074 A 
ENDROOT
BRANCH   5  12
HETATM   12  C   UNK     0      -8.952  49.921   1.185  0.00  0.00     0.001 A 
HETATM   13  C   UNK     0      -7.780  50.100   0.446  0.00  0.00     0.053 A 
HETATM   14  C   UNK     0      -7.697  51.120  -0.501  0.00  0.00     0.099 A 
HETATM   15  C   UNK     0      -8.787  51.966  -0.713  0.00  0.00     0.098 A 
HETATM   16  C   UNK     0      -9.958  51.792   0.024  0.00  0.00     0.040 A 
HETATM   17  C   UNK     0     -10.041  50.771   0.971  0.00  0.00     0.017 A 
BRANCH  14  18
HETATM   18  O   UNK     0      -6.547  51.282  -1.214  0.00  0.00    -0.358 OA
HETATM   19  H   UNK     0      -6.446  52.227  -1.421  0.00  0.00     0.217 HD
ENDBRANCH  14  18
BRANCH  15  20
HETATM   20  O   UNK     0      -8.718  52.966  -1.635  0.00  0.00    -0.358 OA
HETATM   21  H   UNK     0      -7.924  53.500  -1.465  0.00  0.00     0.217 HD
ENDBRANCH  15  20
ENDBRANCH   5  12
BRANCH   8  22
HETATM   22  O   UNK     0      -9.738  45.499   5.932  0.00  0.00    -0.360 OA
HETATM   23  H   UNK     0      -9.380  46.071   6.628  0.00  0.00     0.217 HD
ENDBRANCH   8  22
BRANCH  10  24
HETATM   24  O   UNK     0      -6.492  43.495   3.103  0.00  0.00    -0.361 OA
HETATM   25  H   UNK     0      -6.210  43.086   3.939  0.00  0.00     0.217 HD
ENDBRANCH  10  24
TORSDOF 5
ENDMDL
MODEL 6
REMARK VINA RESULT:      -7.2     29.322     30.169
REMARK  5 active torsions:
REMARK  status: ('A' for Active; 'I' for Inactive)
REMARK    1  A    between atoms: O_2  and  C_13 
REMARK    2  A    between atoms: O_4  and  C_16 
REMARK    3  A    between atoms: O_5  and  C_19 
REMARK    4  A    between atoms: O_6  and  C_21 
REMARK    5  A    between atoms: C_9  and  C_10 
ROOT
HETATM    1  O   UNK     0      16.024  67.174   7.476  0.00  0.00    -0.309 OA
HETATM    2  O   UNK     0      13.893  68.963  10.452  0.00  0.00    -0.287 OA
HETATM    3  C   UNK     0      14.014  68.346   8.175  0.00  0.00     0.081 A 
HETATM    4  C   UNK     0      14.794  67.719   7.206  0.00  0.00     0.095 A 
HETATM    5  C   UNK     0      16.513  67.258   8.771  0.00  0.00     0.090 A 
HETATM    6  C   UNK     0      14.526  68.430   9.552  0.00  0.00     0.190 A 
HETATM    7  C   UNK     0      15.854  67.831   9.792  0.00  0.00     0.094 A 
HETATM    8  C   UNK     0      12.769  68.883   7.841  0.00  0.00     0.085 A 
HETATM    9  C   UNK     0      14.333  67.625   5.893  0.00  0.00     0.075 A 
HETATM   10  C   UNK     0      13.089  68.160   5.555  0.00  0.00     0.071 A 
HETATM   11  C   UNK     0      12.310  68.788   6.527  0.00  0.00     0.074 A 
ENDROOT
BRANCH   5  12
HETATM   12  C   UNK     0      17.839  66.636   8.954  0.00  0.00     0.001 A 
HETATM   13  C   UNK     0      18.358  66.453  10.238  0.00  0.00     0.053 A 
HETATM   14  C   UNK     0      19.610  65.865  10.410  0.00  0.00     0.099 A 
HETATM   15  C   UNK     0      20.349  65.457   9.299  0.00  0.00     0.098 A 
HETATM   16  C   UNK     0      19.835  65.639   8.016  0.00  0.00     0.040 A 
HETATM   17  C   UNK     0      18.582  66.228   7.843  0.00  0.00     0.017 A 
BRANCH  14  18
HETATM   18  O   UNK     0      20.103  65.693  11.669  0.00  0.00    -0.358 OA
HETATM   19  H   UNK     0      19.901  66.490  12.188  0.00  0.00     0.217 HD
ENDBRANCH  14  18
BRANCH  15  20
HETATM   20  O   UNK     0      21.573  64.881   9.455  0.00  0.00    -0.358 OA
HETATM   21  H   UNK     0      21.472  64.055   9.957  0.00  0.00     0.217 HD
ENDBRANCH  15  20
ENDBRANCH   5  12
BRANCH   8  22
HETATM   22  O   UNK     0      11.970  69.505   8.752  0.00  0.00    -0.360 OA
HETATM   23  H   UNK     0      11.818  70.428   8.497  0.00  0.00     0.217 HD
ENDBRANCH   8  22
BRANCH  10  24
HETATM   24  O   UNK     0      12.635  68.069   4.274  0.00  0.00    -0.361 OA
HETATM   25  H   UNK     0      12.359  68.951   3.974  0.00  0.00     0.217 HD
ENDBRANCH  10  24
TORSDOF 5
ENDMDL
MODEL 7
REMARK VINA RESULT:      -7.1      1.636      3.278
REMARK  5 active torsions:
REMARK  status: ('A' for Active; 'I' for Inactive)
REMARK    1  A    between atoms: O_2  and  C_13 
REMARK    2  A    between atoms: O_4  and  C_16 
REMARK    3  A    between atoms: O_5  and  C_19 
REMARK    4  A    between atoms: O_6  and  C_21 
REMARK    5  A    between atoms: C_9  and  C_10 
ROOT
HETATM    1  O   UNK     0       2.859  42.068  22.618  0.00  0.00    -0.309 OA
HETATM    2  O   UNK     0       3.837  42.808  26.503  0.00  0.00    -0.287 OA
HETATM    3  C   UNK     0       2.692  41.436  24.958  0.00  0.00     0.081 A 
HETATM    4  C   UNK     0       2.397  41.240  23.610  0.00  0.00     0.095 A 
HETATM    5  C   UNK     0       3.647  43.151  22.976  0.00  0.00     0.090 A 
HETATM    6  C   UNK     0       3.536  42.578  25.340  0.00  0.00     0.190 A 
HETATM    7  C   UNK     0       4.005  43.441  24.237  0.00  0.00     0.094 A 
HETATM    8  C   UNK     0       2.194  40.559  25.924  0.00  0.00     0.085 A 
HETATM    9  C   UNK     0       1.600  40.164  23.219  0.00  0.00     0.075 A 
HETATM   10  C   UNK     0       1.101  39.286  24.182  0.00  0.00     0.071 A 
HETATM   11  C   UNK     0       1.397  39.483  25.531  0.00  0.00     0.074 A 
ENDROOT
BRANCH   5  12
HETATM   12  C   UNK     0       4.094  43.972  21.833  0.00  0.00     0.001 A 
HETATM   13  C   UNK     0       4.241  43.396  20.569  0.00  0.00     0.053 A 
HETATM   14  C   UNK     0       4.664  44.171  19.490  0.00  0.00     0.099 A 
HETATM   15  C   UNK     0       4.939  45.527  19.671  0.00  0.00     0.098 A 
HETATM   16  C   UNK     0       4.794  46.106  20.931  0.00  0.00     0.040 A 
HETATM   17  C   UNK     0       4.372  45.330  22.011  0.00  0.00     0.017 A 
BRANCH  14  18
HETATM   18  O   UNK     0       4.803  43.594  18.263  0.00  0.00    -0.358 OA
HETATM   19  H   UNK     0       3.941  43.235  17.994  0.00  0.00     0.217 HD
ENDBRANCH  14  18
BRANCH  15  20
HETATM   20  O   UNK     0       5.351  46.295  18.624  0.00  0.00    -0.358 OA
HETATM   21  H   UNK     0       4.724  46.190  17.889  0.00  0.00     0.217 HD
ENDBRANCH  15  20
ENDBRANCH   5  12
BRANCH   8  22
HETATM   22  O   UNK     0       2.454  40.708  27.253  0.00  0.00    -0.360 OA
HETATM   23  H   UNK     0       2.530  39.842  27.683  0.00  0.00     0.217 HD
ENDBRANCH   8  22
BRANCH  10  24
HETATM   24  O   UNK     0       0.323  38.233  23.804  0.00  0.00    -0.361 OA
HETATM   25  H   UNK     0      -0.476  38.217  24.358  0.00  0.00     0.217 HD
ENDBRANCH  10  24
TORSDOF 5
ENDMDL
MODEL 8
REMARK VINA RESULT:      -7.1      2.525      3.642
REMARK  5 active torsions:
REMARK  status: ('A' for Active; 'I' for Inactive)
REMARK    1  A    between atoms: O_2  and  C_13 
REMARK    2  A    between atoms: O_4  and  C_16 
REMARK    3  A    between atoms: O_5  and  C_19 
REMARK    4  A    between atoms: O_6  and  C_21 
REMARK    5  A    between atoms: C_9  and  C_10 
ROOT
HETATM    1  O   UNK     0       6.306  43.009  21.548  0.00  0.00    -0.309 OA
HETATM    2  O   UNK     0       3.590  42.978  18.511  0.00  0.00    -0.287 OA
HETATM    3  C   UNK     0       4.000  42.756  20.827  0.00  0.00     0.081 A 
HETATM    4  C   UNK     0       4.980  42.781  21.817  0.00  0.00     0.095 A 
HETATM    5  C   UNK     0       6.686  43.216  20.230  0.00  0.00     0.090 A 
HETATM    6  C   UNK     0       4.397  42.983  19.429  0.00  0.00     0.190 A 
HETATM    7  C   UNK     0       5.836  43.222  19.191  0.00  0.00     0.094 A 
HETATM    8  C   UNK     0       2.665  42.519  21.161  0.00  0.00     0.085 A 
HETATM    9  C   UNK     0       4.630  42.570  23.151  0.00  0.00     0.075 A 
HETATM   10  C   UNK     0       3.297  42.333  23.489  0.00  0.00     0.071 A 
HETATM   11  C   UNK     0       2.317  42.308  22.496  0.00  0.00     0.074 A 
ENDROOT
BRANCH   5  12
HETATM   12  C   UNK     0       8.131  43.457  20.053  0.00  0.00     0.001 A 
HETATM   13  C   UNK     0       8.580  44.342  19.069  0.00  0.00     0.053 A 
HETATM   14  C   UNK     0       9.946  44.569  18.902  0.00  0.00     0.099 A 
HETATM   15  C   UNK     0      10.868  43.913  19.718  0.00  0.00     0.098 A 
HETATM   16  C   UNK     0      10.424  43.029  20.700  0.00  0.00     0.040 A 
HETATM   17  C   UNK     0       9.057  42.801  20.867  0.00  0.00     0.017 A 
BRANCH  14  18
HETATM   18  O   UNK     0      10.368  45.435  17.938  0.00  0.00    -0.358 OA
HETATM   19  H   UNK     0      10.645  46.261  18.369  0.00  0.00     0.217 HD
ENDBRANCH  14  18
BRANCH  15  20
HETATM   20  O   UNK     0      12.204  44.128  19.564  0.00  0.00    -0.358 OA
HETATM   21  H   UNK     0      12.342  44.762  18.840  0.00  0.00     0.217 HD
ENDBRANCH  15  20
ENDBRANCH   5  12
BRANCH   8  22
HETATM   22  O   UNK     0       1.671  42.485  20.231  0.00  0.00    -0.360 OA
HETATM   23  H   UNK     0       1.020  43.183  20.402  0.00  0.00     0.217 HD
ENDBRANCH   8  22
BRANCH  10  24
HETATM   24  O   UNK     0       2.952  42.127  24.790  0.00  0.00    -0.361 OA
HETATM   25  H   UNK     0       3.761  42.065  25.325  0.00  0.00     0.217 HD
ENDBRANCH  10  24
TORSDOF 5
ENDMDL
MODEL 9
REMARK VINA RESULT:      -7.1      1.975      7.163
REMARK  5 active torsions:
REMARK  status: ('A' for Active; 'I' for Inactive)
REMARK    1  A    between atoms: O_2  and  C_13 
REMARK    2  A    between atoms: O_4  and  C_16 
REMARK    3  A    between atoms: O_5  and  C_19 
REMARK    4  A    between atoms: O_6  and  C_21 
REMARK    5  A    between atoms: C_9  and  C_10 
ROOT
HETATM    1  O   UNK     0       3.885  43.043  24.473  0.00  0.00    -0.309 OA
HETATM    2  O   UNK     0       1.938  41.019  21.523  0.00  0.00    -0.287 OA
HETATM    3  C   UNK     0       3.337  42.827  22.116  0.00  0.00     0.081 A 
HETATM    4  C   UNK     0       3.978  43.471  23.173  0.00  0.00     0.095 A 
HETATM    5  C   UNK     0       3.113  41.924  24.746  0.00  0.00     0.090 A 
HETATM    6  C   UNK     0       2.524  41.634  22.401  0.00  0.00     0.190 A 
HETATM    7  C   UNK     0       2.454  41.215  23.816  0.00  0.00     0.094 A 
HETATM    8  C   UNK     0       3.468  43.308  20.812  0.00  0.00     0.085 A 
HETATM    9  C   UNK     0       4.756  44.603  22.931  0.00  0.00     0.075 A 
HETATM   10  C   UNK     0       4.889  45.087  21.629  0.00  0.00     0.071 A 
HETATM   11  C   UNK     0       4.247  44.441  20.572  0.00  0.00     0.074 A 
ENDROOT
BRANCH   5  12
HETATM   12  C   UNK     0       3.086  41.547  26.173  0.00  0.00     0.001 A 
HETATM   13  C   UNK     0       3.729  42.345  27.123  0.00  0.00     0.053 A 
HETATM   14  C   UNK     0       3.704  41.989  28.471  0.00  0.00     0.099 A 
HETATM   15  C   UNK     0       3.035  40.833  28.875  0.00  0.00     0.098 A 
HETATM   16  C   UNK     0       2.393  40.033  27.930  0.00  0.00     0.040 A 
HETATM   17  C   UNK     0       2.419  40.390  26.581  0.00  0.00     0.017 A 
BRANCH  14  18
HETATM   18  O   UNK     0       4.336  42.777  29.385  0.00  0.00    -0.358 OA
HETATM   19  H   UNK     0       5.220  42.406  29.550  0.00  0.00     0.217 HD
ENDBRANCH  14  18
BRANCH  15  20
HETATM   20  O   UNK     0       3.003  40.475  30.188  0.00  0.00    -0.358 OA
HETATM   21  H   UNK     0       2.131  40.097  30.392  0.00  0.00     0.217 HD
ENDBRANCH  15  20
ENDBRANCH   5  12
BRANCH   8  22
HETATM   22  O   UNK     0       2.862  42.714  19.747  0.00  0.00    -0.360 OA
HETATM   23  H   UNK     0       2.035  43.171  19.527  0.00  0.00     0.217 HD
ENDBRANCH   8  22
BRANCH  10  24
HETATM   24  O   UNK     0       5.648  46.192  21.388  0.00  0.00    -0.361 OA
HETATM   25  H   UNK     0       5.905  46.201  20.450  0.00  0.00     0.217 HD
ENDBRANCH  10  24
TORSDOF 5
ENDMDL
