MODEL 1
REMARK VINA RESULT:      -6.7      0.000      0.000
REMARK  Name = 2520
REMARK  21 active torsions:
REMARK  status: ('A' for Active; 'I' for Inactive)
REMARK    1  A    between atoms: O_1  and  C_19
REMARK    2  A    between atoms: O_1  and  C_28
REMARK    3  A    between atoms: O_2  and  C_23
REMARK    4  A    between atoms: O_2  and  C_31
REMARK    5  A    between atoms: O_3  and  C_27
REMARK    6  A    between atoms: O_3  and  C_32
REMARK    7  A    between atoms: O_4  and  C_30
REMARK    8  A    between atoms: O_4  and  C_33
REMARK    9  A    between atoms: N_5  and  C_12
REMARK   10  A    between atoms: N_5  and  C_18
REMARK   11  A    between atoms: N_5  and  C_20
REMARK   12  A    between atoms: C_7  and  C_8
REMARK   13  A    between atoms: C_7  and  C_9
REMARK   14  A    between atoms: C_7  and  C_11
REMARK   15  A    between atoms: C_7  and  C_15
REMARK   16  A    between atoms: C_8  and  C_13
REMARK   17  A    between atoms: C_8  and  C_14
REMARK   18  A    between atoms: C_9  and  C_10
REMARK   19  A    between atoms: C_10  and  C_12
REMARK   20  A    between atoms: C_18  and  C_22
REMARK   21  A    between atoms: C_22  and  C_24
REMARK                            x       y       z     vdW  Elec       q    Type
REMARK                         _______ _______ _______ _____ _____    ______ ____
ROOT
ATOM      1  C   UNL     1     172.774 174.204 170.623  0.00  0.00    +0.028 C 
ENDROOT
BRANCH   1   2
ATOM      2  C   UNL     1     172.717 174.993 169.265  0.00  0.00    +0.085 C 
BRANCH   2   7
ATOM      3  C   UNL     1     175.782 177.083 170.232  0.00  0.00    +0.162 A 
ATOM      4  C   UNL     1     175.769 178.075 169.250  0.00  0.00    +0.162 A 
ATOM      5  C   UNL     1     174.774 178.074 168.273  0.00  0.00    +0.050 A 
ATOM      6  C   UNL     1     173.791 177.083 168.277  0.00  0.00    +0.009 A 
ATOM      7  C   UNL     1     173.805 176.092 169.259  0.00  0.00    -0.024 A 
ATOM      8  C   UNL     1     174.801 176.093 170.237  0.00  0.00    +0.054 A 
BRANCH   3   9
ATOM      9  O   UNL     1     176.750 177.073 171.192  0.00  0.00    -0.491 OA
ATOM     10  C   UNL     1     176.363 177.473 172.505  0.00  0.00    +0.277 C 
ENDBRANCH   3   9
BRANCH   4  11
ATOM     11  O   UNL     1     176.723 179.047 169.234  0.00  0.00    -0.491 OA
ATOM     12  C   UNL     1     176.328 180.349 169.661  0.00  0.00    +0.277 C 
ENDBRANCH   4  11
ENDBRANCH   2   7
BRANCH   2  13
ATOM     13  C   UNL     1     171.293 175.676 169.095  0.00  0.00    +0.007 C 
ATOM     14  C   UNL     1     170.382 174.937 168.095  0.00  0.00    +0.009 C 
ATOM     15  C   UNL     1     170.519 175.861 170.411  0.00  0.00    +0.009 C 
ENDBRANCH   2  13
BRANCH   2  16
ATOM     16  C   UNL     1     172.892 173.991 168.174  0.00  0.00    +0.074 C 
ATOM     17  N   UNL     1     173.042 173.221 167.319  0.00  0.00    -0.196 NA
ENDBRANCH   2  16
ENDBRANCH   1   2
BRANCH   1  18
ATOM     18  C   UNL     1     172.354 172.721 170.537  0.00  0.00    +0.017 C 
BRANCH  18  19
ATOM     19  C   UNL     1     173.362 171.781 171.206  0.00  0.00    +0.084 C 
BRANCH  19  20
ATOM     20  N   UNL     1     174.620 172.453 171.502  0.00  0.00    -0.305 NA
ATOM     21  C   UNL     1     174.952 172.324 172.923  0.00  0.00    +0.104 C 
BRANCH  20  22
ATOM     22  C   UNL     1     175.702 171.909 170.678  0.00  0.00    +0.088 C 
BRANCH  22  23
ATOM     23  C   UNL     1     176.368 173.009 169.852  0.00  0.00    +0.050 C 
BRANCH  23  24
ATOM     24  C   UNL     1     177.816 173.189 170.234  0.00  0.00    -0.042 A 
ATOM     25  C   UNL     1     178.802 173.193 169.247  0.00  0.00    +0.007 A 
ATOM     26  C   UNL     1     180.141 173.360 169.601  0.00  0.00    +0.049 A 
ATOM     27  C   UNL     1     180.494 173.520 170.940  0.00  0.00    +0.161 A 
ATOM     28  C   UNL     1     179.508 173.515 171.927  0.00  0.00    +0.162 A 
ATOM     29  C   UNL     1     178.169 173.350 171.574  0.00  0.00    +0.053 A 
BRANCH  28  30
ATOM     30  O   UNL     1     179.841 173.672 173.239  0.00  0.00    -0.491 OA
ATOM     31  C   UNL     1     179.665 174.971 173.802  0.00  0.00    +0.277 C 
ENDBRANCH  28  30
BRANCH  27  32
ATOM     32  O   UNL     1     181.806 173.681 171.273  0.00  0.00    -0.491 OA
ATOM     33  C   UNL     1     182.593 174.508 170.418  0.00  0.00    +0.277 C 
ENDBRANCH  27  32
ENDBRANCH  23  24
ENDBRANCH  22  23
ENDBRANCH  20  22
ENDBRANCH  19  20
ENDBRANCH  18  19
ENDBRANCH   1  18
TORSDOF 14
ENDMDL
MODEL 2
REMARK VINA RESULT:      -6.7      1.745      2.102
REMARK  Name = 2520
REMARK  21 active torsions:
REMARK  status: ('A' for Active; 'I' for Inactive)
REMARK    1  A    between atoms: O_1  and  C_19
REMARK    2  A    between atoms: O_1  and  C_28
REMARK    3  A    between atoms: O_2  and  C_23
REMARK    4  A    between atoms: O_2  and  C_31
REMARK    5  A    between atoms: O_3  and  C_27
REMARK    6  A    between atoms: O_3  and  C_32
REMARK    7  A    between atoms: O_4  and  C_30
REMARK    8  A    between atoms: O_4  and  C_33
REMARK    9  A    between atoms: N_5  and  C_12
REMARK   10  A    between atoms: N_5  and  C_18
REMARK   11  A    between atoms: N_5  and  C_20
REMARK   12  A    between atoms: C_7  and  C_8
REMARK   13  A    between atoms: C_7  and  C_9
REMARK   14  A    between atoms: C_7  and  C_11
REMARK   15  A    between atoms: C_7  and  C_15
REMARK   16  A    between atoms: C_8  and  C_13
REMARK   17  A    between atoms: C_8  and  C_14
REMARK   18  A    between atoms: C_9  and  C_10
REMARK   19  A    between atoms: C_10  and  C_12
REMARK   20  A    between atoms: C_18  and  C_22
REMARK   21  A    between atoms: C_22  and  C_24
REMARK                            x       y       z     vdW  Elec       q    Type
REMARK                         _______ _______ _______ _____ _____    ______ ____
ROOT
ATOM      1  C   UNL     1     172.824 174.136 170.723  0.00  0.00    +0.028 C 
ENDROOT
BRANCH   1   2
ATOM      2  C   UNL     1     173.145 174.656 169.275  0.00  0.00    +0.085 C 
BRANCH   2   7
ATOM      3  C   UNL     1     174.790 177.833 170.657  0.00  0.00    +0.162 A 
ATOM      4  C   UNL     1     174.879 178.625 169.512  0.00  0.00    +0.162 A 
ATOM      5  C   UNL     1     174.411 178.139 168.290  0.00  0.00    +0.050 A 
ATOM      6  C   UNL     1     173.853 176.863 168.214  0.00  0.00    +0.009 A 
ATOM      7  C   UNL     1     173.764 176.072 169.359  0.00  0.00    -0.024 A 
ATOM      8  C   UNL     1     174.233 176.557 170.581  0.00  0.00    +0.054 A 
BRANCH   3   9
ATOM      9  O   UNL     1     175.244 178.295 171.855  0.00  0.00    -0.491 OA
ATOM     10  C   UNL     1     176.284 177.550 172.485  0.00  0.00    +0.277 C 
ENDBRANCH   3   9
BRANCH   4  11
ATOM     11  O   UNL     1     175.423 179.873 169.573  0.00  0.00    -0.491 OA
ATOM     12  C   UNL     1     176.842 179.966 169.485  0.00  0.00    +0.277 C 
ENDBRANCH   4  11
ENDBRANCH   2   7
BRANCH   2  13
ATOM     13  C   UNL     1     171.811 174.726 168.417  0.00  0.00    +0.007 C 
ATOM     14  C   UNL     1     171.366 173.353 167.875  0.00  0.00    +0.009 C 
ATOM     15  C   UNL     1     170.621 175.367 169.150  0.00  0.00    +0.009 C 
ENDBRANCH   2  13
BRANCH   2  16
ATOM     16  C   UNL     1     174.058 173.656 168.648  0.00  0.00    +0.074 C 
ATOM     17  N   UNL     1     174.780 172.885 168.169  0.00  0.00    -0.196 NA
ENDBRANCH   2  16
ENDBRANCH   1   2
BRANCH   1  18
ATOM     18  C   UNL     1     173.559 172.842 171.133  0.00  0.00    +0.017 C 
BRANCH  18  19
ATOM     19  C   UNL     1     174.537 173.058 172.292  0.00  0.00    +0.084 C 
BRANCH  19  20
ATOM     20  N   UNL     1     175.576 172.036 172.327  0.00  0.00    -0.305 NA
ATOM     21  C   UNL     1     175.324 171.010 171.314  0.00  0.00    +0.104 C 
BRANCH  20  22
ATOM     22  C   UNL     1     176.897 172.635 172.124  0.00  0.00    +0.088 C 
BRANCH  22  23
ATOM     23  C   UNL     1     177.133 172.952 170.648  0.00  0.00    +0.050 C 
BRANCH  23  24
ATOM     24  C   UNL     1     177.792 174.298 170.469  0.00  0.00    -0.042 A 
ATOM     25  C   UNL     1     177.433 175.112 169.395  0.00  0.00    +0.007 A 
ATOM     26  C   UNL     1     178.042 176.356 169.229  0.00  0.00    +0.049 A 
ATOM     27  C   UNL     1     179.011 176.784 170.135  0.00  0.00    +0.161 A 
ATOM     28  C   UNL     1     179.371 175.970 171.209  0.00  0.00    +0.162 A 
ATOM     29  C   UNL     1     178.761 174.726 171.376  0.00  0.00    +0.053 A 
BRANCH  28  30
ATOM     30  O   UNL     1     180.316 176.378 172.102  0.00  0.00    -0.491 OA
ATOM     31  C   UNL     1     180.807 175.400 173.018  0.00  0.00    +0.277 C 
ENDBRANCH  28  30
BRANCH  27  32
ATOM     32  O   UNL     1     179.600 178.001 169.962  0.00  0.00    -0.491 OA
ATOM     33  C   UNL     1     179.895 178.393 168.623  0.00  0.00    +0.277 C 
ENDBRANCH  27  32
ENDBRANCH  23  24
ENDBRANCH  22  23
ENDBRANCH  20  22
ENDBRANCH  19  20
ENDBRANCH  18  19
ENDBRANCH   1  18
TORSDOF 14
ENDMDL
MODEL 3
REMARK VINA RESULT:      -6.5      1.406      2.288
REMARK  Name = 2520
REMARK  21 active torsions:
REMARK  status: ('A' for Active; 'I' for Inactive)
REMARK    1  A    between atoms: O_1  and  C_19
REMARK    2  A    between atoms: O_1  and  C_28
REMARK    3  A    between atoms: O_2  and  C_23
REMARK    4  A    between atoms: O_2  and  C_31
REMARK    5  A    between atoms: O_3  and  C_27
REMARK    6  A    between atoms: O_3  and  C_32
REMARK    7  A    between atoms: O_4  and  C_30
REMARK    8  A    between atoms: O_4  and  C_33
REMARK    9  A    between atoms: N_5  and  C_12
REMARK   10  A    between atoms: N_5  and  C_18
REMARK   11  A    between atoms: N_5  and  C_20
REMARK   12  A    between atoms: C_7  and  C_8
REMARK   13  A    between atoms: C_7  and  C_9
REMARK   14  A    between atoms: C_7  and  C_11
REMARK   15  A    between atoms: C_7  and  C_15
REMARK   16  A    between atoms: C_8  and  C_13
REMARK   17  A    between atoms: C_8  and  C_14
REMARK   18  A    between atoms: C_9  and  C_10
REMARK   19  A    between atoms: C_10  and  C_12
REMARK   20  A    between atoms: C_18  and  C_22
REMARK   21  A    between atoms: C_22  and  C_24
REMARK                            x       y       z     vdW  Elec       q    Type
REMARK                         _______ _______ _______ _____ _____    ______ ____
ROOT
ATOM      1  C   UNL     1     172.824 174.313 170.681  0.00  0.00    +0.028 C 
ENDROOT
BRANCH   1   2
ATOM      2  C   UNL     1     172.595 175.123 169.355  0.00  0.00    +0.085 C 
BRANCH   2   7
ATOM      3  C   UNL     1     174.812 178.010 170.560  0.00  0.00    +0.162 A 
ATOM      4  C   UNL     1     175.115 178.654 169.359  0.00  0.00    +0.162 A 
ATOM      5  C   UNL     1     174.607 178.160 168.157  0.00  0.00    +0.050 A 
ATOM      6  C   UNL     1     173.796 177.025 168.155  0.00  0.00    +0.009 A 
ATOM      7  C   UNL     1     173.494 176.382 169.356  0.00  0.00    -0.024 A 
ATOM      8  C   UNL     1     174.002 176.875 170.559  0.00  0.00    +0.054 A 
BRANCH   3   9
ATOM      9  O   UNL     1     175.303 178.482 171.740  0.00  0.00    -0.491 OA
ATOM     10  C   UNL     1     176.269 177.675 172.409  0.00  0.00    +0.277 C 
ENDBRANCH   3   9
BRANCH   4  11
ATOM     11  O   UNL     1     175.906 179.762 169.347  0.00  0.00    -0.491 OA
ATOM     12  C   UNL     1     177.310 179.556 169.207  0.00  0.00    +0.277 C 
ENDBRANCH   4  11
ENDBRANCH   2   7
BRANCH   2  13
ATOM     13  C   UNL     1     171.076 175.574 169.251  0.00  0.00    +0.007 C 
ATOM     14  C   UNL     1     170.191 174.555 168.506  0.00  0.00    +0.009 C 
ATOM     15  C   UNL     1     170.416 175.890 170.604  0.00  0.00    +0.009 C 
ENDBRANCH   2  13
BRANCH   2  16
ATOM     16  C   UNL     1     172.890 174.196 168.224  0.00  0.00    +0.074 C 
ATOM     17  N   UNL     1     173.127 173.465 167.355  0.00  0.00    -0.196 NA
ENDBRANCH   2  16
ENDBRANCH   1   2
BRANCH   1  18
ATOM     18  C   UNL     1     174.041 173.363 170.668  0.00  0.00    +0.017 C 
BRANCH  18  19
ATOM     19  C   UNL     1     173.971 172.296 171.765  0.00  0.00    +0.084 C 
BRANCH  19  20
ATOM     20  N   UNL     1     174.989 172.499 172.788  0.00  0.00    -0.305 NA
ATOM     21  C   UNL     1     175.173 171.282 173.581  0.00  0.00    +0.104 C 
BRANCH  20  22
ATOM     22  C   UNL     1     176.258 172.906 172.181  0.00  0.00    +0.088 C 
BRANCH  22  23
ATOM     23  C   UNL     1     177.434 172.583 173.102  0.00  0.00    +0.050 C 
BRANCH  23  24
ATOM     24  C   UNL     1     178.402 173.737 173.190  0.00  0.00    -0.042 A 
ATOM     25  C   UNL     1     178.103 174.837 173.994  0.00  0.00    +0.007 A 
ATOM     26  C   UNL     1     178.997 175.904 174.076  0.00  0.00    +0.049 A 
ATOM     27  C   UNL     1     180.189 175.873 173.353  0.00  0.00    +0.161 A 
ATOM     28  C   UNL     1     180.488 174.773 172.548  0.00  0.00    +0.162 A 
ATOM     29  C   UNL     1     179.593 173.704 172.467  0.00  0.00    +0.053 A 
BRANCH  28  30
ATOM     30  O   UNL     1     181.649 174.730 171.837  0.00  0.00    -0.491 OA
ATOM     31  C   UNL     1     181.539 174.544 170.427  0.00  0.00    +0.277 C 
ENDBRANCH  28  30
BRANCH  27  32
ATOM     32  O   UNL     1     181.054 176.921 173.440  0.00  0.00    -0.491 OA
ATOM     33  C   UNL     1     180.835 178.016 172.553  0.00  0.00    +0.277 C 
ENDBRANCH  27  32
ENDBRANCH  23  24
ENDBRANCH  22  23
ENDBRANCH  20  22
ENDBRANCH  19  20
ENDBRANCH  18  19
ENDBRANCH   1  18
TORSDOF 14
ENDMDL
MODEL 4
REMARK VINA RESULT:      -6.5      1.995      2.754
REMARK  Name = 2520
REMARK  21 active torsions:
REMARK  status: ('A' for Active; 'I' for Inactive)
REMARK    1  A    between atoms: O_1  and  C_19
REMARK    2  A    between atoms: O_1  and  C_28
REMARK    3  A    between atoms: O_2  and  C_23
REMARK    4  A    between atoms: O_2  and  C_31
REMARK    5  A    between atoms: O_3  and  C_27
REMARK    6  A    between atoms: O_3  and  C_32
REMARK    7  A    between atoms: O_4  and  C_30
REMARK    8  A    between atoms: O_4  and  C_33
REMARK    9  A    between atoms: N_5  and  C_12
REMARK   10  A    between atoms: N_5  and  C_18
REMARK   11  A    between atoms: N_5  and  C_20
REMARK   12  A    between atoms: C_7  and  C_8
REMARK   13  A    between atoms: C_7  and  C_9
REMARK   14  A    between atoms: C_7  and  C_11
REMARK   15  A    between atoms: C_7  and  C_15
REMARK   16  A    between atoms: C_8  and  C_13
REMARK   17  A    between atoms: C_8  and  C_14
REMARK   18  A    between atoms: C_9  and  C_10
REMARK   19  A    between atoms: C_10  and  C_12
REMARK   20  A    between atoms: C_18  and  C_22
REMARK   21  A    between atoms: C_22  and  C_24
REMARK                            x       y       z     vdW  Elec       q    Type
REMARK                         _______ _______ _______ _____ _____    ______ ____
ROOT
ATOM      1  C   UNL     1     172.885 174.226 170.916  0.00  0.00    +0.028 C 
ENDROOT
BRANCH   1   2
ATOM      2  C   UNL     1     172.607 174.954 169.551  0.00  0.00    +0.085 C 
BRANCH   2   7
ATOM      3  C   UNL     1     174.295 178.133 168.229  0.00  0.00    +0.162 A 
ATOM      4  C   UNL     1     174.869 178.651 169.390  0.00  0.00    +0.162 A 
ATOM      5  C   UNL     1     174.715 177.979 170.603  0.00  0.00    +0.050 A 
ATOM      6  C   UNL     1     173.988 176.790 170.655  0.00  0.00    +0.009 A 
ATOM      7  C   UNL     1     173.414 176.273 169.494  0.00  0.00    -0.024 A 
ATOM      8  C   UNL     1     173.567 176.944 168.280  0.00  0.00    +0.054 A 
BRANCH   3   9
ATOM      9  O   UNL     1     174.438 178.779 167.038  0.00  0.00    -0.491 OA
ATOM     10  C   UNL     1     173.957 178.109 165.875  0.00  0.00    +0.277 C 
ENDBRANCH   3   9
BRANCH   4  11
ATOM     11  O   UNL     1     175.581 179.812 169.353  0.00  0.00    -0.491 OA
ATOM     12  C   UNL     1     176.872 179.800 169.958  0.00  0.00    +0.277 C 
ENDBRANCH   4  11
ENDBRANCH   2   7
BRANCH   2  13
ATOM     13  C   UNL     1     171.060 175.289 169.422  0.00  0.00    +0.007 C 
ATOM     14  C   UNL     1     170.227 174.112 168.877  0.00  0.00    +0.009 C 
ATOM     15  C   UNL     1     170.408 175.781 170.726  0.00  0.00    +0.009 C 
ENDBRANCH   2  13
BRANCH   2  16
ATOM     16  C   UNL     1     172.973 173.997 168.467  0.00  0.00    +0.074 C 
ATOM     17  N   UNL     1     173.242 173.249 167.621  0.00  0.00    -0.196 NA
ENDBRANCH   2  16
ENDBRANCH   1   2
BRANCH   1  18
ATOM     18  C   UNL     1     172.705 172.693 170.890  0.00  0.00    +0.017 C 
BRANCH  18  19
ATOM     19  C   UNL     1     172.518 172.096 172.288  0.00  0.00    +0.084 C 
BRANCH  19  20
ATOM     20  N   UNL     1     173.655 171.278 172.689  0.00  0.00    -0.305 NA
ATOM     21  C   UNL     1     173.998 170.319 171.636  0.00  0.00    +0.104 C 
BRANCH  20  22
ATOM     22  C   UNL     1     174.812 172.120 173.003  0.00  0.00    +0.088 C 
BRANCH  22  23
ATOM     23  C   UNL     1     175.980 171.816 172.067  0.00  0.00    +0.050 C 
BRANCH  23  24
ATOM     24  C   UNL     1     176.404 173.042 171.294  0.00  0.00    -0.042 A 
ATOM     25  C   UNL     1     176.358 173.037 169.900  0.00  0.00    +0.007 A 
ATOM     26  C   UNL     1     176.750 174.170 169.187  0.00  0.00    +0.049 A 
ATOM     27  C   UNL     1     177.190 175.305 169.866  0.00  0.00    +0.161 A 
ATOM     28  C   UNL     1     177.237 175.309 171.261  0.00  0.00    +0.162 A 
ATOM     29  C   UNL     1     176.844 174.176 171.975  0.00  0.00    +0.053 A 
BRANCH  28  30
ATOM     30  O   UNL     1     177.665 176.412 171.936  0.00  0.00    -0.491 OA
ATOM     31  C   UNL     1     177.612 176.361 173.361  0.00  0.00    +0.277 C 
ENDBRANCH  28  30
BRANCH  27  32
ATOM     32  O   UNL     1     177.571 176.404 169.158  0.00  0.00    -0.491 OA
ATOM     33  C   UNL     1     178.940 176.480 168.766  0.00  0.00    +0.277 C 
ENDBRANCH  27  32
ENDBRANCH  23  24
ENDBRANCH  22  23
ENDBRANCH  20  22
ENDBRANCH  19  20
ENDBRANCH  18  19
ENDBRANCH   1  18
TORSDOF 14
ENDMDL
MODEL 5
REMARK VINA RESULT:      -6.5      2.638      4.724
REMARK  Name = 2520
REMARK  21 active torsions:
REMARK  status: ('A' for Active; 'I' for Inactive)
REMARK    1  A    between atoms: O_1  and  C_19
REMARK    2  A    between atoms: O_1  and  C_28
REMARK    3  A    between atoms: O_2  and  C_23
REMARK    4  A    between atoms: O_2  and  C_31
REMARK    5  A    between atoms: O_3  and  C_27
REMARK    6  A    between atoms: O_3  and  C_32
REMARK    7  A    between atoms: O_4  and  C_30
REMARK    8  A    between atoms: O_4  and  C_33
REMARK    9  A    between atoms: N_5  and  C_12
REMARK   10  A    between atoms: N_5  and  C_18
REMARK   11  A    between atoms: N_5  and  C_20
REMARK   12  A    between atoms: C_7  and  C_8
REMARK   13  A    between atoms: C_7  and  C_9
REMARK   14  A    between atoms: C_7  and  C_11
REMARK   15  A    between atoms: C_7  and  C_15
REMARK   16  A    between atoms: C_8  and  C_13
REMARK   17  A    between atoms: C_8  and  C_14
REMARK   18  A    between atoms: C_9  and  C_10
REMARK   19  A    between atoms: C_10  and  C_12
REMARK   20  A    between atoms: C_18  and  C_22
REMARK   21  A    between atoms: C_22  and  C_24
REMARK                            x       y       z     vdW  Elec       q    Type
REMARK                         _______ _______ _______ _____ _____    ______ ____
ROOT
ATOM      1  C   UNL     1     175.889 175.760 169.756  0.00  0.00    +0.028 C 
ENDROOT
BRANCH   1   2
ATOM      2  C   UNL     1     174.727 176.753 169.390  0.00  0.00    +0.085 C 
BRANCH   2   7
ATOM      3  C   UNL     1     171.269 175.273 170.134  0.00  0.00    +0.162 A 
ATOM      4  C   UNL     1     171.015 174.549 168.968  0.00  0.00    +0.162 A 
ATOM      5  C   UNL     1     171.956 174.535 167.938  0.00  0.00    +0.050 A 
ATOM      6  C   UNL     1     173.150 175.243 168.074  0.00  0.00    +0.009 A 
ATOM      7  C   UNL     1     173.403 175.967 169.240  0.00  0.00    -0.024 A 
ATOM      8  C   UNL     1     172.462 175.981 170.270  0.00  0.00    +0.054 A 
BRANCH   3   9
ATOM      9  O   UNL     1     170.358 175.294 171.147  0.00  0.00    -0.491 OA
ATOM     10  C   UNL     1     170.029 176.569 171.695  0.00  0.00    +0.277 C 
ENDBRANCH   3   9
BRANCH   4  11
ATOM     11  O   UNL     1     169.853 173.853 168.823  0.00  0.00    -0.491 OA
ATOM     12  C   UNL     1     169.916 172.630 168.094  0.00  0.00    +0.277 C 
ENDBRANCH   4  11
ENDBRANCH   2   7
BRANCH   2  13
ATOM     13  C   UNL     1     175.052 177.485 168.019  0.00  0.00    +0.007 C 
ATOM     14  C   UNL     1     174.100 178.659 167.717  0.00  0.00    +0.009 C 
ATOM     15  C   UNL     1     176.499 177.991 167.900  0.00  0.00    +0.009 C 
ENDBRANCH   2  13
BRANCH   2  16
ATOM     16  C   UNL     1     174.677 177.780 170.472  0.00  0.00    +0.074 C 
ATOM     17  N   UNL     1     174.651 178.571 171.320  0.00  0.00    -0.196 NA
ENDBRANCH   2  16
ENDBRANCH   1   2
BRANCH   1  18
ATOM     18  C   UNL     1     175.865 175.229 171.205  0.00  0.00    +0.017 C 
BRANCH  18  19
ATOM     19  C   UNL     1     175.273 173.820 171.310  0.00  0.00    +0.084 C 
BRANCH  19  20
ATOM     20  N   UNL     1     175.760 173.109 172.485  0.00  0.00    -0.305 NA
ATOM     21  C   UNL     1     174.794 172.095 172.911  0.00  0.00    +0.104 C 
BRANCH  20  22
ATOM     22  C   UNL     1     177.059 172.489 172.212  0.00  0.00    +0.088 C 
BRANCH  22  23
ATOM     23  C   UNL     1     177.989 172.614 173.419  0.00  0.00    +0.050 C 
BRANCH  23  24
ATOM     24  C   UNL     1     178.801 173.884 173.364  0.00  0.00    -0.042 A 
ATOM     25  C   UNL     1     178.332 175.039 173.990  0.00  0.00    +0.007 A 
ATOM     26  C   UNL     1     179.083 176.213 173.939  0.00  0.00    +0.049 A 
ATOM     27  C   UNL     1     180.301 176.233 173.261  0.00  0.00    +0.161 A 
ATOM     28  C   UNL     1     180.769 175.079 172.633  0.00  0.00    +0.162 A 
ATOM     29  C   UNL     1     180.019 173.903 172.685  0.00  0.00    +0.053 A 
BRANCH  28  30
ATOM     30  O   UNL     1     181.958 175.086 171.968  0.00  0.00    -0.491 OA
ATOM     31  C   UNL     1     182.194 174.019 171.051  0.00  0.00    +0.277 C 
ENDBRANCH  28  30
BRANCH  27  32
ATOM     32  O   UNL     1     181.024 177.387 173.217  0.00  0.00    -0.491 OA
ATOM     33  C   UNL     1     180.580 178.396 172.314  0.00  0.00    +0.277 C 
ENDBRANCH  27  32
ENDBRANCH  23  24
ENDBRANCH  22  23
ENDBRANCH  20  22
ENDBRANCH  19  20
ENDBRANCH  18  19
ENDBRANCH   1  18
TORSDOF 14
ENDMDL
MODEL 6
REMARK VINA RESULT:      -6.5      3.083      5.701
REMARK  Name = 2520
REMARK  21 active torsions:
REMARK  status: ('A' for Active; 'I' for Inactive)
REMARK    1  A    between atoms: O_1  and  C_19
REMARK    2  A    between atoms: O_1  and  C_28
REMARK    3  A    between atoms: O_2  and  C_23
REMARK    4  A    between atoms: O_2  and  C_31
REMARK    5  A    between atoms: O_3  and  C_27
REMARK    6  A    between atoms: O_3  and  C_32
REMARK    7  A    between atoms: O_4  and  C_30
REMARK    8  A    between atoms: O_4  and  C_33
REMARK    9  A    between atoms: N_5  and  C_12
REMARK   10  A    between atoms: N_5  and  C_18
REMARK   11  A    between atoms: N_5  and  C_20
REMARK   12  A    between atoms: C_7  and  C_8
REMARK   13  A    between atoms: C_7  and  C_9
REMARK   14  A    between atoms: C_7  and  C_11
REMARK   15  A    between atoms: C_7  and  C_15
REMARK   16  A    between atoms: C_8  and  C_13
REMARK   17  A    between atoms: C_8  and  C_14
REMARK   18  A    between atoms: C_9  and  C_10
REMARK   19  A    between atoms: C_10  and  C_12
REMARK   20  A    between atoms: C_18  and  C_22
REMARK   21  A    between atoms: C_22  and  C_24
REMARK                            x       y       z     vdW  Elec       q    Type
REMARK                         _______ _______ _______ _____ _____    ______ ____
ROOT
ATOM      1  C   UNL     1     176.879 176.983 169.344  0.00  0.00    +0.028 C 
ENDROOT
BRANCH   1   2
ATOM      2  C   UNL     1     175.510 177.380 170.004  0.00  0.00    +0.085 C 
BRANCH   2   7
ATOM      3  C   UNL     1     173.977 174.000 169.044  0.00  0.00    +0.162 A 
ATOM      4  C   UNL     1     172.689 174.115 169.567  0.00  0.00    +0.162 A 
ATOM      5  C   UNL     1     172.309 175.281 170.233  0.00  0.00    +0.050 A 
ATOM      6  C   UNL     1     173.215 176.332 170.373  0.00  0.00    +0.009 A 
ATOM      7  C   UNL     1     174.503 176.216 169.849  0.00  0.00    -0.024 A 
ATOM      8  C   UNL     1     174.884 175.049 169.184  0.00  0.00    +0.054 A 
BRANCH   3   9
ATOM      9  O   UNL     1     174.360 172.866 168.392  0.00  0.00    -0.491 OA
ATOM     10  C   UNL     1     175.748 172.541 168.420  0.00  0.00    +0.277 C 
ENDBRANCH   3   9
BRANCH   4  11
ATOM     11  O   UNL     1     171.794 173.096 169.438  0.00  0.00    -0.491 OA
ATOM     12  C   UNL     1     170.884 173.168 168.343  0.00  0.00    +0.277 C 
ENDBRANCH   4  11
ENDBRANCH   2   7
BRANCH   2  13
ATOM     13  C   UNL     1     174.919 178.671 169.293  0.00  0.00    +0.007 C 
ATOM     14  C   UNL     1     175.802 179.922 169.475  0.00  0.00    +0.009 C 
ATOM     15  C   UNL     1     174.636 178.492 167.791  0.00  0.00    +0.009 C 
ENDBRANCH   2  13
BRANCH   2  16
ATOM     16  C   UNL     1     175.797 177.718 171.429  0.00  0.00    +0.074 C 
ATOM     17  N   UNL     1     176.004 177.981 172.540  0.00  0.00    -0.196 NA
ENDBRANCH   2  16
ENDBRANCH   1   2
BRANCH   1  18
ATOM     18  C   UNL     1     178.125 177.227 170.222  0.00  0.00    +0.017 C 
BRANCH  18  19
ATOM     19  C   UNL     1     179.039 176.000 170.305  0.00  0.00    +0.084 C 
BRANCH  19  20
ATOM     20  N   UNL     1     179.845 176.002 171.519  0.00  0.00    -0.305 NA
ATOM     21  C   UNL     1     179.527 177.166 172.348  0.00  0.00    +0.104 C 
BRANCH  20  22
ATOM     22  C   UNL     1     179.637 174.767 172.279  0.00  0.00    +0.088 C 
BRANCH  22  23
ATOM     23  C   UNL     1     178.567 174.958 173.353  0.00  0.00    +0.050 C 
BRANCH  23  24
ATOM     24  C   UNL     1     177.458 173.943 173.218  0.00  0.00    -0.042 A 
ATOM     25  C   UNL     1     176.256 174.300 172.608  0.00  0.00    +0.007 A 
ATOM     26  C   UNL     1     175.232 173.362 172.484  0.00  0.00    +0.049 A 
ATOM     27  C   UNL     1     175.408 172.068 172.972  0.00  0.00    +0.161 A 
ATOM     28  C   UNL     1     176.611 171.710 173.583  0.00  0.00    +0.162 A 
ATOM     29  C   UNL     1     177.636 172.649 173.706  0.00  0.00    +0.053 A 
BRANCH  28  30
ATOM     30  O   UNL     1     176.795 170.449 174.062  0.00  0.00    -0.491 OA
ATOM     31  C   UNL     1     178.061 170.159 174.654  0.00  0.00    +0.277 C 
ENDBRANCH  28  30
BRANCH  27  32
ATOM     32  O   UNL     1     174.400 171.160 172.845  0.00  0.00    -0.491 OA
ATOM     33  C   UNL     1     173.761 171.076 171.574  0.00  0.00    +0.277 C 
ENDBRANCH  27  32
ENDBRANCH  23  24
ENDBRANCH  22  23
ENDBRANCH  20  22
ENDBRANCH  19  20
ENDBRANCH  18  19
ENDBRANCH   1  18
TORSDOF 14
ENDMDL
MODEL 7
REMARK VINA RESULT:      -6.4      2.981      7.792
REMARK  Name = 2520
REMARK  21 active torsions:
REMARK  status: ('A' for Active; 'I' for Inactive)
REMARK    1  A    between atoms: O_1  and  C_19
REMARK    2  A    between atoms: O_1  and  C_28
REMARK    3  A    between atoms: O_2  and  C_23
REMARK    4  A    between atoms: O_2  and  C_31
REMARK    5  A    between atoms: O_3  and  C_27
REMARK    6  A    between atoms: O_3  and  C_32
REMARK    7  A    between atoms: O_4  and  C_30
REMARK    8  A    between atoms: O_4  and  C_33
REMARK    9  A    between atoms: N_5  and  C_12
REMARK   10  A    between atoms: N_5  and  C_18
REMARK   11  A    between atoms: N_5  and  C_20
REMARK   12  A    between atoms: C_7  and  C_8
REMARK   13  A    between atoms: C_7  and  C_9
REMARK   14  A    between atoms: C_7  and  C_11
REMARK   15  A    between atoms: C_7  and  C_15
REMARK   16  A    between atoms: C_8  and  C_13
REMARK   17  A    between atoms: C_8  and  C_14
REMARK   18  A    between atoms: C_9  and  C_10
REMARK   19  A    between atoms: C_10  and  C_12
REMARK   20  A    between atoms: C_18  and  C_22
REMARK   21  A    between atoms: C_22  and  C_24
REMARK                            x       y       z     vdW  Elec       q    Type
REMARK                         _______ _______ _______ _____ _____    ______ ____
ROOT
ATOM      1  C   UNL     1     179.438 176.228 171.140  0.00  0.00    +0.028 C 
ENDROOT
BRANCH   1   2
ATOM      2  C   UNL     1     179.686 174.808 170.515  0.00  0.00    +0.085 C 
BRANCH   2   7
ATOM      3  C   UNL     1     176.669 172.797 171.761  0.00  0.00    +0.162 A 
ATOM      4  C   UNL     1     175.993 172.533 170.569  0.00  0.00    +0.162 A 
ATOM      5  C   UNL     1     176.506 173.002 169.359  0.00  0.00    +0.050 A 
ATOM      6  C   UNL     1     177.694 173.733 169.341  0.00  0.00    +0.009 A 
ATOM      7  C   UNL     1     178.369 173.997 170.534  0.00  0.00    -0.024 A 
ATOM      8  C   UNL     1     177.856 173.528 171.744  0.00  0.00    +0.054 A 
BRANCH   3   9
ATOM      9  O   UNL     1     176.178 172.345 172.949  0.00  0.00    -0.491 OA
ATOM     10  C   UNL     1     176.897 171.293 173.589  0.00  0.00    +0.277 C 
ENDBRANCH   3   9
BRANCH   4  11
ATOM     11  O   UNL     1     174.832 171.821 170.573  0.00  0.00    -0.491 OA
ATOM     12  C   UNL     1     173.616 172.564 170.549  0.00  0.00    +0.277 C 
ENDBRANCH   4  11
ENDBRANCH   2   7
BRANCH   2  13
ATOM     13  C   UNL     1     180.784 174.030 171.358  0.00  0.00    +0.007 C 
ATOM     14  C   UNL     1     181.188 172.681 170.731  0.00  0.00    +0.009 C 
ATOM     15  C   UNL     1     182.063 174.840 171.631  0.00  0.00    +0.009 C 
ENDBRANCH   2  13
BRANCH   2  16
ATOM     16  C   UNL     1     180.218 175.027 169.138  0.00  0.00    +0.074 C 
ATOM     17  N   UNL     1     180.618 175.189 168.061  0.00  0.00    -0.196 NA
ENDBRANCH   2  16
ENDBRANCH   1   2
BRANCH   1  18
ATOM     18  C   UNL     1     179.077 177.336 170.127  0.00  0.00    +0.017 C 
BRANCH  18  19
ATOM     19  C   UNL     1     177.565 177.551 169.999  0.00  0.00    +0.084 C 
BRANCH  19  20
ATOM     20  N   UNL     1     176.860 177.213 171.228  0.00  0.00    -0.305 NA
ATOM     21  C   UNL     1     176.533 178.424 171.984  0.00  0.00    +0.104 C 
BRANCH  20  22
ATOM     22  C   UNL     1     175.642 176.455 170.933  0.00  0.00    +0.088 C 
BRANCH  22  23
ATOM     23  C   UNL     1     174.727 177.235 169.990  0.00  0.00    +0.050 C 
BRANCH  23  24
ATOM     24  C   UNL     1     173.489 176.446 169.641  0.00  0.00    -0.042 A 
ATOM     25  C   UNL     1     173.338 175.915 168.360  0.00  0.00    +0.007 A 
ATOM     26  C   UNL     1     172.194 175.186 168.038  0.00  0.00    +0.049 A 
ATOM     27  C   UNL     1     171.199 174.989 168.995  0.00  0.00    +0.161 A 
ATOM     28  C   UNL     1     171.349 175.521 170.276  0.00  0.00    +0.162 A 
ATOM     29  C   UNL     1     172.495 176.249 170.599  0.00  0.00    +0.053 A 
BRANCH  28  30
ATOM     30  O   UNL     1     170.384 175.335 171.220  0.00  0.00    -0.491 OA
ATOM     31  C   UNL     1     169.829 176.505 171.818  0.00  0.00    +0.277 C 
ENDBRANCH  28  30
BRANCH  27  32
ATOM     32  O   UNL     1     170.086 174.276 168.667  0.00  0.00    -0.491 OA
ATOM     33  C   UNL     1     170.277 173.098 167.887  0.00  0.00    +0.277 C 
ENDBRANCH  27  32
ENDBRANCH  23  24
ENDBRANCH  22  23
ENDBRANCH  20  22
ENDBRANCH  19  20
ENDBRANCH  18  19
ENDBRANCH   1  18
TORSDOF 14
ENDMDL
MODEL 8
REMARK VINA RESULT:      -6.3      2.997      7.724
REMARK  Name = 2520
REMARK  21 active torsions:
REMARK  status: ('A' for Active; 'I' for Inactive)
REMARK    1  A    between atoms: O_1  and  C_19
REMARK    2  A    between atoms: O_1  and  C_28
REMARK    3  A    between atoms: O_2  and  C_23
REMARK    4  A    between atoms: O_2  and  C_31
REMARK    5  A    between atoms: O_3  and  C_27
REMARK    6  A    between atoms: O_3  and  C_32
REMARK    7  A    between atoms: O_4  and  C_30
REMARK    8  A    between atoms: O_4  and  C_33
REMARK    9  A    between atoms: N_5  and  C_12
REMARK   10  A    between atoms: N_5  and  C_18
REMARK   11  A    between atoms: N_5  and  C_20
REMARK   12  A    between atoms: C_7  and  C_8
REMARK   13  A    between atoms: C_7  and  C_9
REMARK   14  A    between atoms: C_7  and  C_11
REMARK   15  A    between atoms: C_7  and  C_15
REMARK   16  A    between atoms: C_8  and  C_13
REMARK   17  A    between atoms: C_8  and  C_14
REMARK   18  A    between atoms: C_9  and  C_10
REMARK   19  A    between atoms: C_10  and  C_12
REMARK   20  A    between atoms: C_18  and  C_22
REMARK   21  A    between atoms: C_22  and  C_24
REMARK                            x       y       z     vdW  Elec       q    Type
REMARK                         _______ _______ _______ _____ _____    ______ ____
ROOT
ATOM      1  C   UNL     1     177.744 176.802 172.981  0.00  0.00    +0.028 C 
ENDROOT
BRANCH   1   2
ATOM      2  C   UNL     1     178.477 175.679 172.162  0.00  0.00    +0.085 C 
BRANCH   2   7
ATOM      3  C   UNL     1     176.388 172.566 171.359  0.00  0.00    +0.162 A 
ATOM      4  C   UNL     1     176.336 171.932 172.602  0.00  0.00    +0.162 A 
ATOM      5  C   UNL     1     176.975 172.505 173.702  0.00  0.00    +0.050 A 
ATOM      6  C   UNL     1     177.662 173.710 173.561  0.00  0.00    +0.009 A 
ATOM      7  C   UNL     1     177.714 174.343 172.319  0.00  0.00    -0.024 A 
ATOM      8  C   UNL     1     177.076 173.770 171.217  0.00  0.00    +0.054 A 
BRANCH   3   9
ATOM      9  O   UNL     1     175.769 172.016 170.277  0.00  0.00    -0.491 OA
ATOM     10  C   UNL     1     175.511 172.879 169.171  0.00  0.00    +0.277 C 
ENDBRANCH   3   9
BRANCH   4  11
ATOM     11  O   UNL     1     175.668 170.755 172.752  0.00  0.00    -0.491 OA
ATOM     12  C   UNL     1     174.921 170.583 173.954  0.00  0.00    +0.277 C 
ENDBRANCH   4  11
ENDBRANCH   2   7
BRANCH   2  13
ATOM     13  C   UNL     1     179.959 175.494 172.702  0.00  0.00    +0.007 C 
ATOM     14  C   UNL     1     180.831 174.608 171.792  0.00  0.00    +0.009 C 
ATOM     15  C   UNL     1     180.708 176.813 172.958  0.00  0.00    +0.009 C 
ENDBRANCH   2  13
BRANCH   2  16
ATOM     16  C   UNL     1     178.547 176.149 170.748  0.00  0.00    +0.074 C 
ATOM     17  N   UNL     1     178.603 176.531 169.654  0.00  0.00    -0.196 NA
ENDBRANCH   2  16
ENDBRANCH   1   2
BRANCH   1  18
ATOM     18  C   UNL     1     176.322 177.149 172.491  0.00  0.00    +0.017 C 
BRANCH  18  19
ATOM     19  C   UNL     1     176.199 178.598 172.009  0.00  0.00    +0.084 C 
BRANCH  19  20
ATOM     20  N   UNL     1     175.194 178.741 170.964  0.00  0.00    -0.305 NA
ATOM     21  C   UNL     1     175.824 179.071 169.684  0.00  0.00    +0.104 C 
BRANCH  20  22
ATOM     22  C   UNL     1     174.402 177.515 170.837  0.00  0.00    +0.088 C 
BRANCH  22  23
ATOM     23  C   UNL     1     173.946 177.304 169.394  0.00  0.00    +0.050 C 
BRANCH  23  24
ATOM     24  C   UNL     1     173.182 176.013 169.237  0.00  0.00    -0.042 A 
ATOM     25  C   UNL     1     172.918 175.509 167.963  0.00  0.00    +0.007 A 
ATOM     26  C   UNL     1     172.211 174.316 167.819  0.00  0.00    +0.049 A 
ATOM     27  C   UNL     1     171.766 173.628 168.946  0.00  0.00    +0.161 A 
ATOM     28  C   UNL     1     172.028 174.132 170.220  0.00  0.00    +0.162 A 
ATOM     29  C   UNL     1     172.737 175.325 170.365  0.00  0.00    +0.053 A 
BRANCH  28  30
ATOM     30  O   UNL     1     171.599 173.468 171.330  0.00  0.00    -0.491 OA
ATOM     31  C   UNL     1     172.590 172.796 172.107  0.00  0.00    +0.277 C 
ENDBRANCH  28  30
BRANCH  27  32
ATOM     32  O   UNL     1     171.076 172.463 168.792  0.00  0.00    -0.491 OA
ATOM     33  C   UNL     1     169.713 172.568 168.384  0.00  0.00    +0.277 C 
ENDBRANCH  27  32
ENDBRANCH  23  24
ENDBRANCH  22  23
ENDBRANCH  20  22
ENDBRANCH  19  20
ENDBRANCH  18  19
ENDBRANCH   1  18
TORSDOF 14
ENDMDL
MODEL 9
REMARK VINA RESULT:      -6.3      2.691      6.385
REMARK  Name = 2520
REMARK  21 active torsions:
REMARK  status: ('A' for Active; 'I' for Inactive)
REMARK    1  A    between atoms: O_1  and  C_19
REMARK    2  A    between atoms: O_1  and  C_28
REMARK    3  A    between atoms: O_2  and  C_23
REMARK    4  A    between atoms: O_2  and  C_31
REMARK    5  A    between atoms: O_3  and  C_27
REMARK    6  A    between atoms: O_3  and  C_32
REMARK    7  A    between atoms: O_4  and  C_30
REMARK    8  A    between atoms: O_4  and  C_33
REMARK    9  A    between atoms: N_5  and  C_12
REMARK   10  A    between atoms: N_5  and  C_18
REMARK   11  A    between atoms: N_5  and  C_20
REMARK   12  A    between atoms: C_7  and  C_8
REMARK   13  A    between atoms: C_7  and  C_9
REMARK   14  A    between atoms: C_7  and  C_11
REMARK   15  A    between atoms: C_7  and  C_15
REMARK   16  A    between atoms: C_8  and  C_13
REMARK   17  A    between atoms: C_8  and  C_14
REMARK   18  A    between atoms: C_9  and  C_10
REMARK   19  A    between atoms: C_10  and  C_12
REMARK   20  A    between atoms: C_18  and  C_22
REMARK   21  A    between atoms: C_22  and  C_24
REMARK                            x       y       z     vdW  Elec       q    Type
REMARK                         _______ _______ _______ _____ _____    ______ ____
ROOT
ATOM      1  C   UNL     1     177.578 178.376 171.033  0.00  0.00    +0.028 C 
ENDROOT
BRANCH   1   2
ATOM      2  C   UNL     1     177.833 177.856 169.573  0.00  0.00    +0.085 C 
BRANCH   2   7
ATOM      3  C   UNL     1     181.337 176.481 170.302  0.00  0.00    +0.162 A 
ATOM      4  C   UNL     1     181.351 175.320 169.529  0.00  0.00    +0.162 A 
ATOM      5  C   UNL     1     180.233 174.975 168.769  0.00  0.00    +0.050 A 
ATOM      6  C   UNL     1     179.101 175.791 168.783  0.00  0.00    +0.009 A 
ATOM      7  C   UNL     1     179.088 176.951 169.557  0.00  0.00    -0.024 A 
ATOM      8  C   UNL     1     180.206 177.297 170.317  0.00  0.00    +0.054 A 
BRANCH   3   9
ATOM      9  O   UNL     1     182.423 176.829 171.048  0.00  0.00    -0.491 OA
ATOM     10  C   UNL     1     182.189 177.656 172.186  0.00  0.00    +0.277 C 
ENDBRANCH   3   9
BRANCH   4  11
ATOM     11  O   UNL     1     182.450 174.515 169.507  0.00  0.00    -0.491 OA
ATOM     12  C   UNL     1     182.402 173.332 170.301  0.00  0.00    +0.277 C 
ENDBRANCH   4  11
ENDBRANCH   2   7
BRANCH   2  13
ATOM     13  C   UNL     1     178.069 179.085 168.595  0.00  0.00    +0.007 C 
ATOM     14  C   UNL     1     178.610 180.336 169.313  0.00  0.00    +0.009 C 
ATOM     15  C   UNL     1     178.989 178.775 167.401  0.00  0.00    +0.009 C 
ENDBRANCH   2  13
BRANCH   2  16
ATOM     16  C   UNL     1     176.594 177.144 169.143  0.00  0.00    +0.074 C 
ATOM     17  N   UNL     1     175.636 176.577 168.817  0.00  0.00    -0.196 NA
ENDBRANCH   2  16
ENDBRANCH   1   2
BRANCH   1  18
ATOM     18  C   UNL     1     176.792 177.410 171.945  0.00  0.00    +0.017 C 
BRANCH  18  19
ATOM     19  C   UNL     1     177.574 177.013 173.201  0.00  0.00    +0.084 C 
BRANCH  19  20
ATOM     20  N   UNL     1     178.432 175.859 172.968  0.00  0.00    -0.305 NA
ATOM     21  C   UNL     1     179.459 175.761 174.007  0.00  0.00    +0.104 C 
BRANCH  20  22
ATOM     22  C   UNL     1     177.640 174.628 172.921  0.00  0.00    +0.088 C 
BRANCH  22  23
ATOM     23  C   UNL     1     177.933 173.836 171.647  0.00  0.00    +0.050 C 
BRANCH  23  24
ATOM     24  C   UNL     1     176.685 173.628 170.824  0.00  0.00    -0.042 A 
ATOM     25  C   UNL     1     176.782 173.130 169.525  0.00  0.00    +0.007 A 
ATOM     26  C   UNL     1     175.629 172.939 168.764  0.00  0.00    +0.049 A 
ATOM     27  C   UNL     1     174.380 173.245 169.302  0.00  0.00    +0.161 A 
ATOM     28  C   UNL     1     174.283 173.744 170.601  0.00  0.00    +0.162 A 
ATOM     29  C   UNL     1     175.437 173.935 171.363  0.00  0.00    +0.053 A 
BRANCH  28  30
ATOM     30  O   UNL     1     173.068 174.047 171.138  0.00  0.00    -0.491 OA
ATOM     31  C   UNL     1     172.433 173.035 171.918  0.00  0.00    +0.277 C 
ENDBRANCH  28  30
BRANCH  27  32
ATOM     32  O   UNL     1     173.261 173.054 168.549  0.00  0.00    -0.491 OA
ATOM     33  C   UNL     1     172.842 174.139 167.724  0.00  0.00    +0.277 C 
ENDBRANCH  27  32
ENDBRANCH  23  24
ENDBRANCH  22  23
ENDBRANCH  20  22
ENDBRANCH  19  20
ENDBRANCH  18  19
ENDBRANCH   1  18
TORSDOF 14
ENDMDL
MODEL 10
REMARK VINA RESULT:      -6.3      2.884      7.837
REMARK  Name = 2520
REMARK  21 active torsions:
REMARK  status: ('A' for Active; 'I' for Inactive)
REMARK    1  A    between atoms: O_1  and  C_19
REMARK    2  A    between atoms: O_1  and  C_28
REMARK    3  A    between atoms: O_2  and  C_23
REMARK    4  A    between atoms: O_2  and  C_31
REMARK    5  A    between atoms: O_3  and  C_27
REMARK    6  A    between atoms: O_3  and  C_32
REMARK    7  A    between atoms: O_4  and  C_30
REMARK    8  A    between atoms: O_4  and  C_33
REMARK    9  A    between atoms: N_5  and  C_12
REMARK   10  A    between atoms: N_5  and  C_18
REMARK   11  A    between atoms: N_5  and  C_20
REMARK   12  A    between atoms: C_7  and  C_8
REMARK   13  A    between atoms: C_7  and  C_9
REMARK   14  A    between atoms: C_7  and  C_11
REMARK   15  A    between atoms: C_7  and  C_15
REMARK   16  A    between atoms: C_8  and  C_13
REMARK   17  A    between atoms: C_8  and  C_14
REMARK   18  A    between atoms: C_9  and  C_10
REMARK   19  A    between atoms: C_10  and  C_12
REMARK   20  A    between atoms: C_18  and  C_22
REMARK   21  A    between atoms: C_22  and  C_24
REMARK                            x       y       z     vdW  Elec       q    Type
REMARK                         _______ _______ _______ _____ _____    ______ ____
ROOT
ATOM      1  C   UNL     1     180.255 176.526 171.153  0.00  0.00    +0.028 C 
ENDROOT
BRANCH   1   2
ATOM      2  C   UNL     1     180.334 175.054 170.609  0.00  0.00    +0.085 C 
BRANCH   2   7
ATOM      3  C   UNL     1     177.188 172.869 170.787  0.00  0.00    +0.162 A 
ATOM      4  C   UNL     1     177.005 172.750 172.165  0.00  0.00    +0.162 A 
ATOM      5  C   UNL     1     177.894 173.373 173.042  0.00  0.00    +0.050 A 
ATOM      6  C   UNL     1     178.964 174.114 172.542  0.00  0.00    +0.009 A 
ATOM      7  C   UNL     1     179.147 174.232 171.164  0.00  0.00    -0.024 A 
ATOM      8  C   UNL     1     178.258 173.609 170.286  0.00  0.00    +0.054 A 
BRANCH   3   9
ATOM      9  O   UNL     1     176.328 172.265 169.920  0.00  0.00    -0.491 OA
ATOM     10  C   UNL     1     176.087 172.927 168.681  0.00  0.00    +0.277 C 
ENDBRANCH   3   9
BRANCH   4  11
ATOM     11  O   UNL     1     175.964 172.029 172.667  0.00  0.00    -0.491 OA
ATOM     12  C   UNL     1     176.275 170.774 173.268  0.00  0.00    +0.277 C 
ENDBRANCH   4  11
ENDBRANCH   2   7
BRANCH   2  13
ATOM     13  C   UNL     1     181.693 174.377 171.074  0.00  0.00    +0.007 C 
ATOM     14  C   UNL     1     181.830 172.912 170.616  0.00  0.00    +0.009 C 
ATOM     15  C   UNL     1     182.958 175.140 170.645  0.00  0.00    +0.009 C 
ENDBRANCH   2  13
BRANCH   2  16
ATOM     16  C   UNL     1     180.338 175.142 169.119  0.00  0.00    +0.074 C 
ATOM     17  N   UNL     1     180.346 175.195 167.960  0.00  0.00    -0.196 NA
ENDBRANCH   2  16
ENDBRANCH   1   2
BRANCH   1  18
ATOM     18  C   UNL     1     179.243 177.439 170.428  0.00  0.00    +0.017 C 
BRANCH  18  19
ATOM     19  C   UNL     1     177.830 177.335 171.009  0.00  0.00    +0.084 C 
BRANCH  19  20
ATOM     20  N   UNL     1     177.334 178.625 171.473  0.00  0.00    -0.305 NA
ATOM     21  C   UNL     1     177.996 179.719 170.760  0.00  0.00    +0.104 C 
BRANCH  20  22
ATOM     22  C   UNL     1     175.883 178.713 171.300  0.00  0.00    +0.088 C 
BRANCH  22  23
ATOM     23  C   UNL     1     175.517 178.913 169.830  0.00  0.00    +0.050 C 
BRANCH  23  24
ATOM     24  C   UNL     1     174.576 177.839 169.342  0.00  0.00    -0.042 A 
ATOM     25  C   UNL     1     174.246 177.765 167.988  0.00  0.00    +0.007 A 
ATOM     26  C   UNL     1     173.375 176.772 167.538  0.00  0.00    +0.049 A 
ATOM     27  C   UNL     1     172.834 175.857 168.439  0.00  0.00    +0.161 A 
ATOM     28  C   UNL     1     173.164 175.931 169.792  0.00  0.00    +0.162 A 
ATOM     29  C   UNL     1     174.036 176.923 170.244  0.00  0.00    +0.053 A 
BRANCH  28  30
ATOM     30  O   UNL     1     172.642 175.042 170.682  0.00  0.00    -0.491 OA
ATOM     31  C   UNL     1     173.490 173.975 171.105  0.00  0.00    +0.277 C 
ENDBRANCH  28  30
BRANCH  27  32
ATOM     32  O   UNL     1     171.985 174.893 167.986  0.00  0.00    -0.491 OA
ATOM     33  C   UNL     1     172.571 173.679 167.520  0.00  0.00    +0.277 C 
ENDBRANCH  27  32
ENDBRANCH  23  24
ENDBRANCH  22  23
ENDBRANCH  20  22
ENDBRANCH  19  20
ENDBRANCH  18  19
ENDBRANCH   1  18
TORSDOF 14
ENDMDL
