REMARK VINA RESULT:      -6.3      2.884      7.837
REMARK  Name = 2520
REMARK  21 active torsions:
REMARK  status: ('A' for Active; 'I' for Inactive)
REMARK    1  A    between atoms: O_1  and  C_19
REMARK    2  A    between atoms: O_1  and  C_28
REMARK    3  A    between atoms: O_2  and  C_23
REMARK    4  A    between atoms: O_2  and  C_31
REMARK    5  A    between atoms: O_3  and  C_27
REMARK    6  A    between atoms: O_3  and  C_32
REMARK    7  A    between atoms: O_4  and  C_30
REMARK    8  A    between atoms: O_4  and  C_33
REMARK    9  A    between atoms: N_5  and  C_12
REMARK   10  A    between atoms: N_5  and  C_18
REMARK   11  A    between atoms: N_5  and  C_20
REMARK   12  A    between atoms: C_7  and  C_8
REMARK   13  A    between atoms: C_7  and  C_9
REMARK   14  A    between atoms: C_7  and  C_11
REMARK   15  A    between atoms: C_7  and  C_15
REMARK   16  A    between atoms: C_8  and  C_13
REMARK   17  A    between atoms: C_8  and  C_14
REMARK   18  A    between atoms: C_9  and  C_10
REMARK   19  A    between atoms: C_10  and  C_12
REMARK   20  A    between atoms: C_18  and  C_22
REMARK   21  A    between atoms: C_22  and  C_24
REMARK                            x       y       z     vdW  Elec       q    Type
REMARK                         _______ _______ _______ _____ _____    ______ ____
ROOT
ATOM      1  C   UNL     1     180.255 176.526 171.153  0.00  0.00    +0.028 C 
ENDROOT
BRANCH   1   2
ATOM      2  C   UNL     1     180.334 175.054 170.609  0.00  0.00    +0.085 C 
BRANCH   2   7
ATOM      3  C   UNL     1     177.188 172.869 170.787  0.00  0.00    +0.162 A 
ATOM      4  C   UNL     1     177.005 172.750 172.165  0.00  0.00    +0.162 A 
ATOM      5  C   UNL     1     177.894 173.373 173.042  0.00  0.00    +0.050 A 
ATOM      6  C   UNL     1     178.964 174.114 172.542  0.00  0.00    +0.009 A 
ATOM      7  C   UNL     1     179.147 174.232 171.164  0.00  0.00    -0.024 A 
ATOM      8  C   UNL     1     178.258 173.609 170.286  0.00  0.00    +0.054 A 
BRANCH   3   9
ATOM      9  O   UNL     1     176.328 172.265 169.920  0.00  0.00    -0.491 OA
ATOM     10  C   UNL     1     176.087 172.927 168.681  0.00  0.00    +0.277 C 
ENDBRANCH   3   9
BRANCH   4  11
ATOM     11  O   UNL     1     175.964 172.029 172.667  0.00  0.00    -0.491 OA
ATOM     12  C   UNL     1     176.275 170.774 173.268  0.00  0.00    +0.277 C 
ENDBRANCH   4  11
ENDBRANCH   2   7
BRANCH   2  13
ATOM     13  C   UNL     1     181.693 174.377 171.074  0.00  0.00    +0.007 C 
ATOM     14  C   UNL     1     181.830 172.912 170.616  0.00  0.00    +0.009 C 
ATOM     15  C   UNL     1     182.958 175.140 170.645  0.00  0.00    +0.009 C 
ENDBRANCH   2  13
BRANCH   2  16
ATOM     16  C   UNL     1     180.338 175.142 169.119  0.00  0.00    +0.074 C 
ATOM     17  N   UNL     1     180.346 175.195 167.960  0.00  0.00    -0.196 NA
ENDBRANCH   2  16
ENDBRANCH   1   2
BRANCH   1  18
ATOM     18  C   UNL     1     179.243 177.439 170.428  0.00  0.00    +0.017 C 
BRANCH  18  19
ATOM     19  C   UNL     1     177.830 177.335 171.009  0.00  0.00    +0.084 C 
BRANCH  19  20
ATOM     20  N   UNL     1     177.334 178.625 171.473  0.00  0.00    -0.305 NA
ATOM     21  C   UNL     1     177.996 179.719 170.760  0.00  0.00    +0.104 C 
BRANCH  20  22
ATOM     22  C   UNL     1     175.883 178.713 171.300  0.00  0.00    +0.088 C 
BRANCH  22  23
ATOM     23  C   UNL     1     175.517 178.913 169.830  0.00  0.00    +0.050 C 
BRANCH  23  24
ATOM     24  C   UNL     1     174.576 177.839 169.342  0.00  0.00    -0.042 A 
ATOM     25  C   UNL     1     174.246 177.765 167.988  0.00  0.00    +0.007 A 
ATOM     26  C   UNL     1     173.375 176.772 167.538  0.00  0.00    +0.049 A 
ATOM     27  C   UNL     1     172.834 175.857 168.439  0.00  0.00    +0.161 A 
ATOM     28  C   UNL     1     173.164 175.931 169.792  0.00  0.00    +0.162 A 
ATOM     29  C   UNL     1     174.036 176.923 170.244  0.00  0.00    +0.053 A 
BRANCH  28  30
ATOM     30  O   UNL     1     172.642 175.042 170.682  0.00  0.00    -0.491 OA
ATOM     31  C   UNL     1     173.490 173.975 171.105  0.00  0.00    +0.277 C 
ENDBRANCH  28  30
BRANCH  27  32
ATOM     32  O   UNL     1     171.985 174.893 167.986  0.00  0.00    -0.491 OA
ATOM     33  C   UNL     1     172.571 173.679 167.520  0.00  0.00    +0.277 C 
ENDBRANCH  27  32
ENDBRANCH  23  24
ENDBRANCH  22  23
ENDBRANCH  20  22
ENDBRANCH  19  20
ENDBRANCH  18  19
ENDBRANCH   1  18
TORSDOF 14
