REMARK VINA RESULT:      -6.5      3.083      5.701
REMARK  Name = 2520
REMARK  21 active torsions:
REMARK  status: ('A' for Active; 'I' for Inactive)
REMARK    1  A    between atoms: O_1  and  C_19
REMARK    2  A    between atoms: O_1  and  C_28
REMARK    3  A    between atoms: O_2  and  C_23
REMARK    4  A    between atoms: O_2  and  C_31
REMARK    5  A    between atoms: O_3  and  C_27
REMARK    6  A    between atoms: O_3  and  C_32
REMARK    7  A    between atoms: O_4  and  C_30
REMARK    8  A    between atoms: O_4  and  C_33
REMARK    9  A    between atoms: N_5  and  C_12
REMARK   10  A    between atoms: N_5  and  C_18
REMARK   11  A    between atoms: N_5  and  C_20
REMARK   12  A    between atoms: C_7  and  C_8
REMARK   13  A    between atoms: C_7  and  C_9
REMARK   14  A    between atoms: C_7  and  C_11
REMARK   15  A    between atoms: C_7  and  C_15
REMARK   16  A    between atoms: C_8  and  C_13
REMARK   17  A    between atoms: C_8  and  C_14
REMARK   18  A    between atoms: C_9  and  C_10
REMARK   19  A    between atoms: C_10  and  C_12
REMARK   20  A    between atoms: C_18  and  C_22
REMARK   21  A    between atoms: C_22  and  C_24
REMARK                            x       y       z     vdW  Elec       q    Type
REMARK                         _______ _______ _______ _____ _____    ______ ____
ROOT
ATOM      1  C   UNL     1     176.879 176.983 169.344  0.00  0.00    +0.028 C 
ENDROOT
BRANCH   1   2
ATOM      2  C   UNL     1     175.510 177.380 170.004  0.00  0.00    +0.085 C 
BRANCH   2   7
ATOM      3  C   UNL     1     173.977 174.000 169.044  0.00  0.00    +0.162 A 
ATOM      4  C   UNL     1     172.689 174.115 169.567  0.00  0.00    +0.162 A 
ATOM      5  C   UNL     1     172.309 175.281 170.233  0.00  0.00    +0.050 A 
ATOM      6  C   UNL     1     173.215 176.332 170.373  0.00  0.00    +0.009 A 
ATOM      7  C   UNL     1     174.503 176.216 169.849  0.00  0.00    -0.024 A 
ATOM      8  C   UNL     1     174.884 175.049 169.184  0.00  0.00    +0.054 A 
BRANCH   3   9
ATOM      9  O   UNL     1     174.360 172.866 168.392  0.00  0.00    -0.491 OA
ATOM     10  C   UNL     1     175.748 172.541 168.420  0.00  0.00    +0.277 C 
ENDBRANCH   3   9
BRANCH   4  11
ATOM     11  O   UNL     1     171.794 173.096 169.438  0.00  0.00    -0.491 OA
ATOM     12  C   UNL     1     170.884 173.168 168.343  0.00  0.00    +0.277 C 
ENDBRANCH   4  11
ENDBRANCH   2   7
BRANCH   2  13
ATOM     13  C   UNL     1     174.919 178.671 169.293  0.00  0.00    +0.007 C 
ATOM     14  C   UNL     1     175.802 179.922 169.475  0.00  0.00    +0.009 C 
ATOM     15  C   UNL     1     174.636 178.492 167.791  0.00  0.00    +0.009 C 
ENDBRANCH   2  13
BRANCH   2  16
ATOM     16  C   UNL     1     175.797 177.718 171.429  0.00  0.00    +0.074 C 
ATOM     17  N   UNL     1     176.004 177.981 172.540  0.00  0.00    -0.196 NA
ENDBRANCH   2  16
ENDBRANCH   1   2
BRANCH   1  18
ATOM     18  C   UNL     1     178.125 177.227 170.222  0.00  0.00    +0.017 C 
BRANCH  18  19
ATOM     19  C   UNL     1     179.039 176.000 170.305  0.00  0.00    +0.084 C 
BRANCH  19  20
ATOM     20  N   UNL     1     179.845 176.002 171.519  0.00  0.00    -0.305 NA
ATOM     21  C   UNL     1     179.527 177.166 172.348  0.00  0.00    +0.104 C 
BRANCH  20  22
ATOM     22  C   UNL     1     179.637 174.767 172.279  0.00  0.00    +0.088 C 
BRANCH  22  23
ATOM     23  C   UNL     1     178.567 174.958 173.353  0.00  0.00    +0.050 C 
BRANCH  23  24
ATOM     24  C   UNL     1     177.458 173.943 173.218  0.00  0.00    -0.042 A 
ATOM     25  C   UNL     1     176.256 174.300 172.608  0.00  0.00    +0.007 A 
ATOM     26  C   UNL     1     175.232 173.362 172.484  0.00  0.00    +0.049 A 
ATOM     27  C   UNL     1     175.408 172.068 172.972  0.00  0.00    +0.161 A 
ATOM     28  C   UNL     1     176.611 171.710 173.583  0.00  0.00    +0.162 A 
ATOM     29  C   UNL     1     177.636 172.649 173.706  0.00  0.00    +0.053 A 
BRANCH  28  30
ATOM     30  O   UNL     1     176.795 170.449 174.062  0.00  0.00    -0.491 OA
ATOM     31  C   UNL     1     178.061 170.159 174.654  0.00  0.00    +0.277 C 
ENDBRANCH  28  30
BRANCH  27  32
ATOM     32  O   UNL     1     174.400 171.160 172.845  0.00  0.00    -0.491 OA
ATOM     33  C   UNL     1     173.761 171.076 171.574  0.00  0.00    +0.277 C 
ENDBRANCH  27  32
ENDBRANCH  23  24
ENDBRANCH  22  23
ENDBRANCH  20  22
ENDBRANCH  19  20
ENDBRANCH  18  19
ENDBRANCH   1  18
TORSDOF 14
