REMARK VINA RESULT:      -6.5      1.995      2.754
REMARK  Name = 2520
REMARK  21 active torsions:
REMARK  status: ('A' for Active; 'I' for Inactive)
REMARK    1  A    between atoms: O_1  and  C_19
REMARK    2  A    between atoms: O_1  and  C_28
REMARK    3  A    between atoms: O_2  and  C_23
REMARK    4  A    between atoms: O_2  and  C_31
REMARK    5  A    between atoms: O_3  and  C_27
REMARK    6  A    between atoms: O_3  and  C_32
REMARK    7  A    between atoms: O_4  and  C_30
REMARK    8  A    between atoms: O_4  and  C_33
REMARK    9  A    between atoms: N_5  and  C_12
REMARK   10  A    between atoms: N_5  and  C_18
REMARK   11  A    between atoms: N_5  and  C_20
REMARK   12  A    between atoms: C_7  and  C_8
REMARK   13  A    between atoms: C_7  and  C_9
REMARK   14  A    between atoms: C_7  and  C_11
REMARK   15  A    between atoms: C_7  and  C_15
REMARK   16  A    between atoms: C_8  and  C_13
REMARK   17  A    between atoms: C_8  and  C_14
REMARK   18  A    between atoms: C_9  and  C_10
REMARK   19  A    between atoms: C_10  and  C_12
REMARK   20  A    between atoms: C_18  and  C_22
REMARK   21  A    between atoms: C_22  and  C_24
REMARK                            x       y       z     vdW  Elec       q    Type
REMARK                         _______ _______ _______ _____ _____    ______ ____
ROOT
ATOM      1  C   UNL     1     172.885 174.226 170.916  0.00  0.00    +0.028 C 
ENDROOT
BRANCH   1   2
ATOM      2  C   UNL     1     172.607 174.954 169.551  0.00  0.00    +0.085 C 
BRANCH   2   7
ATOM      3  C   UNL     1     174.295 178.133 168.229  0.00  0.00    +0.162 A 
ATOM      4  C   UNL     1     174.869 178.651 169.390  0.00  0.00    +0.162 A 
ATOM      5  C   UNL     1     174.715 177.979 170.603  0.00  0.00    +0.050 A 
ATOM      6  C   UNL     1     173.988 176.790 170.655  0.00  0.00    +0.009 A 
ATOM      7  C   UNL     1     173.414 176.273 169.494  0.00  0.00    -0.024 A 
ATOM      8  C   UNL     1     173.567 176.944 168.280  0.00  0.00    +0.054 A 
BRANCH   3   9
ATOM      9  O   UNL     1     174.438 178.779 167.038  0.00  0.00    -0.491 OA
ATOM     10  C   UNL     1     173.957 178.109 165.875  0.00  0.00    +0.277 C 
ENDBRANCH   3   9
BRANCH   4  11
ATOM     11  O   UNL     1     175.581 179.812 169.353  0.00  0.00    -0.491 OA
ATOM     12  C   UNL     1     176.872 179.800 169.958  0.00  0.00    +0.277 C 
ENDBRANCH   4  11
ENDBRANCH   2   7
BRANCH   2  13
ATOM     13  C   UNL     1     171.060 175.289 169.422  0.00  0.00    +0.007 C 
ATOM     14  C   UNL     1     170.227 174.112 168.877  0.00  0.00    +0.009 C 
ATOM     15  C   UNL     1     170.408 175.781 170.726  0.00  0.00    +0.009 C 
ENDBRANCH   2  13
BRANCH   2  16
ATOM     16  C   UNL     1     172.973 173.997 168.467  0.00  0.00    +0.074 C 
ATOM     17  N   UNL     1     173.242 173.249 167.621  0.00  0.00    -0.196 NA
ENDBRANCH   2  16
ENDBRANCH   1   2
BRANCH   1  18
ATOM     18  C   UNL     1     172.705 172.693 170.890  0.00  0.00    +0.017 C 
BRANCH  18  19
ATOM     19  C   UNL     1     172.518 172.096 172.288  0.00  0.00    +0.084 C 
BRANCH  19  20
ATOM     20  N   UNL     1     173.655 171.278 172.689  0.00  0.00    -0.305 NA
ATOM     21  C   UNL     1     173.998 170.319 171.636  0.00  0.00    +0.104 C 
BRANCH  20  22
ATOM     22  C   UNL     1     174.812 172.120 173.003  0.00  0.00    +0.088 C 
BRANCH  22  23
ATOM     23  C   UNL     1     175.980 171.816 172.067  0.00  0.00    +0.050 C 
BRANCH  23  24
ATOM     24  C   UNL     1     176.404 173.042 171.294  0.00  0.00    -0.042 A 
ATOM     25  C   UNL     1     176.358 173.037 169.900  0.00  0.00    +0.007 A 
ATOM     26  C   UNL     1     176.750 174.170 169.187  0.00  0.00    +0.049 A 
ATOM     27  C   UNL     1     177.190 175.305 169.866  0.00  0.00    +0.161 A 
ATOM     28  C   UNL     1     177.237 175.309 171.261  0.00  0.00    +0.162 A 
ATOM     29  C   UNL     1     176.844 174.176 171.975  0.00  0.00    +0.053 A 
BRANCH  28  30
ATOM     30  O   UNL     1     177.665 176.412 171.936  0.00  0.00    -0.491 OA
ATOM     31  C   UNL     1     177.612 176.361 173.361  0.00  0.00    +0.277 C 
ENDBRANCH  28  30
BRANCH  27  32
ATOM     32  O   UNL     1     177.571 176.404 169.158  0.00  0.00    -0.491 OA
ATOM     33  C   UNL     1     178.940 176.480 168.766  0.00  0.00    +0.277 C 
ENDBRANCH  27  32
ENDBRANCH  23  24
ENDBRANCH  22  23
ENDBRANCH  20  22
ENDBRANCH  19  20
ENDBRANCH  18  19
ENDBRANCH   1  18
TORSDOF 14
