REMARK SMILES CC(C)(O)CC[C@@H](O)[C@](C)(O)[C@H]1CC[C@@]2(O)C3=CC(=O)[C@@H]4C[C@@H](O)[C@@H](O)C[C@]4(C)[C@H]3[C@H](O)C[C@]12C
REMARK SMILES IDX 6 1 7 2 9 3 10 4 12 5 15 6 34 7 17 8 14 9 33 10 35 11 30 12
REMARK SMILES IDX 18 13 13 14 31 15 28 16 19 17 21 18 27 19 29 20 20 21 22 22
REMARK SMILES IDX 25 23 23 26 16 27 32 32 26 37 24 42 11 47 8 52 5 57 2 58
REMARK SMILES IDX 1 59 3 60 4 61
REMARK H PARENT 16 28 32 33 26 38 24 43 11 48 8 53 4 62
REMARK Flexibility Score: inf
ROOT
ATOM      1  C   UNL     1      -4.899   0.314  -0.096  1.00  0.00     0.038 C 
ENDROOT
BRANCH   1   2
ATOM      2  C   UNL     1      -4.471  -1.159   0.050  1.00  0.00     0.146 C 
BRANCH   2   3
ATOM      3  C   UNL     1      -3.061  -1.473  -0.520  1.00  0.00     0.091 C 
ATOM      4  C   UNL     1      -3.006  -1.175  -2.027  1.00  0.00     0.045 C 
BRANCH   3   5
ATOM      5  C   UNL     1      -1.964  -0.701   0.200  1.00  0.00     0.033 C 
ATOM      6  C   UNL     1       0.281  -0.382   0.952  1.00  0.00     0.092 C 
ATOM      7  C   UNL     1      -0.505  -1.004  -0.231  1.00  0.00     0.008 C 
ATOM      8  C   UNL     1       1.774  -0.569   0.773  1.00  0.00    -0.029 C 
ATOM      9  C   UNL     1      -0.476  -0.935   2.168  1.00  0.00     0.041 C 
ATOM     10  C   UNL     1      -0.077  -0.300  -1.526  1.00  0.00     0.043 C 
ATOM     11  C   UNL     1      -0.279  -2.535  -0.372  1.00  0.00     0.015 C 
ATOM     12  C   UNL     1       2.332   0.016  -0.542  1.00  0.00     0.054 C 
ATOM     13  C   UNL     1       2.525  -1.153   1.717  1.00  0.00     0.050 C 
ATOM     14  C   UNL     1      -1.956  -0.951   1.726  1.00  0.00     0.010 C 
ATOM     15  C   UNL     1       1.442  -0.427  -1.762  1.00  0.00     0.123 C 
ATOM     16  C   UNL     1       3.889  -0.245  -0.752  1.00  0.00    -0.011 C 
ATOM     17  C   UNL     1       3.997  -1.152   1.609  1.00  0.00     0.159 C 
ATOM     18  C   UNL     1       4.632  -0.203   0.615  1.00  0.00     0.070 C 
ATOM     19  C   UNL     1       4.523   0.811  -1.731  1.00  0.00     0.042 C 
ATOM     20  C   UNL     1       4.130  -1.650  -1.372  1.00  0.00     0.013 C 
ATOM     21  O   UNL     1       4.669  -1.846   2.370  1.00  0.00    -0.295 OA
ATOM     22  C   UNL     1       4.740   1.190   1.261  1.00  0.00     0.047 C 
ATOM     23  C   UNL     1       5.390   1.891  -1.075  1.00  0.00     0.143 C 
ATOM     24 WAT  UNL     1       3.312  -3.695   4.305  1.00  0.00     0.000 W 
ATOM     25 WAT  UNL     1       7.664  -1.690   2.293  1.00  0.00     0.000 W 
ATOM     26  C   UNL     1       4.793   2.333   0.253  1.00  0.00     0.143 C 
BRANCH   6  27
ATOM     27  O   UNL     1       0.063   1.047   0.981  1.00  0.00    -0.385 OA
ATOM     28  H   UNL     1       0.386   1.467   0.171  1.00  0.00     0.211 HD
ATOM     29 WAT  UNL     1       1.747   2.116   3.221  1.00  0.00     0.000 W 
ATOM     30 WAT  UNL     1      -2.910   1.449   1.015  1.00  0.00     0.000 W 
ATOM     31 WAT  UNL     1       1.055   2.336  -1.502  1.00  0.00     0.000 W 
ENDBRANCH   6  27
BRANCH  15  32
ATOM     32  O   UNL     1       1.754   0.347  -2.917  1.00  0.00    -0.392 OA
ATOM     33  H   UNL     1       2.508  -0.076  -3.361  1.00  0.00     0.210 HD
ATOM     34 WAT  UNL     1       2.686   3.032  -1.957  1.00  0.00     0.000 W 
ATOM     35 WAT  UNL     1      -0.593   0.150  -4.775  1.00  0.00     0.000 W 
ATOM     36 WAT  UNL     1       4.059  -0.946  -4.276  1.00  0.00     0.000 W 
ENDBRANCH  15  32
BRANCH  23  37
ATOM     37  O   UNL     1       6.708   1.375  -0.882  1.00  0.00    -0.390 OA
ATOM     38  H   UNL     1       7.270   2.109  -0.582  1.00  0.00     0.211 HD
ATOM     39 WAT  UNL     1       7.728   0.522  -3.572  1.00  0.00     0.000 W 
ATOM     40 WAT  UNL     1       6.561  -0.607   1.364  1.00  0.00     0.000 W 
ATOM     41 WAT  UNL     1       8.427   3.618   0.037  1.00  0.00     0.000 W 
ENDBRANCH  23  37
BRANCH  26  42
ATOM     42  O   UNL     1       5.555   3.400   0.810  1.00  0.00    -0.390 OA
ATOM     43  H   UNL     1       6.447   3.067   1.009  1.00  0.00     0.211 HD
ATOM     44 WAT  UNL     1       4.279   4.117   3.428  1.00  0.00     0.000 W 
ATOM     45 WAT  UNL     1       5.854   5.478  -1.333  1.00  0.00     0.000 W 
ATOM     46 WAT  UNL     1       8.280   2.383   1.420  1.00  0.00     0.000 W 
ENDBRANCH  26  42
ENDBRANCH   3   5
BRANCH   3  47
ATOM     47  O   UNL     1      -2.813  -2.875  -0.352  1.00  0.00    -0.387 OA
ATOM     48  H   UNL     1      -3.129  -3.148   0.525  1.00  0.00     0.211 HD
ATOM     49 WAT  UNL     1       0.165  -3.240  -0.357  1.00  0.00     0.000 W 
ATOM     50 WAT  UNL     1      -4.503  -4.309  -2.374  1.00  0.00     0.000 W 
ATOM     51 WAT  UNL     1      -3.781  -3.710   2.330  1.00  0.00     0.000 W 
ENDBRANCH   3  47
ENDBRANCH   2   3
BRANCH   2  52
ATOM     52  O   UNL     1      -5.446  -1.978  -0.604  1.00  0.00    -0.390 OA
ATOM     53  H   UNL     1      -5.165  -2.903  -0.500  1.00  0.00     0.211 HD
ATOM     54 WAT  UNL     1      -5.324  -1.335  -3.532  1.00  0.00     0.000 W 
ATOM     55 WAT  UNL     1      -8.024  -1.659   0.896  1.00  0.00     0.000 W 
ATOM     56 WAT  UNL     1      -4.588  -4.806  -0.288  1.00  0.00     0.000 W 
ENDBRANCH   2  52
ENDBRANCH   1   2
BRANCH   1  57
ATOM     57  C   UNL     1      -6.321   0.558   0.441  1.00  0.00     0.037 C 
BRANCH  57  58
ATOM     58  C   UNL     1      -6.838   2.000   0.253  1.00  0.00     0.059 C 
ATOM     59  C   UNL     1      -8.281   2.098   0.759  1.00  0.00     0.042 C 
ATOM     60  C   UNL     1      -5.964   3.034   0.968  1.00  0.00     0.042 C 
BRANCH  58  61
ATOM     61  O   UNL     1      -6.841   2.299  -1.144  1.00  0.00    -0.390 OA
ATOM     62  H   UNL     1      -5.926   2.460  -1.429  1.00  0.00     0.211 HD
ATOM     63 WAT  UNL     1      -8.331   4.881  -1.483  1.00  0.00     0.000 W 
ATOM     64 WAT  UNL     1      -7.779  -0.172  -2.565  1.00  0.00     0.000 W 
ATOM     65 WAT  UNL     1      -4.043   2.791  -2.016  1.00  0.00     0.000 W 
ENDBRANCH  58  61
ENDBRANCH  57  58
ENDBRANCH   1  57
TORSDOF 12
