MODEL 1
REMARK VINA RESULT:      -6.1      0.000      0.000
REMARK  5 active torsions:
REMARK  status: ('A' for Active; 'I' for Inactive)
REMARK    1  A    between atoms: C_1  and  O_7 
REMARK    2  A    between atoms: C_2  and  O_13 
REMARK    3  A    between atoms: C_4  and  C_9 
REMARK    4  A    between atoms: C_6  and  O_15 
REMARK    5  A    between atoms: C_9  and  O_11 
ROOT
ATOM      1  C   UNL     1     142.781 152.254 129.819  0.00  0.00     0.201 A 
ATOM      2  C   UNL     1     144.044 152.784 130.084  0.00  0.00     0.163 A 
ATOM      3  C   UNL     1     145.182 151.999 129.904  0.00  0.00     0.064 A 
ATOM      4  C   UNL     1     145.058 150.681 129.460  0.00  0.00     0.066 A 
ATOM      5  C   UNL     1     143.795 150.152 129.195  0.00  0.00     0.064 A 
ATOM      6  C   UNL     1     142.657 150.937 129.375  0.00  0.00     0.163 A 
ENDROOT
BRANCH   4   7
ATOM      7  C   UNL     1     146.244 149.862 129.271  0.00  0.00     0.337 C 
ATOM      8  O   UNL     1     146.826 149.682 128.196  0.00  0.00    -0.245 OA
BRANCH   7   9
ATOM      9  O   UNL     1     146.672 149.292 130.430  0.00  0.00    -0.477 OA
ATOM     10  H   UNL     1     146.376 148.359 130.509  0.00  0.00     0.295 HD
ENDBRANCH   7   9
ENDBRANCH   4   7
BRANCH   2  11
ATOM     11  O   UNL     1     144.179 154.070 130.516  0.00  0.00    -0.503 OA
ATOM     12  H   UNL     1     143.293 154.422 130.707  0.00  0.00     0.292 HD
ENDBRANCH   2  11
BRANCH   6  13
ATOM     13  O   UNL     1     141.429 150.408 129.114  0.00  0.00    -0.503 OA
ATOM     14  H   UNL     1     140.951 150.287 129.954  0.00  0.00     0.292 HD
ENDBRANCH   6  13
BRANCH   1  15
ATOM     15  O   UNL     1     141.668 153.022 129.994  0.00  0.00    -0.501 OA
ATOM     16  H   UNL     1     141.348 153.302 129.119  0.00  0.00     0.292 HD
ENDBRANCH   1  15
TORSDOF 5
ENDMDL
MODEL 2
REMARK VINA RESULT:      -6.1      0.011      2.402
REMARK  5 active torsions:
REMARK  status: ('A' for Active; 'I' for Inactive)
REMARK    1  A    between atoms: C_1  and  O_7 
REMARK    2  A    between atoms: C_2  and  O_13 
REMARK    3  A    between atoms: C_4  and  C_9 
REMARK    4  A    between atoms: C_6  and  O_15 
REMARK    5  A    between atoms: C_9  and  O_11 
ROOT
ATOM      1  C   UNL     1     142.779 152.248 129.817  0.00  0.00     0.201 A 
ATOM      2  C   UNL     1     142.652 150.932 129.371  0.00  0.00     0.163 A 
ATOM      3  C   UNL     1     143.789 150.146 129.189  0.00  0.00     0.064 A 
ATOM      4  C   UNL     1     145.053 150.674 129.451  0.00  0.00     0.066 A 
ATOM      5  C   UNL     1     145.179 151.989 129.897  0.00  0.00     0.064 A 
ATOM      6  C   UNL     1     144.043 152.777 130.079  0.00  0.00     0.163 A 
ENDROOT
BRANCH   4   7
ATOM      7  C   UNL     1     146.239 149.853 129.262  0.00  0.00     0.337 C 
ATOM      8  O   UNL     1     146.821 149.674 128.188  0.00  0.00    -0.245 OA
BRANCH   7   9
ATOM      9  O   UNL     1     146.663 149.278 130.420  0.00  0.00    -0.477 OA
ATOM     10  H   UNL     1     147.392 149.788 130.836  0.00  0.00     0.295 HD
ENDBRANCH   7   9
ENDBRANCH   4   7
BRANCH   2  11
ATOM     11  O   UNL     1     141.423 150.404 129.112  0.00  0.00    -0.503 OA
ATOM     12  H   UNL     1     141.103 150.773 128.271  0.00  0.00     0.292 HD
ENDBRANCH   2  11
BRANCH   6  13
ATOM     13  O   UNL     1     144.179 154.061 130.514  0.00  0.00    -0.503 OA
ATOM     14  H   UNL     1     143.882 154.115 131.440  0.00  0.00     0.292 HD
ENDBRANCH   6  13
BRANCH   1  15
ATOM     15  O   UNL     1     141.667 153.018 129.996  0.00  0.00    -0.501 OA
ATOM     16  H   UNL     1     141.209 152.713 130.798  0.00  0.00     0.292 HD
ENDBRANCH   1  15
TORSDOF 5
ENDMDL
MODEL 3
REMARK VINA RESULT:      -5.8      1.779      3.276
REMARK  5 active torsions:
REMARK  status: ('A' for Active; 'I' for Inactive)
REMARK    1  A    between atoms: C_1  and  O_7 
REMARK    2  A    between atoms: C_2  and  O_13 
REMARK    3  A    between atoms: C_4  and  C_9 
REMARK    4  A    between atoms: C_6  and  O_15 
REMARK    5  A    between atoms: C_9  and  O_11 
ROOT
ATOM      1  C   UNL     1     144.078 150.998 128.227  0.00  0.00     0.201 A 
ATOM      2  C   UNL     1     144.339 149.706 127.769  0.00  0.00     0.163 A 
ATOM      3  C   UNL     1     145.473 149.025 128.210  0.00  0.00     0.064 A 
ATOM      4  C   UNL     1     146.348 149.635 129.110  0.00  0.00     0.066 A 
ATOM      5  C   UNL     1     146.087 150.926 129.567  0.00  0.00     0.064 A 
ATOM      6  C   UNL     1     144.954 151.608 129.127  0.00  0.00     0.163 A 
ENDROOT
BRANCH   4   7
ATOM      7  C   UNL     1     147.530 148.924 129.570  0.00  0.00     0.337 C 
ATOM      8  O   UNL     1     147.885 148.815 130.748  0.00  0.00    -0.245 OA
BRANCH   7   9
ATOM      9  O   UNL     1     148.236 148.370 128.547  0.00  0.00    -0.477 OA
ATOM     10  H   UNL     1     148.972 148.949 128.255  0.00  0.00     0.295 HD
ENDBRANCH   7   9
ENDBRANCH   4   7
BRANCH   2  11
ATOM     11  O   UNL     1     143.491 149.098 126.892  0.00  0.00    -0.503 OA
ATOM     12  H   UNL     1     143.956 148.987 126.045  0.00  0.00     0.292 HD
ENDBRANCH   2  11
BRANCH   6  13
ATOM     13  O   UNL     1     144.711 152.869 129.580  0.00  0.00    -0.503 OA
ATOM     14  H   UNL     1     143.820 153.142 129.297  0.00  0.00     0.292 HD
ENDBRANCH   6  13
BRANCH   1  15
ATOM     15  O   UNL     1     142.969 151.664 127.797  0.00  0.00    -0.501 OA
ATOM     16  H   UNL     1     142.361 151.019 127.396  0.00  0.00     0.292 HD
ENDBRANCH   1  15
TORSDOF 5
ENDMDL
MODEL 4
REMARK VINA RESULT:      -5.8      2.182      2.339
REMARK  5 active torsions:
REMARK  status: ('A' for Active; 'I' for Inactive)
REMARK    1  A    between atoms: C_1  and  O_7 
REMARK    2  A    between atoms: C_2  and  O_13 
REMARK    3  A    between atoms: C_4  and  C_9 
REMARK    4  A    between atoms: C_6  and  O_15 
REMARK    5  A    between atoms: C_9  and  O_11 
ROOT
ATOM      1  C   UNL     1     144.276 150.937 128.220  0.00  0.00     0.201 A 
ATOM      2  C   UNL     1     145.554 151.496 128.227  0.00  0.00     0.163 A 
ATOM      3  C   UNL     1     146.615 150.805 128.810  0.00  0.00     0.064 A 
ATOM      4  C   UNL     1     146.399 149.554 129.389  0.00  0.00     0.066 A 
ATOM      5  C   UNL     1     145.122 148.995 129.382  0.00  0.00     0.064 A 
ATOM      6  C   UNL     1     144.060 149.685 128.799  0.00  0.00     0.163 A 
ENDROOT
BRANCH   4   7
ATOM      7  C   UNL     1     147.506 148.833 129.997  0.00  0.00     0.337 C 
ATOM      8  O   UNL     1     148.370 148.198 129.383  0.00  0.00    -0.245 OA
BRANCH   7   9
ATOM      9  O   UNL     1     147.503 148.924 131.355  0.00  0.00    -0.477 OA
ATOM     10  H   UNL     1     148.109 149.627 131.675  0.00  0.00     0.295 HD
ENDBRANCH   7   9
ENDBRANCH   4   7
BRANCH   2  11
ATOM     11  O   UNL     1     145.779 152.717 127.663  0.00  0.00    -0.503 OA
ATOM     12  H   UNL     1     146.611 152.673 127.161  0.00  0.00     0.292 HD
ENDBRANCH   2  11
BRANCH   6  13
ATOM     13  O   UNL     1     142.817 149.129 128.800  0.00  0.00    -0.503 OA
ATOM     14  H   UNL     1     142.671 148.675 127.951  0.00  0.00     0.292 HD
ENDBRANCH   6  13
BRANCH   1  15
ATOM     15  O   UNL     1     143.238 151.612 127.649  0.00  0.00    -0.501 OA
ATOM     16  H   UNL     1     142.945 151.116 126.865  0.00  0.00     0.292 HD
ENDBRANCH   1  15
TORSDOF 5
ENDMDL
MODEL 5
REMARK VINA RESULT:      -5.7     24.208     25.303
REMARK  5 active torsions:
REMARK  status: ('A' for Active; 'I' for Inactive)
REMARK    1  A    between atoms: C_1  and  O_7 
REMARK    2  A    between atoms: C_2  and  O_13 
REMARK    3  A    between atoms: C_4  and  C_9 
REMARK    4  A    between atoms: C_6  and  O_15 
REMARK    5  A    between atoms: C_9  and  O_11 
ROOT
ATOM      1  C   UNL     1     155.214 156.020 152.649  0.00  0.00     0.201 A 
ATOM      2  C   UNL     1     153.820 155.990 152.698  0.00  0.00     0.163 A 
ATOM      3  C   UNL     1     153.139 154.801 152.437  0.00  0.00     0.064 A 
ATOM      4  C   UNL     1     153.850 153.642 152.126  0.00  0.00     0.066 A 
ATOM      5  C   UNL     1     155.244 153.673 152.077  0.00  0.00     0.064 A 
ATOM      6  C   UNL     1     155.926 154.861 152.338  0.00  0.00     0.163 A 
ENDROOT
BRANCH   4   7
ATOM      7  C   UNL     1     153.140 152.403 151.854  0.00  0.00     0.337 C 
ATOM      8  O   UNL     1     151.988 152.320 151.417  0.00  0.00    -0.245 OA
BRANCH   7   9
ATOM      9  O   UNL     1     153.888 151.302 152.138  0.00  0.00    -0.477 OA
ATOM     10  H   UNL     1     154.285 150.912 151.329  0.00  0.00     0.295 HD
ENDBRANCH   7   9
ENDBRANCH   4   7
BRANCH   2  11
ATOM     11  O   UNL     1     153.112 157.114 153.003  0.00  0.00    -0.503 OA
ATOM     12  H   UNL     1     153.739 157.798 153.297  0.00  0.00     0.292 HD
ENDBRANCH   2  11
BRANCH   6  13
ATOM     13  O   UNL     1     157.287 154.879 152.286  0.00  0.00    -0.503 OA
ATOM     14  H   UNL     1     157.614 155.636 152.802  0.00  0.00     0.292 HD
ENDBRANCH   6  13
BRANCH   1  15
ATOM     15  O   UNL     1     155.880 157.182 152.905  0.00  0.00    -0.501 OA
ATOM     16  H   UNL     1     156.182 157.165 153.830  0.00  0.00     0.292 HD
ENDBRANCH   1  15
TORSDOF 5
ENDMDL
MODEL 6
REMARK VINA RESULT:      -5.7     24.207     25.292
REMARK  5 active torsions:
REMARK  status: ('A' for Active; 'I' for Inactive)
REMARK    1  A    between atoms: C_1  and  O_7 
REMARK    2  A    between atoms: C_2  and  O_13 
REMARK    3  A    between atoms: C_4  and  C_9 
REMARK    4  A    between atoms: C_6  and  O_15 
REMARK    5  A    between atoms: C_9  and  O_11 
ROOT
ATOM      1  C   UNL     1     155.216 156.019 152.649  0.00  0.00     0.201 A 
ATOM      2  C   UNL     1     155.927 154.857 152.348  0.00  0.00     0.163 A 
ATOM      3  C   UNL     1     155.245 153.670 152.086  0.00  0.00     0.064 A 
ATOM      4  C   UNL     1     153.851 153.642 152.126  0.00  0.00     0.066 A 
ATOM      5  C   UNL     1     153.140 154.803 152.427  0.00  0.00     0.064 A 
ATOM      6  C   UNL     1     153.821 155.991 152.689  0.00  0.00     0.163 A 
ENDROOT
BRANCH   4   7
ATOM      7  C   UNL     1     153.139 152.404 151.852  0.00  0.00     0.337 C 
ATOM      8  O   UNL     1     151.993 152.322 151.399  0.00  0.00    -0.245 OA
BRANCH   7   9
ATOM      9  O   UNL     1     153.880 151.301 152.149  0.00  0.00    -0.477 OA
ATOM     10  H   UNL     1     153.771 150.595 151.477  0.00  0.00     0.295 HD
ENDBRANCH   7   9
ENDBRANCH   4   7
BRANCH   2  11
ATOM     11  O   UNL     1     157.289 154.871 152.304  0.00  0.00    -0.503 OA
ATOM     12  H   UNL     1     157.603 153.952 152.250  0.00  0.00     0.292 HD
ENDBRANCH   2  11
BRANCH   6  13
ATOM     13  O   UNL     1     153.115 157.119 152.983  0.00  0.00    -0.503 OA
ATOM     14  H   UNL     1     153.665 157.702 153.536  0.00  0.00     0.292 HD
ENDBRANCH   6  13
BRANCH   1  15
ATOM     15  O   UNL     1     155.882 157.180 152.905  0.00  0.00    -0.501 OA
ATOM     16  H   UNL     1     155.752 157.409 153.841  0.00  0.00     0.292 HD
ENDBRANCH   1  15
TORSDOF 5
ENDMDL
MODEL 7
REMARK VINA RESULT:      -5.7      2.296      5.194
REMARK  5 active torsions:
REMARK  status: ('A' for Active; 'I' for Inactive)
REMARK    1  A    between atoms: C_1  and  O_7 
REMARK    2  A    between atoms: C_2  and  O_13 
REMARK    3  A    between atoms: C_4  and  C_9 
REMARK    4  A    between atoms: C_6  and  O_15 
REMARK    5  A    between atoms: C_9  and  O_11 
ROOT
ATOM      1  C   UNL     1     147.011 148.719 128.590  0.00  0.00     0.201 A 
ATOM      2  C   UNL     1     146.456 148.707 127.310  0.00  0.00     0.163 A 
ATOM      3  C   UNL     1     145.216 149.302 127.083  0.00  0.00     0.064 A 
ATOM      4  C   UNL     1     144.528 149.907 128.135  0.00  0.00     0.066 A 
ATOM      5  C   UNL     1     145.083 149.918 129.414  0.00  0.00     0.064 A 
ATOM      6  C   UNL     1     146.323 149.324 129.643  0.00  0.00     0.163 A 
ENDROOT
BRANCH   4   7
ATOM      7  C   UNL     1     143.234 150.528 127.897  0.00  0.00     0.337 C 
ATOM      8  O   UNL     1     142.189 150.253 128.494  0.00  0.00    -0.245 OA
BRANCH   7   9
ATOM      9  O   UNL     1     143.283 151.474 126.920  0.00  0.00    -0.477 OA
ATOM     10  H   UNL     1     142.386 151.740 126.623  0.00  0.00     0.295 HD
ENDBRANCH   7   9
ENDBRANCH   4   7
BRANCH   2  11
ATOM     11  O   UNL     1     147.119 148.121 126.274  0.00  0.00    -0.503 OA
ATOM     12  H   UNL     1     147.077 147.156 126.391  0.00  0.00     0.292 HD
ENDBRANCH   2  11
BRANCH   6  13
ATOM     13  O   UNL     1     146.854 149.341 130.897  0.00  0.00    -0.503 OA
ATOM     14  H   UNL     1     146.240 148.896 131.508  0.00  0.00     0.292 HD
ENDBRANCH   6  13
BRANCH   1  15
ATOM     15  O   UNL     1     148.225 148.139 128.813  0.00  0.00    -0.501 OA
ATOM     16  H   UNL     1     148.166 147.200 128.565  0.00  0.00     0.292 HD
ENDBRANCH   1  15
TORSDOF 5
ENDMDL
MODEL 8
REMARK VINA RESULT:      -5.7     23.907     25.194
REMARK  5 active torsions:
REMARK  status: ('A' for Active; 'I' for Inactive)
REMARK    1  A    between atoms: C_1  and  O_7 
REMARK    2  A    between atoms: C_2  and  O_13 
REMARK    3  A    between atoms: C_4  and  C_9 
REMARK    4  A    between atoms: C_6  and  O_15 
REMARK    5  A    between atoms: C_9  and  O_11 
ROOT
ATOM      1  C   UNL     1     155.725 155.126 152.355  0.00  0.00     0.201 A 
ATOM      2  C   UNL     1     154.939 154.043 151.959  0.00  0.00     0.163 A 
ATOM      3  C   UNL     1     153.585 154.229 151.682  0.00  0.00     0.064 A 
ATOM      4  C   UNL     1     153.015 155.497 151.801  0.00  0.00     0.066 A 
ATOM      5  C   UNL     1     153.801 156.579 152.197  0.00  0.00     0.064 A 
ATOM      6  C   UNL     1     155.155 156.394 152.475  0.00  0.00     0.163 A 
ENDROOT
BRANCH   4   7
ATOM      7  C   UNL     1     151.603 155.691 151.511  0.00  0.00     0.337 C 
ATOM      8  O   UNL     1     151.080 156.761 151.183  0.00  0.00    -0.245 OA
BRANCH   7   9
ATOM      9  O   UNL     1     150.884 154.543 151.639  0.00  0.00    -0.477 OA
ATOM     10  H   UNL     1     151.004 153.948 150.867  0.00  0.00     0.295 HD
ENDBRANCH   7   9
ENDBRANCH   4   7
BRANCH   2  11
ATOM     11  O   UNL     1     155.483 152.800 151.837  0.00  0.00    -0.503 OA
ATOM     12  H   UNL     1     155.758 152.499 152.720  0.00  0.00     0.292 HD
ENDBRANCH   2  11
BRANCH   6  13
ATOM     13  O   UNL     1     155.912 157.459 152.862  0.00  0.00    -0.503 OA
ATOM     14  H   UNL     1     155.361 158.261 152.852  0.00  0.00     0.292 HD
ENDBRANCH   6  13
BRANCH   1  15
ATOM     15  O   UNL     1     157.049 154.945 152.626  0.00  0.00    -0.501 OA
ATOM     16  H   UNL     1     157.215 153.991 152.719  0.00  0.00     0.292 HD
ENDBRANCH   1  15
TORSDOF 5
ENDMDL
MODEL 9
REMARK VINA RESULT:      -5.7     23.911     25.100
REMARK  5 active torsions:
REMARK  status: ('A' for Active; 'I' for Inactive)
REMARK    1  A    between atoms: C_1  and  O_7 
REMARK    2  A    between atoms: C_2  and  O_13 
REMARK    3  A    between atoms: C_4  and  C_9 
REMARK    4  A    between atoms: C_6  and  O_15 
REMARK    5  A    between atoms: C_9  and  O_11 
ROOT
ATOM      1  C   UNL     1     155.723 155.129 152.361  0.00  0.00     0.201 A 
ATOM      2  C   UNL     1     155.155 156.398 152.478  0.00  0.00     0.163 A 
ATOM      3  C   UNL     1     153.802 156.585 152.200  0.00  0.00     0.064 A 
ATOM      4  C   UNL     1     153.014 155.504 151.803  0.00  0.00     0.066 A 
ATOM      5  C   UNL     1     153.582 154.236 151.686  0.00  0.00     0.064 A 
ATOM      6  C   UNL     1     154.936 154.048 151.963  0.00  0.00     0.163 A 
ENDROOT
BRANCH   4   7
ATOM      7  C   UNL     1     151.602 155.699 151.514  0.00  0.00     0.337 C 
ATOM      8  O   UNL     1     151.082 156.767 151.177  0.00  0.00    -0.245 OA
BRANCH   7   9
ATOM      9  O   UNL     1     150.880 154.554 151.654  0.00  0.00    -0.477 OA
ATOM     10  H   UNL     1     151.356 153.775 151.293  0.00  0.00     0.295 HD
ENDBRANCH   7   9
ENDBRANCH   4   7
BRANCH   2  11
ATOM     11  O   UNL     1     155.912 157.463 152.867  0.00  0.00    -0.503 OA
ATOM     12  H   UNL     1     156.844 157.263 152.671  0.00  0.00     0.292 HD
ENDBRANCH   2  11
BRANCH   6  13
ATOM     13  O   UNL     1     155.479 152.804 151.844  0.00  0.00    -0.503 OA
ATOM     14  H   UNL     1     156.408 152.889 151.567  0.00  0.00     0.292 HD
ENDBRANCH   6  13
BRANCH   1  15
ATOM     15  O   UNL     1     157.046 154.946 152.633  0.00  0.00    -0.501 OA
ATOM     16  H   UNL     1     157.210 153.992 152.732  0.00  0.00     0.292 HD
ENDBRANCH   1  15
TORSDOF 5
ENDMDL
MODEL 10
REMARK VINA RESULT:      -5.5     24.486     25.668
REMARK  5 active torsions:
REMARK  status: ('A' for Active; 'I' for Inactive)
REMARK    1  A    between atoms: C_1  and  O_7 
REMARK    2  A    between atoms: C_2  and  O_13 
REMARK    3  A    between atoms: C_4  and  C_9 
REMARK    4  A    between atoms: C_6  and  O_15 
REMARK    5  A    between atoms: C_9  and  O_11 
ROOT
ATOM      1  C   UNL     1     153.989 154.009 152.580  0.00  0.00     0.201 A 
ATOM      2  C   UNL     1     153.416 154.878 153.508  0.00  0.00     0.163 A 
ATOM      3  C   UNL     1     153.652 156.249 153.418  0.00  0.00     0.064 A 
ATOM      4  C   UNL     1     154.462 156.753 152.399  0.00  0.00     0.066 A 
ATOM      5  C   UNL     1     155.035 155.884 151.472  0.00  0.00     0.064 A 
ATOM      6  C   UNL     1     154.799 154.513 151.561  0.00  0.00     0.163 A 
ENDROOT
BRANCH   4   7
ATOM      7  C   UNL     1     154.707 158.184 152.305  0.00  0.00     0.337 C 
ATOM      8  O   UNL     1     154.231 158.936 151.449  0.00  0.00    -0.245 OA
BRANCH   7   9
ATOM      9  O   UNL     1     155.540 158.634 153.282  0.00  0.00    -0.477 OA
ATOM     10  H   UNL     1     156.484 158.525 153.037  0.00  0.00     0.295 HD
ENDBRANCH   7   9
ENDBRANCH   4   7
BRANCH   2  11
ATOM     11  O   UNL     1     152.621 154.399 154.506  0.00  0.00    -0.503 OA
ATOM     12  H   UNL     1     152.740 153.435 154.555  0.00  0.00     0.292 HD
ENDBRANCH   2  11
BRANCH   6  13
ATOM     13  O   UNL     1     155.365 153.674 150.649  0.00  0.00    -0.503 OA
ATOM     14  H   UNL     1     154.729 152.972 150.426  0.00  0.00     0.292 HD
ENDBRANCH   6  13
BRANCH   1  15
ATOM     15  O   UNL     1     153.758 152.668 152.667  0.00  0.00    -0.501 OA
ATOM     16  H   UNL     1     153.955 152.266 151.803  0.00  0.00     0.292 HD
ENDBRANCH   1  15
TORSDOF 5
ENDMDL
