MODEL 1
REMARK VINA RESULT:      -8.4      0.000      0.000
REMARK  13 active torsions:
REMARK  status: ('A' for Active; 'I' for Inactive)
REMARK    1  A    between atoms: C_2  and  O_12 
REMARK    2  A    between atoms: C_3  and  O_10 
REMARK    3  A    between atoms: C_4  and  O_8 
REMARK    4  A    between atoms: C_5  and  O_6 
REMARK    5  A    between atoms: C_22  and  C_23 
REMARK    6  A    between atoms: O_12  and  C_13 
REMARK    7  A    between atoms: C_13  and  C_14 
REMARK    8  A    between atoms: C_15  and  C_16 
REMARK    9  A    between atoms: C_23  and  O_24 
REMARK   10  A    between atoms: O_24  and  C_25 
REMARK   11  A    between atoms: C_26  and  O_34 
REMARK   12  A    between atoms: C_27  and  O_32 
REMARK   13  A    between atoms: C_28  and  O_30 
ROOT
ATOM      1  O   LIG     1      15.136  49.978  24.933  0.00  0.00    -0.341 OA
ATOM      2  C   LIG     1      15.267  51.251  24.306  0.00  0.00     0.282 C 
ATOM      3  C   LIG     1      14.934  51.151  22.817  0.00  0.00     0.201 C 
ATOM      4  C   LIG     1      13.560  50.520  22.594  0.00  0.00     0.179 C 
ATOM      5  C   LIG     1      13.402  49.237  23.410  0.00  0.00     0.177 C 
ATOM      6  C   LIG     1      13.803  49.468  24.869  0.00  0.00     0.178 C 
ENDROOT
BRANCH   6   7
ATOM      7  C   LIG     1      13.764  48.175  25.677  0.00  0.00     0.197 C 
BRANCH   7   8
ATOM      8  O   LIG     1      12.428  47.936  26.082  0.00  0.00    -0.346 OA
BRANCH   8   9
ATOM      9  C   LIG     1      12.200  48.355  27.423  0.00  0.00     0.281 C 
ATOM     10  O   LIG     1      11.973  47.247  28.300  0.00  0.00    -0.346 OA
ATOM     11  C   LIG     1      10.761  46.543  28.036  0.00  0.00     0.197 C 
ATOM     12  C   LIG     1       9.559  47.465  28.198  0.00  0.00     0.171 C 
ATOM     13  C   LIG     1       9.679  48.675  27.270  0.00  0.00     0.178 C 
ATOM     14  C   LIG     1      11.036  49.358  27.466  0.00  0.00     0.201 C 
BRANCH  12  15
ATOM     15  O   LIG     1       8.355  46.762  27.922  0.00  0.00    -0.387 OA
ATOM     16  H   LIG     1       7.838  47.299  27.297  0.00  0.00     0.210 HD
ENDBRANCH  12  15
BRANCH  13  17
ATOM     17  O   LIG     1       9.552  48.244  25.915  0.00  0.00    -0.386 OA
ATOM     18  H   LIG     1       9.134  48.967  25.416  0.00  0.00     0.210 HD
ENDBRANCH  13  17
BRANCH  14  19
ATOM     19  O   LIG     1      11.060  50.006  28.736  0.00  0.00    -0.384 OA
ATOM     20  H   LIG     1      11.028  50.966  28.592  0.00  0.00     0.210 HD
ENDBRANCH  14  19
ENDBRANCH   8   9
ENDBRANCH   7   8
ENDBRANCH   6   7
BRANCH   5  21
ATOM     21  O   LIG     1      12.043  48.809  23.357  0.00  0.00    -0.386 OA
ATOM     22  H   LIG     1      11.535  49.482  22.871  0.00  0.00     0.210 HD
ENDBRANCH   5  21
BRANCH   2  23
ATOM     23  O   LIG     1      16.610  51.713  24.427  0.00  0.00    -0.345 OA
BRANCH  23  24
ATOM     24  C   LIG     1      17.443  50.731  25.022  0.00  0.00     0.190 C 
BRANCH  24  25
ATOM     25  C   LIG     1      18.510  50.350  24.048  0.00  0.00     0.001 C 
ATOM     26  C   LIG     1      18.378  49.349  23.163  0.00  0.00     0.006 C 
BRANCH  26  27
ATOM     27  C   LIG     1      19.395  48.948  22.176  0.00  0.00    -0.025 A 
ATOM     28  C   LIG     1      19.142  49.134  20.826  0.00  0.00     0.008 A 
ATOM     29  C   LIG     1      20.106  48.754  19.893  0.00  0.00     0.001 A 
ATOM     30  C   LIG     1      21.309  48.192  20.320  0.00  0.00     0.000 A 
ATOM     31  C   LIG     1      21.549  48.010  21.681  0.00  0.00     0.001 A 
ATOM     32  C   LIG     1      20.586  48.391  22.616  0.00  0.00     0.008 A 
ENDBRANCH  26  27
ENDBRANCH  24  25
ENDBRANCH  23  24
ENDBRANCH   2  23
BRANCH   4  33
ATOM     33  O   LIG     1      13.408  50.186  21.213  0.00  0.00    -0.386 OA
ATOM     34  H   LIG     1      13.904  49.365  21.056  0.00  0.00     0.210 HD
ENDBRANCH   4  33
BRANCH   3  35
ATOM     35  O   LIG     1      14.945  52.468  22.267  0.00  0.00    -0.384 OA
ATOM     36  H   LIG     1      14.552  53.071  22.920  0.00  0.00     0.210 HD
ENDBRANCH   3  35
TORSDOF 13
ENDMDL
MODEL 2
REMARK VINA RESULT:      -8.2      2.083      3.100
REMARK  13 active torsions:
REMARK  status: ('A' for Active; 'I' for Inactive)
REMARK    1  A    between atoms: C_2  and  O_12 
REMARK    2  A    between atoms: C_3  and  O_10 
REMARK    3  A    between atoms: C_4  and  O_8 
REMARK    4  A    between atoms: C_5  and  O_6 
REMARK    5  A    between atoms: C_22  and  C_23 
REMARK    6  A    between atoms: O_12  and  C_13 
REMARK    7  A    between atoms: C_13  and  C_14 
REMARK    8  A    between atoms: C_15  and  C_16 
REMARK    9  A    between atoms: C_23  and  O_24 
REMARK   10  A    between atoms: O_24  and  C_25 
REMARK   11  A    between atoms: C_26  and  O_34 
REMARK   12  A    between atoms: C_27  and  O_32 
REMARK   13  A    between atoms: C_28  and  O_30 
ROOT
ATOM      1  O   LIG     1      14.288  50.378  23.866  0.00  0.00    -0.341 OA
ATOM      2  C   LIG     1      15.683  50.277  23.592  0.00  0.00     0.282 C 
ATOM      3  C   LIG     1      15.975  50.683  22.147  0.00  0.00     0.201 C 
ATOM      4  C   LIG     1      15.409  52.066  21.832  0.00  0.00     0.179 C 
ATOM      5  C   LIG     1      13.955  52.187  22.287  0.00  0.00     0.177 C 
ATOM      6  C   LIG     1      13.798  51.714  23.734  0.00  0.00     0.178 C 
ENDROOT
BRANCH   6   7
ATOM      7  C   LIG     1      12.337  51.715  24.173  0.00  0.00     0.197 C 
BRANCH   7   8
ATOM      8  O   LIG     1      12.208  50.881  25.311  0.00  0.00    -0.346 OA
BRANCH   8   9
ATOM      9  C   LIG     1      10.950  50.214  25.337  0.00  0.00     0.281 C 
ATOM     10  O   LIG     1      10.385  50.186  26.652  0.00  0.00    -0.346 OA
ATOM     11  C   LIG     1      11.121  49.391  27.578  0.00  0.00     0.197 C 
ATOM     12  C   LIG     1      11.182  47.942  27.112  0.00  0.00     0.171 C 
ATOM     13  C   LIG     1      11.811  47.849  25.720  0.00  0.00     0.178 C 
ATOM     14  C   LIG     1      11.097  48.800  24.754  0.00  0.00     0.201 C 
BRANCH  12  15
ATOM     15  O   LIG     1      11.928  47.156  28.031  0.00  0.00    -0.387 OA
ATOM     16  H   LIG     1      11.981  47.653  28.866  0.00  0.00     0.210 HD
ENDBRANCH  12  15
BRANCH  13  17
ATOM     17  O   LIG     1      13.191  48.201  25.803  0.00  0.00    -0.386 OA
ATOM     18  H   LIG     1      13.244  49.171  25.856  0.00  0.00     0.210 HD
ENDBRANCH  13  17
BRANCH  14  19
ATOM     19  O   LIG     1       9.790  48.300  24.479  0.00  0.00    -0.384 OA
ATOM     20  H   LIG     1       9.758  47.364  24.740  0.00  0.00     0.210 HD
ENDBRANCH  14  19
ENDBRANCH   8   9
ENDBRANCH   7   8
ENDBRANCH   6   7
BRANCH   5  21
ATOM     21  O   LIG     1      13.541  53.547  22.187  0.00  0.00    -0.386 OA
ATOM     22  H   LIG     1      12.641  53.560  21.817  0.00  0.00     0.210 HD
ENDBRANCH   5  21
BRANCH   2  23
ATOM     23  O   LIG     1      16.112  48.928  23.766  0.00  0.00    -0.345 OA
BRANCH  23  24
ATOM     24  C   LIG     1      16.654  48.721  25.061  0.00  0.00     0.190 C 
BRANCH  24  25
ATOM     25  C   LIG     1      18.127  48.973  25.012  0.00  0.00     0.001 C 
ATOM     26  C   LIG     1      18.969  48.274  24.234  0.00  0.00     0.006 C 
BRANCH  26  27
ATOM     27  C   LIG     1      20.422  48.496  24.142  0.00  0.00    -0.025 A 
ATOM     28  C   LIG     1      21.147  47.851  23.153  0.00  0.00     0.008 A 
ATOM     29  C   LIG     1      22.522  48.061  23.067  0.00  0.00     0.001 A 
ATOM     30  C   LIG     1      23.157  48.913  23.971  0.00  0.00     0.000 A 
ATOM     31  C   LIG     1      22.415  49.556  24.961  0.00  0.00     0.001 A 
ATOM     32  C   LIG     1      21.038  49.346  25.048  0.00  0.00     0.008 A 
ENDBRANCH  26  27
ENDBRANCH  24  25
ENDBRANCH  23  24
ENDBRANCH   2  23
BRANCH   4  33
ATOM     33  O   LIG     1      15.450  52.287  20.421  0.00  0.00    -0.386 OA
ATOM     34  H   LIG     1      15.719  53.210  20.278  0.00  0.00     0.210 HD
ENDBRANCH   4  33
BRANCH   3  35
ATOM     35  O   LIG     1      17.391  50.696  21.964  0.00  0.00    -0.384 OA
ATOM     36  H   LIG     1      17.770  51.327  22.598  0.00  0.00     0.210 HD
ENDBRANCH   3  35
TORSDOF 13
ENDMDL
MODEL 3
REMARK VINA RESULT:      -8.1      1.369      2.335
REMARK  13 active torsions:
REMARK  status: ('A' for Active; 'I' for Inactive)
REMARK    1  A    between atoms: C_2  and  O_12 
REMARK    2  A    between atoms: C_3  and  O_10 
REMARK    3  A    between atoms: C_4  and  O_8 
REMARK    4  A    between atoms: C_5  and  O_6 
REMARK    5  A    between atoms: C_22  and  C_23 
REMARK    6  A    between atoms: O_12  and  C_13 
REMARK    7  A    between atoms: C_13  and  C_14 
REMARK    8  A    between atoms: C_15  and  C_16 
REMARK    9  A    between atoms: C_23  and  O_24 
REMARK   10  A    between atoms: O_24  and  C_25 
REMARK   11  A    between atoms: C_26  and  O_34 
REMARK   12  A    between atoms: C_27  and  O_32 
REMARK   13  A    between atoms: C_28  and  O_30 
ROOT
ATOM      1  O   LIG     1      15.352  49.657  24.449  0.00  0.00    -0.341 OA
ATOM      2  C   LIG     1      16.148  50.789  24.794  0.00  0.00     0.282 C 
ATOM      3  C   LIG     1      16.756  51.418  23.540  0.00  0.00     0.201 C 
ATOM      4  C   LIG     1      15.681  51.743  22.503  0.00  0.00     0.179 C 
ATOM      5  C   LIG     1      14.750  50.553  22.278  0.00  0.00     0.177 C 
ATOM      6  C   LIG     1      14.245  49.998  23.613  0.00  0.00     0.178 C 
ENDROOT
BRANCH   6   7
ATOM      7  C   LIG     1      13.407  48.738  23.421  0.00  0.00     0.197 C 
BRANCH   7   8
ATOM      8  O   LIG     1      12.660  48.510  24.602  0.00  0.00    -0.346 OA
BRANCH   8   9
ATOM      9  C   LIG     1      11.454  49.266  24.619  0.00  0.00     0.281 C 
ATOM     10  O   LIG     1      11.572  50.448  25.419  0.00  0.00    -0.346 OA
ATOM     11  C   LIG     1      11.736  50.185  26.811  0.00  0.00     0.197 C 
ATOM     12  C   LIG     1      10.537  49.421  27.358  0.00  0.00     0.171 C 
ATOM     13  C   LIG     1      10.338  48.111  26.594  0.00  0.00     0.178 C 
ATOM     14  C   LIG     1      10.288  48.381  25.087  0.00  0.00     0.201 C 
BRANCH  12  15
ATOM     15  O   LIG     1      10.710  49.152  28.742  0.00  0.00    -0.387 OA
ATOM     16  H   LIG     1      11.413  49.739  29.070  0.00  0.00     0.210 HD
ENDBRANCH  12  15
BRANCH  13  17
ATOM     17  O   LIG     1      11.420  47.228  26.886  0.00  0.00    -0.386 OA
ATOM     18  H   LIG     1      12.186  47.521  26.363  0.00  0.00     0.210 HD
ENDBRANCH  13  17
BRANCH  14  19
ATOM     19  O   LIG     1       9.071  49.050  24.768  0.00  0.00    -0.384 OA
ATOM     20  H   LIG     1       8.863  48.882  23.834  0.00  0.00     0.210 HD
ENDBRANCH  14  19
ENDBRANCH   8   9
ENDBRANCH   7   8
ENDBRANCH   6   7
BRANCH   5  21
ATOM     21  O   LIG     1      13.637  50.966  21.489  0.00  0.00    -0.386 OA
ATOM     22  H   LIG     1      13.078  51.543  22.038  0.00  0.00     0.210 HD
ENDBRANCH   5  21
BRANCH   2  23
ATOM     23  O   LIG     1      17.217  50.385  25.647  0.00  0.00    -0.345 OA
BRANCH  23  24
ATOM     24  C   LIG     1      17.588  49.037  25.408  0.00  0.00     0.190 C 
BRANCH  24  25
ATOM     25  C   LIG     1      18.645  49.008  24.352  0.00  0.00     0.001 C 
ATOM     26  C   LIG     1      18.431  48.553  23.107  0.00  0.00     0.006 C 
BRANCH  26  27
ATOM     27  C   LIG     1      19.437  48.519  22.031  0.00  0.00    -0.025 A 
ATOM     28  C   LIG     1      19.063  48.860  20.741  0.00  0.00     0.008 A 
ATOM     29  C   LIG     1      20.015  48.828  19.723  0.00  0.00     0.001 A 
ATOM     30  C   LIG     1      21.329  48.454  20.007  0.00  0.00     0.000 A 
ATOM     31  C   LIG     1      21.691  48.113  21.310  0.00  0.00     0.001 A 
ATOM     32  C   LIG     1      20.738  48.146  22.329  0.00  0.00     0.008 A 
ENDBRANCH  26  27
ENDBRANCH  24  25
ENDBRANCH  23  24
ENDBRANCH   2  23
BRANCH   4  33
ATOM     33  O   LIG     1      16.303  52.058  21.256  0.00  0.00    -0.386 OA
ATOM     34  H   LIG     1      17.264  52.074  21.406  0.00  0.00     0.210 HD
ENDBRANCH   4  33
BRANCH   3  35
ATOM     35  O   LIG     1      17.425  52.619  23.922  0.00  0.00    -0.384 OA
ATOM     36  H   LIG     1      18.202  52.727  23.348  0.00  0.00     0.210 HD
ENDBRANCH   3  35
TORSDOF 13
ENDMDL
MODEL 4
REMARK VINA RESULT:      -7.8      2.172      6.069
REMARK  13 active torsions:
REMARK  status: ('A' for Active; 'I' for Inactive)
REMARK    1  A    between atoms: C_2  and  O_12 
REMARK    2  A    between atoms: C_3  and  O_10 
REMARK    3  A    between atoms: C_4  and  O_8 
REMARK    4  A    between atoms: C_5  and  O_6 
REMARK    5  A    between atoms: C_22  and  C_23 
REMARK    6  A    between atoms: O_12  and  C_13 
REMARK    7  A    between atoms: C_13  and  C_14 
REMARK    8  A    between atoms: C_15  and  C_16 
REMARK    9  A    between atoms: C_23  and  O_24 
REMARK   10  A    between atoms: O_24  and  C_25 
REMARK   11  A    between atoms: C_26  and  O_34 
REMARK   12  A    between atoms: C_27  and  O_32 
REMARK   13  A    between atoms: C_28  and  O_30 
ROOT
ATOM      1  O   LIG     1      12.595  49.669  26.239  0.00  0.00    -0.341 OA
ATOM      2  C   LIG     1      12.739  48.379  26.828  0.00  0.00     0.282 C 
ATOM      3  C   LIG     1      11.454  47.974  27.552  0.00  0.00     0.201 C 
ATOM      4  C   LIG     1      10.240  48.071  26.629  0.00  0.00     0.179 C 
ATOM      5  C   LIG     1      10.209  49.411  25.894  0.00  0.00     0.177 C 
ATOM      6  C   LIG     1      11.566  49.708  25.249  0.00  0.00     0.178 C 
ENDROOT
BRANCH   6   7
ATOM      7  C   LIG     1      11.595  51.093  24.608  0.00  0.00     0.197 C 
BRANCH   7   8
ATOM      8  O   LIG     1      12.924  51.377  24.211  0.00  0.00    -0.346 OA
BRANCH   8   9
ATOM      9  C   LIG     1      13.458  50.352  23.379  0.00  0.00     0.281 C 
ATOM     10  O   LIG     1      14.798  50.005  23.747  0.00  0.00    -0.346 OA
ATOM     11  C   LIG     1      15.744  51.046  23.518  0.00  0.00     0.197 C 
ATOM     12  C   LIG     1      15.792  51.414  22.041  0.00  0.00     0.171 C 
ATOM     13  C   LIG     1      14.408  51.841  21.547  0.00  0.00     0.178 C 
ATOM     14  C   LIG     1      13.368  50.775  21.905  0.00  0.00     0.201 C 
BRANCH  12  15
ATOM     15  O   LIG     1      16.727  52.460  21.819  0.00  0.00    -0.387 OA
ATOM     16  H   LIG     1      16.791  52.976  22.641  0.00  0.00     0.210 HD
ENDBRANCH  12  15
BRANCH  13  17
ATOM     17  O   LIG     1      14.052  53.081  22.157  0.00  0.00    -0.386 OA
ATOM     18  H   LIG     1      14.718  53.739  21.892  0.00  0.00     0.210 HD
ENDBRANCH  13  17
BRANCH  14  19
ATOM     19  O   LIG     1      13.581  49.618  21.101  0.00  0.00    -0.384 OA
ATOM     20  H   LIG     1      14.537  49.503  20.973  0.00  0.00     0.210 HD
ENDBRANCH  14  19
ENDBRANCH   8   9
ENDBRANCH   7   8
ENDBRANCH   6   7
BRANCH   5  21
ATOM     21  O   LIG     1       9.205  49.371  24.883  0.00  0.00    -0.386 OA
ATOM     22  H   LIG     1       8.650  48.588  25.042  0.00  0.00     0.210 HD
ENDBRANCH   5  21
BRANCH   2  23
ATOM     23  O   LIG     1      13.796  48.401  27.785  0.00  0.00    -0.345 OA
BRANCH  23  24
ATOM     24  C   LIG     1      14.469  49.650  27.783  0.00  0.00     0.190 C 
BRANCH  24  25
ATOM     25  C   LIG     1      15.870  49.441  27.306  0.00  0.00     0.001 C 
ATOM     26  C   LIG     1      16.247  48.389  26.562  0.00  0.00     0.006 C 
BRANCH  26  27
ATOM     27  C   LIG     1      17.610  48.150  26.059  0.00  0.00    -0.025 A 
ATOM     28  C   LIG     1      17.939  48.548  24.772  0.00  0.00     0.008 A 
ATOM     29  C   LIG     1      19.230  48.321  24.296  0.00  0.00     0.001 A 
ATOM     30  C   LIG     1      20.175  47.699  25.111  0.00  0.00     0.000 A 
ATOM     31  C   LIG     1      19.831  47.304  26.403  0.00  0.00     0.001 A 
ATOM     32  C   LIG     1      18.539  47.531  26.880  0.00  0.00     0.008 A 
ENDBRANCH  26  27
ENDBRANCH  24  25
ENDBRANCH  23  24
ENDBRANCH   2  23
BRANCH   4  33
ATOM     33  O   LIG     1       9.044  47.965  27.403  0.00  0.00    -0.386 OA
ATOM     34  H   LIG     1       8.337  48.414  26.909  0.00  0.00     0.210 HD
ENDBRANCH   4  33
BRANCH   3  35
ATOM     35  O   LIG     1      11.600  46.628  28.004  0.00  0.00    -0.384 OA
ATOM     36  H   LIG     1      11.530  46.626  28.973  0.00  0.00     0.210 HD
ENDBRANCH   3  35
TORSDOF 13
ENDMDL
MODEL 5
REMARK VINA RESULT:      -7.8      2.876      8.506
REMARK  13 active torsions:
REMARK  status: ('A' for Active; 'I' for Inactive)
REMARK    1  A    between atoms: C_2  and  O_12 
REMARK    2  A    between atoms: C_3  and  O_10 
REMARK    3  A    between atoms: C_4  and  O_8 
REMARK    4  A    between atoms: C_5  and  O_6 
REMARK    5  A    between atoms: C_22  and  C_23 
REMARK    6  A    between atoms: O_12  and  C_13 
REMARK    7  A    between atoms: C_13  and  C_14 
REMARK    8  A    between atoms: C_15  and  C_16 
REMARK    9  A    between atoms: C_23  and  O_24 
REMARK   10  A    between atoms: O_24  and  C_25 
REMARK   11  A    between atoms: C_26  and  O_34 
REMARK   12  A    between atoms: C_27  and  O_32 
REMARK   13  A    between atoms: C_28  and  O_30 
ROOT
ATOM      1  O   LIG     1      14.823  50.769  24.341  0.00  0.00    -0.341 OA
ATOM      2  C   LIG     1      13.975  50.242  23.323  0.00  0.00     0.282 C 
ATOM      3  C   LIG     1      14.094  51.072  22.044  0.00  0.00     0.201 C 
ATOM      4  C   LIG     1      15.549  51.199  21.596  0.00  0.00     0.179 C 
ATOM      5  C   LIG     1      16.453  51.613  22.757  0.00  0.00     0.177 C 
ATOM      6  C   LIG     1      16.205  50.727  23.980  0.00  0.00     0.178 C 
ENDROOT
BRANCH   6   7
ATOM      7  C   LIG     1      17.011  51.194  25.189  0.00  0.00     0.197 C 
BRANCH   7   8
ATOM      8  O   LIG     1      18.374  50.877  24.971  0.00  0.00    -0.346 OA
BRANCH   8   9
ATOM      9  C   LIG     1      18.836  49.883  25.879  0.00  0.00     0.281 C 
ATOM     10  O   LIG     1      20.227  50.037  26.182  0.00  0.00    -0.346 OA
ATOM     11  C   LIG     1      21.087  49.796  25.070  0.00  0.00     0.197 C 
ATOM     12  C   LIG     1      20.919  48.370  24.562  0.00  0.00     0.171 C 
ATOM     13  C   LIG     1      19.464  48.105  24.170  0.00  0.00     0.178 C 
ATOM     14  C   LIG     1      18.530  48.484  25.324  0.00  0.00     0.201 C 
BRANCH  12  15
ATOM     15  O   LIG     1      21.769  48.138  23.447  0.00  0.00    -0.387 OA
ATOM     16  H   LIG     1      21.308  47.525  22.849  0.00  0.00     0.210 HD
ENDBRANCH  12  15
BRANCH  13  17
ATOM     17  O   LIG     1      19.138  48.880  23.017  0.00  0.00    -0.386 OA
ATOM     18  H   LIG     1      19.816  49.572  22.928  0.00  0.00     0.210 HD
ENDBRANCH  13  17
BRANCH  14  19
ATOM     19  O   LIG     1      18.685  47.545  26.385  0.00  0.00    -0.384 OA
ATOM     20  H   LIG     1      18.815  48.035  27.213  0.00  0.00     0.210 HD
ENDBRANCH  14  19
ENDBRANCH   8   9
ENDBRANCH   7   8
ENDBRANCH   6   7
BRANCH   5  21
ATOM     21  O   LIG     1      17.816  51.496  22.358  0.00  0.00    -0.386 OA
ATOM     22  H   LIG     1      17.890  50.731  21.762  0.00  0.00     0.210 HD
ENDBRANCH   5  21
BRANCH   2  23
ATOM     23  O   LIG     1      12.617  50.289  23.755  0.00  0.00    -0.345 OA
BRANCH  23  24
ATOM     24  C   LIG     1      12.148  49.002  24.126  0.00  0.00     0.190 C 
BRANCH  24  25
ATOM     25  C   LIG     1      12.011  48.950  25.613  0.00  0.00     0.001 C 
ATOM     26  C   LIG     1      11.532  49.968  26.346  0.00  0.00     0.006 C 
BRANCH  26  27
ATOM     27  C   LIG     1      11.366  49.957  27.809  0.00  0.00    -0.025 A 
ATOM     28  C   LIG     1      10.532  49.015  28.391  0.00  0.00     0.008 A 
ATOM     29  C   LIG     1      10.375  49.004  29.776  0.00  0.00     0.001 A 
ATOM     30  C   LIG     1      11.052  49.936  30.563  0.00  0.00     0.000 A 
ATOM     31  C   LIG     1      11.887  50.879  29.964  0.00  0.00     0.001 A 
ATOM     32  C   LIG     1      12.045  50.889  28.577  0.00  0.00     0.008 A 
ENDBRANCH  26  27
ENDBRANCH  24  25
ENDBRANCH  23  24
ENDBRANCH   2  23
BRANCH   4  33
ATOM     33  O   LIG     1      15.648  52.199  20.581  0.00  0.00    -0.386 OA
ATOM     34  H   LIG     1      15.352  51.798  19.746  0.00  0.00     0.210 HD
ENDBRANCH   4  33
BRANCH   3  35
ATOM     35  O   LIG     1      13.336  50.427  21.021  0.00  0.00    -0.384 OA
ATOM     36  H   LIG     1      13.956  49.956  20.439  0.00  0.00     0.210 HD
ENDBRANCH   3  35
TORSDOF 13
ENDMDL
MODEL 6
REMARK VINA RESULT:      -7.7      2.729      8.618
REMARK  13 active torsions:
REMARK  status: ('A' for Active; 'I' for Inactive)
REMARK    1  A    between atoms: C_2  and  O_12 
REMARK    2  A    between atoms: C_3  and  O_10 
REMARK    3  A    between atoms: C_4  and  O_8 
REMARK    4  A    between atoms: C_5  and  O_6 
REMARK    5  A    between atoms: C_22  and  C_23 
REMARK    6  A    between atoms: O_12  and  C_13 
REMARK    7  A    between atoms: C_13  and  C_14 
REMARK    8  A    between atoms: C_15  and  C_16 
REMARK    9  A    between atoms: C_23  and  O_24 
REMARK   10  A    between atoms: O_24  and  C_25 
REMARK   11  A    between atoms: C_26  and  O_34 
REMARK   12  A    between atoms: C_27  and  O_32 
REMARK   13  A    between atoms: C_28  and  O_30 
ROOT
ATOM      1  O   LIG     1      15.038  50.570  24.311  0.00  0.00    -0.341 OA
ATOM      2  C   LIG     1      14.154  50.139  23.280  0.00  0.00     0.282 C 
ATOM      3  C   LIG     1      14.189  51.114  22.102  0.00  0.00     0.201 C 
ATOM      4  C   LIG     1      15.616  51.336  21.605  0.00  0.00     0.179 C 
ATOM      5  C   LIG     1      16.566  51.639  22.762  0.00  0.00     0.177 C 
ATOM      6  C   LIG     1      16.401  50.611  23.885  0.00  0.00     0.178 C 
ENDROOT
BRANCH   6   7
ATOM      7  C   LIG     1      17.254  50.960  25.100  0.00  0.00     0.197 C 
BRANCH   7   8
ATOM      8  O   LIG     1      18.557  50.442  24.900  0.00  0.00    -0.346 OA
BRANCH   8   9
ATOM      9  C   LIG     1      18.527  49.074  24.510  0.00  0.00     0.281 C 
ATOM     10  O   LIG     1      18.356  48.200  25.631  0.00  0.00    -0.346 OA
ATOM     11  C   LIG     1      19.464  48.191  26.528  0.00  0.00     0.197 C 
ATOM     12  C   LIG     1      20.728  47.725  25.816  0.00  0.00     0.171 C 
ATOM     13  C   LIG     1      21.030  48.621  24.614  0.00  0.00     0.178 C 
ATOM     14  C   LIG     1      19.795  48.729  23.713  0.00  0.00     0.201 C 
BRANCH  12  15
ATOM     15  O   LIG     1      21.831  47.731  26.711  0.00  0.00    -0.387 OA
ATOM     16  H   LIG     1      21.598  47.167  27.469  0.00  0.00     0.210 HD
ENDBRANCH  12  15
BRANCH  13  17
ATOM     17  O   LIG     1      21.401  49.919  25.074  0.00  0.00    -0.386 OA
ATOM     18  H   LIG     1      21.674  50.438  24.298  0.00  0.00     0.210 HD
ENDBRANCH  13  17
BRANCH  14  19
ATOM     19  O   LIG     1      19.578  47.483  23.057  0.00  0.00    -0.384 OA
ATOM     20  H   LIG     1      19.249  46.843  23.711  0.00  0.00     0.210 HD
ENDBRANCH  14  19
ENDBRANCH   8   9
ENDBRANCH   7   8
ENDBRANCH   6   7
BRANCH   5  21
ATOM     21  O   LIG     1      17.911  51.610  22.290  0.00  0.00    -0.386 OA
ATOM     22  H   LIG     1      18.017  52.329  21.643  0.00  0.00     0.210 HD
ENDBRANCH   5  21
BRANCH   2  23
ATOM     23  O   LIG     1      12.818  50.095  23.777  0.00  0.00    -0.345 OA
BRANCH  23  24
ATOM     24  C   LIG     1      12.449  51.326  24.377  0.00  0.00     0.190 C 
BRANCH  24  25
ATOM     25  C   LIG     1      12.008  51.065  25.781  0.00  0.00     0.001 C 
ATOM     26  C   LIG     1      11.540  49.878  26.198  0.00  0.00     0.006 C 
BRANCH  26  27
ATOM     27  C   LIG     1      11.109  49.570  27.572  0.00  0.00    -0.025 A 
ATOM     28  C   LIG     1      11.600  50.328  28.624  0.00  0.00     0.008 A 
ATOM     29  C   LIG     1      11.191  50.036  29.925  0.00  0.00     0.001 A 
ATOM     30  C   LIG     1      10.298  48.990  30.158  0.00  0.00     0.000 A 
ATOM     31  C   LIG     1       9.812  48.237  29.090  0.00  0.00     0.001 A 
ATOM     32  C   LIG     1      10.221  48.529  27.788  0.00  0.00     0.008 A 
ENDBRANCH  26  27
ENDBRANCH  24  25
ENDBRANCH  23  24
ENDBRANCH   2  23
BRANCH   4  33
ATOM     33  O   LIG     1      15.641  52.449  20.709  0.00  0.00    -0.386 OA
ATOM     34  H   LIG     1      16.508  52.878  20.803  0.00  0.00     0.210 HD
ENDBRANCH   4  33
BRANCH   3  35
ATOM     35  O   LIG     1      13.397  50.569  21.047  0.00  0.00    -0.384 OA
ATOM     36  H   LIG     1      13.936  49.913  20.574  0.00  0.00     0.210 HD
ENDBRANCH   3  35
TORSDOF 13
ENDMDL
MODEL 7
REMARK VINA RESULT:      -7.7      1.420      2.246
REMARK  13 active torsions:
REMARK  status: ('A' for Active; 'I' for Inactive)
REMARK    1  A    between atoms: C_2  and  O_12 
REMARK    2  A    between atoms: C_3  and  O_10 
REMARK    3  A    between atoms: C_4  and  O_8 
REMARK    4  A    between atoms: C_5  and  O_6 
REMARK    5  A    between atoms: C_22  and  C_23 
REMARK    6  A    between atoms: O_12  and  C_13 
REMARK    7  A    between atoms: C_13  and  C_14 
REMARK    8  A    between atoms: C_15  and  C_16 
REMARK    9  A    between atoms: C_23  and  O_24 
REMARK   10  A    between atoms: O_24  and  C_25 
REMARK   11  A    between atoms: C_26  and  O_34 
REMARK   12  A    between atoms: C_27  and  O_32 
REMARK   13  A    between atoms: C_28  and  O_30 
ROOT
ATOM      1  O   LIG     1      13.760  49.520  25.784  0.00  0.00    -0.341 OA
ATOM      2  C   LIG     1      14.391  49.721  24.521  0.00  0.00     0.282 C 
ATOM      3  C   LIG     1      13.684  48.911  23.434  0.00  0.00     0.201 C 
ATOM      4  C   LIG     1      12.186  49.212  23.401  0.00  0.00     0.179 C 
ATOM      5  C   LIG     1      11.576  49.142  24.800  0.00  0.00     0.177 C 
ATOM      6  C   LIG     1      12.402  49.964  25.794  0.00  0.00     0.178 C 
ENDROOT
BRANCH   6   7
ATOM      7  C   LIG     1      11.880  49.816  27.221  0.00  0.00     0.197 C 
BRANCH   7   8
ATOM      8  O   LIG     1      11.322  48.522  27.364  0.00  0.00    -0.346 OA
BRANCH   8   9
ATOM      9  C   LIG     1      10.187  48.529  28.224  0.00  0.00     0.281 C 
ATOM     10  O   LIG     1      10.561  48.566  29.606  0.00  0.00    -0.346 OA
ATOM     11  C   LIG     1      11.222  47.385  30.055  0.00  0.00     0.197 C 
ATOM     12  C   LIG     1      10.319  46.170  29.893  0.00  0.00     0.171 C 
ATOM     13  C   LIG     1       9.886  46.010  28.434  0.00  0.00     0.178 C 
ATOM     14  C   LIG     1       9.289  47.322  27.914  0.00  0.00     0.201 C 
BRANCH  12  15
ATOM     15  O   LIG     1      10.986  44.994  30.330  0.00  0.00    -0.387 OA
ATOM     16  H   LIG     1      10.402  44.239  30.143  0.00  0.00     0.210 HD
ENDBRANCH  12  15
BRANCH  13  17
ATOM     17  O   LIG     1      11.019  45.654  27.643  0.00  0.00    -0.386 OA
ATOM     18  H   LIG     1      10.903  46.059  26.766  0.00  0.00     0.210 HD
ENDBRANCH  13  17
BRANCH  14  19
ATOM     19  O   LIG     1       8.024  47.543  28.534  0.00  0.00    -0.384 OA
ATOM     20  H   LIG     1       7.800  46.760  29.063  0.00  0.00     0.210 HD
ENDBRANCH  14  19
ENDBRANCH   8   9
ENDBRANCH   7   8
ENDBRANCH   6   7
BRANCH   5  21
ATOM     21  O   LIG     1      10.245  49.649  24.761  0.00  0.00    -0.386 OA
ATOM     22  H   LIG     1      10.171  50.238  23.990  0.00  0.00     0.210 HD
ENDBRANCH   5  21
BRANCH   2  23
ATOM     23  O   LIG     1      15.747  49.284  24.585  0.00  0.00    -0.345 OA
BRANCH  23  24
ATOM     24  C   LIG     1      16.645  50.382  24.604  0.00  0.00     0.190 C 
BRANCH  24  25
ATOM     25  C   LIG     1      17.673  50.182  23.538  0.00  0.00     0.001 C 
ATOM     26  C   LIG     1      18.349  49.035  23.372  0.00  0.00     0.006 C 
BRANCH  26  27
ATOM     27  C   LIG     1      19.359  48.788  22.329  0.00  0.00    -0.025 A 
ATOM     28  C   LIG     1      19.052  49.067  21.006  0.00  0.00     0.008 A 
ATOM     29  C   LIG     1      20.009  48.833  20.019  0.00  0.00     0.001 A 
ATOM     30  C   LIG     1      21.260  48.322  20.366  0.00  0.00     0.000 A 
ATOM     31  C   LIG     1      21.555  48.046  21.701  0.00  0.00     0.001 A 
ATOM     32  C   LIG     1      20.598  48.280  22.689  0.00  0.00     0.008 A 
ENDBRANCH  26  27
ENDBRANCH  24  25
ENDBRANCH  23  24
ENDBRANCH   2  23
BRANCH   4  33
ATOM     33  O   LIG     1      11.525  48.246  22.583  0.00  0.00    -0.386 OA
ATOM     34  H   LIG     1      12.028  48.174  21.753  0.00  0.00     0.210 HD
ENDBRANCH   4  33
BRANCH   3  35
ATOM     35  O   LIG     1      14.264  49.251  22.175  0.00  0.00    -0.384 OA
ATOM     36  H   LIG     1      15.161  49.588  22.338  0.00  0.00     0.210 HD
ENDBRANCH   3  35
TORSDOF 13
ENDMDL
MODEL 8
REMARK VINA RESULT:      -7.7      3.508      9.634
REMARK  13 active torsions:
REMARK  status: ('A' for Active; 'I' for Inactive)
REMARK    1  A    between atoms: C_2  and  O_12 
REMARK    2  A    between atoms: C_3  and  O_10 
REMARK    3  A    between atoms: C_4  and  O_8 
REMARK    4  A    between atoms: C_5  and  O_6 
REMARK    5  A    between atoms: C_22  and  C_23 
REMARK    6  A    between atoms: O_12  and  C_13 
REMARK    7  A    between atoms: C_13  and  C_14 
REMARK    8  A    between atoms: C_15  and  C_16 
REMARK    9  A    between atoms: C_23  and  O_24 
REMARK   10  A    between atoms: O_24  and  C_25 
REMARK   11  A    between atoms: C_26  and  O_34 
REMARK   12  A    between atoms: C_27  and  O_32 
REMARK   13  A    between atoms: C_28  and  O_30 
ROOT
ATOM      1  O   LIG     1      12.363  50.210  26.811  0.00  0.00    -0.341 OA
ATOM      2  C   LIG     1      12.693  49.085  27.623  0.00  0.00     0.282 C 
ATOM      3  C   LIG     1      11.451  48.235  27.890  0.00  0.00     0.201 C 
ATOM      4  C   LIG     1      10.754  47.841  26.588  0.00  0.00     0.179 C 
ATOM      5  C   LIG     1      10.562  49.051  25.676  0.00  0.00     0.177 C 
ATOM      6  C   LIG     1      11.870  49.832  25.525  0.00  0.00     0.178 C 
ENDROOT
BRANCH   6   7
ATOM      7  C   LIG     1      11.675  51.109  24.712  0.00  0.00     0.197 C 
BRANCH   7   8
ATOM      8  O   LIG     1      12.919  51.473  24.141  0.00  0.00    -0.346 OA
BRANCH   8   9
ATOM      9  C   LIG     1      13.471  50.417  23.362  0.00  0.00     0.281 C 
ATOM     10  O   LIG     1      14.787  50.060  23.798  0.00  0.00    -0.346 OA
ATOM     11  C   LIG     1      15.761  51.080  23.584  0.00  0.00     0.197 C 
ATOM     12  C   LIG     1      15.880  51.405  22.101  0.00  0.00     0.171 C 
ATOM     13  C   LIG     1      14.527  51.840  21.534  0.00  0.00     0.178 C 
ATOM     14  C   LIG     1      13.454  50.801  21.874  0.00  0.00     0.201 C 
BRANCH  12  15
ATOM     15  O   LIG     1      16.842  52.430  21.893  0.00  0.00    -0.387 OA
ATOM     16  H   LIG     1      17.720  52.044  22.053  0.00  0.00     0.210 HD
ENDBRANCH  12  15
BRANCH  13  17
ATOM     17  O   LIG     1      14.165  53.101  22.094  0.00  0.00    -0.386 OA
ATOM     18  H   LIG     1      14.541  53.142  22.991  0.00  0.00     0.210 HD
ENDBRANCH  13  17
BRANCH  14  19
ATOM     19  O   LIG     1      13.683  49.618  21.111  0.00  0.00    -0.384 OA
ATOM     20  H   LIG     1      14.626  49.391  21.171  0.00  0.00     0.210 HD
ENDBRANCH  14  19
ENDBRANCH   8   9
ENDBRANCH   7   8
ENDBRANCH   6   7
BRANCH   5  21
ATOM     21  O   LIG     1      10.125  48.610  24.392  0.00  0.00    -0.386 OA
ATOM     22  H   LIG     1       9.631  47.781  24.513  0.00  0.00     0.210 HD
ENDBRANCH   5  21
BRANCH   2  23
ATOM     23  O   LIG     1      13.202  49.530  28.878  0.00  0.00    -0.345 OA
BRANCH  23  24
ATOM     24  C   LIG     1      12.761  50.844  29.179  0.00  0.00     0.190 C 
BRANCH  24  25
ATOM     25  C   LIG     1      11.843  50.787  30.357  0.00  0.00     0.001 C 
ATOM     26  C   LIG     1      12.039  51.496  31.480  0.00  0.00     0.006 C 
BRANCH  26  27
ATOM     27  C   LIG     1      11.156  51.483  32.658  0.00  0.00    -0.025 A 
ATOM     28  C   LIG     1      10.941  52.659  33.359  0.00  0.00     0.008 A 
ATOM     29  C   LIG     1      10.104  52.645  34.475  0.00  0.00     0.001 A 
ATOM     30  C   LIG     1       9.494  51.457  34.876  0.00  0.00     0.000 A 
ATOM     31  C   LIG     1       9.719  50.281  34.160  0.00  0.00     0.001 A 
ATOM     32  C   LIG     1      10.556  50.295  33.044  0.00  0.00     0.008 A 
ENDBRANCH  26  27
ENDBRANCH  24  25
ENDBRANCH  23  24
ENDBRANCH   2  23
BRANCH   4  33
ATOM     33  O   LIG     1       9.465  47.301  26.883  0.00  0.00    -0.386 OA
ATOM     34  H   LIG     1       8.828  48.034  26.849  0.00  0.00     0.210 HD
ENDBRANCH   4  33
BRANCH   3  35
ATOM     35  O   LIG     1      11.857  47.057  28.586  0.00  0.00    -0.384 OA
ATOM     36  H   LIG     1      11.298  46.321  28.286  0.00  0.00     0.210 HD
ENDBRANCH   3  35
TORSDOF 13
ENDMDL
