MODEL 1
REMARK VINA RESULT:      -7.2      0.000      0.000
REMARK  10 active torsions:
REMARK  status: ('A' for Active; 'I' for Inactive)
REMARK    1  A    between atoms: O_2  and  C_12 
REMARK    2  A    between atoms: O_2  and  C_14 
REMARK    3  A    between atoms: O_3  and  C_8 
REMARK    4  A    between atoms: O_4  and  C_9 
REMARK    5  A    between atoms: O_5  and  C_10 
REMARK    6  A    between atoms: O_6  and  C_13 
REMARK    7  A    between atoms: O_7  and  C_21 
REMARK    8  A    between atoms: C_11  and  C_13 
REMARK    9  A    between atoms: C_14  and  C_15 
REMARK   10  A    between atoms: C_15  and  C_16 
ROOT
HETATM    1  O   UNK     0      33.462   7.013  -5.856  0.00  0.00    -0.348 OA
HETATM    2  C   UNK     0      32.066   5.561  -7.903  0.00  0.00     0.183 C 
HETATM    3  C   UNK     0      31.338   6.299  -6.779  0.00  0.00     0.180 C 
HETATM    4  C   UNK     0      33.507   5.234  -7.507  0.00  0.00     0.204 C 
HETATM    5  C   UNK     0      32.175   7.474  -6.270  0.00  0.00     0.179 C 
HETATM    6  C   UNK     0      34.217   6.458  -6.931  0.00  0.00     0.291 C 
ENDROOT
BRANCH   5   7
HETATM    7  C   UNK     0      31.524   8.154  -5.071  0.00  0.00     0.198 C 
BRANCH   7   8
HETATM    8  O   UNK     0      30.755   9.249  -5.535  0.00  0.00    -0.398 OA
HETATM    9  H   UNK     0      30.940   9.358  -6.483  0.00  0.00     0.209 HD
ENDBRANCH   7   8
ENDBRANCH   5   7
BRANCH   6  10
HETATM   10  O   UNK     0      35.496   6.040  -6.456  0.00  0.00    -0.358 OA
BRANCH  10  11
HETATM   11  C   UNK     0      35.765   6.567  -5.166  0.00  0.00     0.175 C 
BRANCH  11  12
HETATM   12  C   UNK     0      36.853   7.632  -5.260  0.00  0.00     0.065 C 
BRANCH  12  13
HETATM   13  C   UNK     0      38.043   7.315  -4.387  0.00  0.00    -0.056 A 
HETATM   14  C   UNK     0      38.804   8.352  -3.874  0.00  0.00     0.010 A 
HETATM   15  C   UNK     0      39.903   8.059  -3.067  0.00  0.00     0.037 A 
HETATM   16  C   UNK     0      40.227   6.732  -2.784  0.00  0.00     0.065 A 
HETATM   17  C   UNK     0      39.451   5.698  -3.307  0.00  0.00     0.037 A 
HETATM   18  C   UNK     0      38.351   5.992  -4.114  0.00  0.00     0.010 A 
BRANCH  16  19
HETATM   19  O   UNK     0      41.300   6.447  -1.997  0.00  0.00    -0.361 OA
HETATM   20  H   UNK     0      41.138   5.606  -1.536  0.00  0.00     0.217 HD
ENDBRANCH  16  19
ENDBRANCH  12  13
ENDBRANCH  11  12
ENDBRANCH  10  11
ENDBRANCH   6  10
BRANCH   3  21
HETATM   21  O   UNK     0      30.091   6.786  -7.266  0.00  0.00    -0.390 OA
HETATM   22  H   UNK     0      29.897   7.624  -6.813  0.00  0.00     0.210 HD
ENDBRANCH   3  21
BRANCH   4  23
HETATM   23  O   UNK     0      34.228   4.800  -8.661  0.00  0.00    -0.388 OA
HETATM   24  H   UNK     0      33.590   4.420  -9.290  0.00  0.00     0.210 HD
ENDBRANCH   4  23
BRANCH   2  25
HETATM   25  O   UNK     0      31.359   4.349  -8.166  0.00  0.00    -0.390 OA
HETATM   26  H   UNK     0      30.795   4.167  -7.395  0.00  0.00     0.210 HD
ENDBRANCH   2  25
TORSDOF 10
ENDMDL
MODEL 2
REMARK VINA RESULT:      -7.2      1.871      3.380
REMARK  10 active torsions:
REMARK  status: ('A' for Active; 'I' for Inactive)
REMARK    1  A    between atoms: O_2  and  C_12 
REMARK    2  A    between atoms: O_2  and  C_14 
REMARK    3  A    between atoms: O_3  and  C_8 
REMARK    4  A    between atoms: O_4  and  C_9 
REMARK    5  A    between atoms: O_5  and  C_10 
REMARK    6  A    between atoms: O_6  and  C_13 
REMARK    7  A    between atoms: O_7  and  C_21 
REMARK    8  A    between atoms: C_11  and  C_13 
REMARK    9  A    between atoms: C_14  and  C_15 
REMARK   10  A    between atoms: C_15  and  C_16 
ROOT
HETATM    1  O   UNK     0      34.314   6.339  -5.502  0.00  0.00    -0.348 OA
HETATM    2  C   UNK     0      31.527   6.310  -6.196  0.00  0.00     0.183 C 
HETATM    3  C   UNK     0      32.635   6.187  -7.243  0.00  0.00     0.180 C 
HETATM    4  C   UNK     0      32.044   6.975  -4.919  0.00  0.00     0.204 C 
HETATM    5  C   UNK     0      33.894   5.571  -6.631  0.00  0.00     0.179 C 
HETATM    6  C   UNK     0      33.351   6.337  -4.450  0.00  0.00     0.291 C 
ENDROOT
BRANCH   5   7
HETATM    7  C   UNK     0      35.051   5.546  -7.624  0.00  0.00     0.198 C 
BRANCH   7   8
HETATM    8  O   UNK     0      34.752   4.607  -8.641  0.00  0.00    -0.398 OA
HETATM    9  H   UNK     0      33.913   4.875  -9.051  0.00  0.00     0.209 HD
ENDBRANCH   7   8
ENDBRANCH   5   7
BRANCH   6  10
HETATM   10  O   UNK     0      33.840   7.099  -3.347  0.00  0.00    -0.358 OA
BRANCH  10  11
HETATM   11  C   UNK     0      34.469   6.268  -2.384  0.00  0.00     0.175 C 
BRANCH  11  12
HETATM   12  C   UNK     0      35.689   6.978  -1.809  0.00  0.00     0.065 C 
BRANCH  12  13
HETATM   13  C   UNK     0      36.985   6.413  -2.340  0.00  0.00    -0.056 A 
HETATM   14  C   UNK     0      37.797   5.671  -1.499  0.00  0.00     0.010 A 
HETATM   15  C   UNK     0      38.994   5.149  -1.990  0.00  0.00     0.037 A 
HETATM   16  C   UNK     0      39.362   5.378  -3.317  0.00  0.00     0.065 A 
HETATM   17  C   UNK     0      38.534   6.127  -4.151  0.00  0.00     0.037 A 
HETATM   18  C   UNK     0      37.337   6.648  -3.660  0.00  0.00     0.010 A 
BRANCH  16  19
HETATM   19  O   UNK     0      40.530   4.868  -3.795  0.00  0.00    -0.361 OA
HETATM   20  H   UNK     0      41.240   5.517  -3.651  0.00  0.00     0.217 HD
ENDBRANCH  16  19
ENDBRANCH  12  13
ENDBRANCH  11  12
ENDBRANCH  10  11
ENDBRANCH   6  10
BRANCH   3  21
HETATM   21  O   UNK     0      32.180   5.364  -8.314  0.00  0.00    -0.390 OA
HETATM   22  H   UNK     0      31.298   5.675  -8.579  0.00  0.00     0.210 HD
ENDBRANCH   3  21
BRANCH   4  23
HETATM   23  O   UNK     0      31.075   6.825  -3.882  0.00  0.00    -0.388 OA
HETATM   24  H   UNK     0      30.712   5.924  -3.935  0.00  0.00     0.210 HD
ENDBRANCH   4  23
BRANCH   2  25
HETATM   25  O   UNK     0      30.478   7.102  -6.754  0.00  0.00    -0.390 OA
HETATM   26  H   UNK     0      30.069   7.599  -6.025  0.00  0.00     0.210 HD
ENDBRANCH   2  25
TORSDOF 10
ENDMDL
MODEL 3
REMARK VINA RESULT:      -6.9      2.846      7.676
REMARK  10 active torsions:
REMARK  status: ('A' for Active; 'I' for Inactive)
REMARK    1  A    between atoms: O_2  and  C_12 
REMARK    2  A    between atoms: O_2  and  C_14 
REMARK    3  A    between atoms: O_3  and  C_8 
REMARK    4  A    between atoms: O_4  and  C_9 
REMARK    5  A    between atoms: O_5  and  C_10 
REMARK    6  A    between atoms: O_6  and  C_13 
REMARK    7  A    between atoms: O_7  and  C_21 
REMARK    8  A    between atoms: C_11  and  C_13 
REMARK    9  A    between atoms: C_14  and  C_15 
REMARK   10  A    between atoms: C_15  and  C_16 
ROOT
HETATM    1  O   UNK     0      33.076   6.976  -5.643  0.00  0.00    -0.348 OA
HETATM    2  C   UNK     0      34.082   5.004  -7.473  0.00  0.00     0.183 C 
HETATM    3  C   UNK     0      34.998   5.816  -6.557  0.00  0.00     0.180 C 
HETATM    4  C   UNK     0      32.747   5.717  -7.693  0.00  0.00     0.204 C 
HETATM    5  C   UNK     0      34.255   6.250  -5.292  0.00  0.00     0.179 C 
HETATM    6  C   UNK     0      32.140   6.182  -6.370  0.00  0.00     0.291 C 
ENDROOT
BRANCH   5   7
HETATM    7  C   UNK     0      35.111   7.159  -4.417  0.00  0.00     0.198 C 
BRANCH   7   8
HETATM    8  O   UNK     0      35.979   6.354  -3.642  0.00  0.00    -0.398 OA
HETATM    9  H   UNK     0      35.431   5.838  -3.027  0.00  0.00     0.209 HD
ENDBRANCH   7   8
ENDBRANCH   5   7
BRANCH   6  10
HETATM   10  O   UNK     0      30.980   6.957  -6.668  0.00  0.00    -0.358 OA
BRANCH  10  11
HETATM   11  C   UNK     0      30.606   7.771  -5.566  0.00  0.00     0.175 C 
BRANCH  11  12
HETATM   12  C   UNK     0      29.087   7.833  -5.464  0.00  0.00     0.065 C 
BRANCH  12  13
HETATM   13  C   UNK     0      28.625   8.512  -4.197  0.00  0.00    -0.056 A 
HETATM   14  C   UNK     0      27.336   8.291  -3.739  0.00  0.00     0.010 A 
HETATM   15  C   UNK     0      26.909   8.918  -2.569  0.00  0.00     0.037 A 
HETATM   16  C   UNK     0      27.778   9.759  -1.872  0.00  0.00     0.065 A 
HETATM   17  C   UNK     0      29.072   9.971  -2.344  0.00  0.00     0.037 A 
HETATM   18  C   UNK     0      29.499   9.344  -3.515  0.00  0.00     0.010 A 
BRANCH  16  19
HETATM   19  O   UNK     0      27.361  10.371  -0.729  0.00  0.00    -0.361 OA
HETATM   20  H   UNK     0      27.967  10.135  -0.006  0.00  0.00     0.217 HD
ENDBRANCH  16  19
ENDBRANCH  12  13
ENDBRANCH  11  12
ENDBRANCH  10  11
ENDBRANCH   6  10
BRANCH   3  21
HETATM   21  O   UNK     0      36.124   5.022  -6.193  0.00  0.00    -0.390 OA
HETATM   22  H   UNK     0      36.915   5.587  -6.228  0.00  0.00     0.210 HD
ENDBRANCH   3  21
BRANCH   4  23
HETATM   23  O   UNK     0      31.828   4.819  -8.315  0.00  0.00    -0.388 OA
HETATM   24  H   UNK     0      31.848   4.983  -9.274  0.00  0.00     0.210 HD
ENDBRANCH   4  23
BRANCH   2  25
HETATM   25  O   UNK     0      34.746   4.839  -8.727  0.00  0.00    -0.390 OA
HETATM   26  H   UNK     0      35.035   3.912  -8.784  0.00  0.00     0.210 HD
ENDBRANCH   2  25
TORSDOF 10
ENDMDL
MODEL 4
REMARK VINA RESULT:      -6.8      1.062      1.579
REMARK  10 active torsions:
REMARK  status: ('A' for Active; 'I' for Inactive)
REMARK    1  A    between atoms: O_2  and  C_12 
REMARK    2  A    between atoms: O_2  and  C_14 
REMARK    3  A    between atoms: O_3  and  C_8 
REMARK    4  A    between atoms: O_4  and  C_9 
REMARK    5  A    between atoms: O_5  and  C_10 
REMARK    6  A    between atoms: O_6  and  C_13 
REMARK    7  A    between atoms: O_7  and  C_21 
REMARK    8  A    between atoms: C_11  and  C_13 
REMARK    9  A    between atoms: C_14  and  C_15 
REMARK   10  A    between atoms: C_15  and  C_16 
ROOT
HETATM    1  O   UNK     0      33.688   7.018  -5.840  0.00  0.00    -0.348 OA
HETATM    2  C   UNK     0      32.225   5.559  -7.836  0.00  0.00     0.183 C 
HETATM    3  C   UNK     0      31.533   6.337  -6.716  0.00  0.00     0.180 C 
HETATM    4  C   UNK     0      33.664   5.206  -7.456  0.00  0.00     0.204 C 
HETATM    5  C   UNK     0      32.405   7.502  -6.244  0.00  0.00     0.179 C 
HETATM    6  C   UNK     0      34.412   6.424  -6.916  0.00  0.00     0.291 C 
ENDROOT
BRANCH   5   7
HETATM    7  C   UNK     0      31.789   8.221  -5.048  0.00  0.00     0.198 C 
BRANCH   7   8
HETATM    8  O   UNK     0      30.890   9.204  -5.527  0.00  0.00    -0.398 OA
HETATM    9  H   UNK     0      31.411   9.993  -5.755  0.00  0.00     0.209 HD
ENDBRANCH   7   8
ENDBRANCH   5   7
BRANCH   6  10
HETATM   10  O   UNK     0      35.688   5.986  -6.453  0.00  0.00    -0.358 OA
BRANCH  10  11
HETATM   11  C   UNK     0      36.371   7.022  -5.763  0.00  0.00     0.175 C 
BRANCH  11  12
HETATM   12  C   UNK     0      37.289   6.420  -4.706  0.00  0.00     0.065 C 
BRANCH  12  13
HETATM   13  C   UNK     0      38.235   7.439  -4.119  0.00  0.00    -0.056 A 
HETATM   14  C   UNK     0      39.340   7.008  -3.404  0.00  0.00     0.010 A 
HETATM   15  C   UNK     0      40.215   7.949  -2.862  0.00  0.00     0.037 A 
HETATM   16  C   UNK     0      39.971   9.312  -3.042  0.00  0.00     0.065 A 
HETATM   17  C   UNK     0      38.855   9.731  -3.765  0.00  0.00     0.037 A 
HETATM   18  C   UNK     0      37.981   8.788  -4.307  0.00  0.00     0.010 A 
BRANCH  16  19
HETATM   19  O   UNK     0      40.825  10.231  -2.513  0.00  0.00    -0.361 OA
HETATM   20  H   UNK     0      40.883  10.090  -1.553  0.00  0.00     0.217 HD
ENDBRANCH  16  19
ENDBRANCH  12  13
ENDBRANCH  11  12
ENDBRANCH  10  11
ENDBRANCH   6  10
BRANCH   3  21
HETATM   21  O   UNK     0      30.289   6.843  -7.193  0.00  0.00    -0.390 OA
HETATM   22  H   UNK     0      30.448   7.726  -7.569  0.00  0.00     0.210 HD
ENDBRANCH   3  21
BRANCH   4  23
HETATM   23  O   UNK     0      34.356   4.733  -8.612  0.00  0.00    -0.388 OA
HETATM   24  H   UNK     0      33.773   4.850  -9.382  0.00  0.00     0.210 HD
ENDBRANCH   4  23
BRANCH   2  25
HETATM   25  O   UNK     0      31.485   4.360  -8.063  0.00  0.00    -0.390 OA
HETATM   26  H   UNK     0      31.604   4.117  -8.998  0.00  0.00     0.210 HD
ENDBRANCH   2  25
TORSDOF 10
ENDMDL
MODEL 5
REMARK VINA RESULT:      -6.6      1.973      2.155
REMARK  10 active torsions:
REMARK  status: ('A' for Active; 'I' for Inactive)
REMARK    1  A    between atoms: O_2  and  C_12 
REMARK    2  A    between atoms: O_2  and  C_14 
REMARK    3  A    between atoms: O_3  and  C_8 
REMARK    4  A    between atoms: O_4  and  C_9 
REMARK    5  A    between atoms: O_5  and  C_10 
REMARK    6  A    between atoms: O_6  and  C_13 
REMARK    7  A    between atoms: O_7  and  C_21 
REMARK    8  A    between atoms: C_11  and  C_13 
REMARK    9  A    between atoms: C_14  and  C_15 
REMARK   10  A    between atoms: C_15  and  C_16 
ROOT
HETATM    1  O   UNK     0      33.694   7.196  -5.912  0.00  0.00    -0.348 OA
HETATM    2  C   UNK     0      32.275   5.540  -7.782  0.00  0.00     0.183 C 
HETATM    3  C   UNK     0      31.566   6.325  -6.678  0.00  0.00     0.180 C 
HETATM    4  C   UNK     0      33.746   5.306  -7.435  0.00  0.00     0.204 C 
HETATM    5  C   UNK     0      32.369   7.570  -6.294  0.00  0.00     0.179 C 
HETATM    6  C   UNK     0      34.424   6.598  -6.982  0.00  0.00     0.291 C 
ENDROOT
BRANCH   5   7
HETATM    7  C   UNK     0      31.742   8.306  -5.115  0.00  0.00     0.198 C 
BRANCH   7   8
HETATM    8  O   UNK     0      32.043   9.684  -5.231  0.00  0.00    -0.398 OA
HETATM    9  H   UNK     0      31.370  10.085  -5.806  0.00  0.00     0.209 HD
ENDBRANCH   7   8
ENDBRANCH   5   7
BRANCH   6  10
HETATM   10  O   UNK     0      35.742   6.273  -6.543  0.00  0.00    -0.358 OA
BRANCH  10  11
HETATM   11  C   UNK     0      36.171   7.144  -5.507  0.00  0.00     0.175 C 
BRANCH  11  12
HETATM   12  C   UNK     0      37.365   6.534  -4.782  0.00  0.00     0.065 C 
BRANCH  12  13
HETATM   13  C   UNK     0      37.163   6.484  -3.287  0.00  0.00    -0.056 A 
HETATM   14  C   UNK     0      35.942   6.857  -2.753  0.00  0.00     0.010 A 
HETATM   15  C   UNK     0      35.755   6.811  -1.372  0.00  0.00     0.037 A 
HETATM   16  C   UNK     0      36.796   6.392  -0.542  0.00  0.00     0.065 A 
HETATM   17  C   UNK     0      38.021   6.019  -1.093  0.00  0.00     0.037 A 
HETATM   18  C   UNK     0      38.206   6.065  -2.475  0.00  0.00     0.010 A 
BRANCH  16  19
HETATM   19  O   UNK     0      36.614   6.347   0.807  0.00  0.00    -0.361 OA
HETATM   20  H   UNK     0      36.969   5.507   1.145  0.00  0.00     0.217 HD
ENDBRANCH  16  19
ENDBRANCH  12  13
ENDBRANCH  11  12
ENDBRANCH  10  11
ENDBRANCH   6  10
BRANCH   3  21
HETATM   21  O   UNK     0      30.276   6.720  -7.136  0.00  0.00    -0.390 OA
HETATM   22  H   UNK     0      30.329   6.865  -8.096  0.00  0.00     0.210 HD
ENDBRANCH   3  21
BRANCH   4  23
HETATM   23  O   UNK     0      34.433   4.822  -8.590  0.00  0.00    -0.388 OA
HETATM   24  H   UNK     0      34.286   3.862  -8.648  0.00  0.00     0.210 HD
ENDBRANCH   4  23
BRANCH   2  25
HETATM   25  O   UNK     0      31.614   4.283  -7.924  0.00  0.00    -0.390 OA
HETATM   26  H   UNK     0      32.163   3.613  -7.481  0.00  0.00     0.210 HD
ENDBRANCH   2  25
TORSDOF 10
ENDMDL
MODEL 6
REMARK VINA RESULT:      -6.4      1.846      8.211
REMARK  10 active torsions:
REMARK  status: ('A' for Active; 'I' for Inactive)
REMARK    1  A    between atoms: O_2  and  C_12 
REMARK    2  A    between atoms: O_2  and  C_14 
REMARK    3  A    between atoms: O_3  and  C_8 
REMARK    4  A    between atoms: O_4  and  C_9 
REMARK    5  A    between atoms: O_5  and  C_10 
REMARK    6  A    between atoms: O_6  and  C_13 
REMARK    7  A    between atoms: O_7  and  C_21 
REMARK    8  A    between atoms: C_11  and  C_13 
REMARK    9  A    between atoms: C_14  and  C_15 
REMARK   10  A    between atoms: C_15  and  C_16 
ROOT
HETATM    1  O   UNK     0      38.036   6.311  -3.934  0.00  0.00    -0.348 OA
HETATM    2  C   UNK     0      39.533   8.709  -3.424  0.00  0.00     0.183 C 
HETATM    3  C   UNK     0      39.871   7.373  -2.760  0.00  0.00     0.180 C 
HETATM    4  C   UNK     0      38.080   8.739  -3.898  0.00  0.00     0.204 C 
HETATM    5  C   UNK     0      39.430   6.202  -3.640  0.00  0.00     0.179 C 
HETATM    6  C   UNK     0      37.726   7.480  -4.690  0.00  0.00     0.291 C 
ENDROOT
BRANCH   5   7
HETATM    7  C   UNK     0      39.648   4.861  -2.947  0.00  0.00     0.198 C 
BRANCH   7   8
HETATM    8  O   UNK     0      40.952   4.403  -3.252  0.00  0.00    -0.398 OA
HETATM    9  H   UNK     0      41.015   3.477  -2.961  0.00  0.00     0.209 HD
ENDBRANCH   7   8
ENDBRANCH   5   7
BRANCH   6  10
HETATM   10  O   UNK     0      36.328   7.516  -4.971  0.00  0.00    -0.358 OA
BRANCH  10  11
HETATM   11  C   UNK     0      36.005   6.709  -6.093  0.00  0.00     0.175 C 
BRANCH  11  12
HETATM   12  C   UNK     0      35.004   5.635  -5.685  0.00  0.00     0.065 C 
BRANCH  12  13
HETATM   13  C   UNK     0      33.613   5.923  -6.196  0.00  0.00    -0.056 A 
HETATM   14  C   UNK     0      32.809   6.817  -5.510  0.00  0.00     0.010 A 
HETATM   15  C   UNK     0      31.524   7.083  -5.982  0.00  0.00     0.037 A 
HETATM   16  C   UNK     0      31.060   6.449  -7.136  0.00  0.00     0.065 A 
HETATM   17  C   UNK     0      31.882   5.552  -7.817  0.00  0.00     0.037 A 
HETATM   18  C   UNK     0      33.167   5.286  -7.343  0.00  0.00     0.010 A 
BRANCH  16  19
HETATM   19  O   UNK     0      29.806   6.709  -7.597  0.00  0.00    -0.361 OA
HETATM   20  H   UNK     0      29.858   7.402  -8.277  0.00  0.00     0.217 HD
ENDBRANCH  16  19
ENDBRANCH  12  13
ENDBRANCH  11  12
ENDBRANCH  10  11
ENDBRANCH   6  10
BRANCH   3  21
HETATM   21  O   UNK     0      41.277   7.297  -2.545  0.00  0.00    -0.390 OA
HETATM   22  H   UNK     0      41.693   8.051  -2.997  0.00  0.00     0.210 HD
ENDBRANCH   3  21
BRANCH   4  23
HETATM   23  O   UNK     0      37.881   9.871  -4.745  0.00  0.00    -0.388 OA
HETATM   24  H   UNK     0      38.197   9.640  -5.636  0.00  0.00     0.210 HD
ENDBRANCH   4  23
BRANCH   2  25
HETATM   25  O   UNK     0      39.743   9.745  -2.465  0.00  0.00    -0.390 OA
HETATM   26  H   UNK     0      38.880   9.950  -2.065  0.00  0.00     0.210 HD
ENDBRANCH   2  25
TORSDOF 10
ENDMDL
MODEL 7
REMARK VINA RESULT:      -6.3     18.528     21.122
REMARK  10 active torsions:
REMARK  status: ('A' for Active; 'I' for Inactive)
REMARK    1  A    between atoms: O_2  and  C_12 
REMARK    2  A    between atoms: O_2  and  C_14 
REMARK    3  A    between atoms: O_3  and  C_8 
REMARK    4  A    between atoms: O_4  and  C_9 
REMARK    5  A    between atoms: O_5  and  C_10 
REMARK    6  A    between atoms: O_6  and  C_13 
REMARK    7  A    between atoms: O_7  and  C_21 
REMARK    8  A    between atoms: C_11  and  C_13 
REMARK    9  A    between atoms: C_14  and  C_15 
REMARK   10  A    between atoms: C_15  and  C_16 
ROOT
HETATM    1  O   UNK     0      36.352  -0.468  13.833  0.00  0.00    -0.348 OA
HETATM    2  C   UNK     0      39.155   0.126  13.628  0.00  0.00     0.183 C 
HETATM    3  C   UNK     0      38.188   0.994  14.435  0.00  0.00     0.180 C 
HETATM    4  C   UNK     0      38.413  -0.687  12.567  0.00  0.00     0.204 C 
HETATM    5  C   UNK     0      37.003   0.167  14.935  0.00  0.00     0.179 C 
HETATM    6  C   UNK     0      37.198  -1.400  13.160  0.00  0.00     0.291 C 
ENDROOT
BRANCH   5   7
HETATM    7  C   UNK     0      35.967   1.034  15.642  0.00  0.00     0.198 C 
BRANCH   7   8
HETATM    8  O   UNK     0      36.176   0.940  17.038  0.00  0.00    -0.398 OA
HETATM    9  H   UNK     0      36.699   0.137  17.204  0.00  0.00     0.209 HD
ENDBRANCH   7   8
ENDBRANCH   5   7
BRANCH   6  10
HETATM   10  O   UNK     0      36.483  -2.014  12.090  0.00  0.00    -0.358 OA
BRANCH  10  11
HETATM   11  C   UNK     0      36.254  -3.392  12.346  0.00  0.00     0.175 C 
BRANCH  11  12
HETATM   12  C   UNK     0      36.685  -4.219  11.140  0.00  0.00     0.065 C 
BRANCH  12  13
HETATM   13  C   UNK     0      35.512  -4.660  10.298  0.00  0.00    -0.056 A 
HETATM   14  C   UNK     0      34.810  -3.719   9.564  0.00  0.00     0.010 A 
HETATM   15  C   UNK     0      33.726  -4.128   8.786  0.00  0.00     0.037 A 
HETATM   16  C   UNK     0      33.359  -5.474   8.755  0.00  0.00     0.065 A 
HETATM   17  C   UNK     0      34.075  -6.410   9.499  0.00  0.00     0.037 A 
HETATM   18  C   UNK     0      35.159  -6.001  10.276  0.00  0.00     0.010 A 
BRANCH  16  19
HETATM   19  O   UNK     0      32.302  -5.872   7.996  0.00  0.00    -0.361 OA
HETATM   20  H   UNK     0      31.930  -5.096   7.542  0.00  0.00     0.217 HD
ENDBRANCH  16  19
ENDBRANCH  12  13
ENDBRANCH  11  12
ENDBRANCH  10  11
ENDBRANCH   6  10
BRANCH   3  21
HETATM   21  O   UNK     0      38.877   1.553  15.551  0.00  0.00    -0.390 OA
HETATM   22  H   UNK     0      38.979   0.856  16.221  0.00  0.00     0.210 HD
ENDBRANCH   3  21
BRANCH   4  23
HETATM   23  O   UNK     0      39.291  -1.675  12.028  0.00  0.00    -0.388 OA
HETATM   24  H   UNK     0      40.075  -1.221  11.674  0.00  0.00     0.210 HD
ENDBRANCH   4  23
BRANCH   2  25
HETATM   25  O   UNK     0      40.098   0.989  12.992  0.00  0.00    -0.390 OA
HETATM   26  H   UNK     0      40.941   0.508  12.936  0.00  0.00     0.210 HD
ENDBRANCH   2  25
TORSDOF 10
ENDMDL
MODEL 8
REMARK VINA RESULT:      -6.2     16.510     19.520
REMARK  10 active torsions:
REMARK  status: ('A' for Active; 'I' for Inactive)
REMARK    1  A    between atoms: O_2  and  C_12 
REMARK    2  A    between atoms: O_2  and  C_14 
REMARK    3  A    between atoms: O_3  and  C_8 
REMARK    4  A    between atoms: O_4  and  C_9 
REMARK    5  A    between atoms: O_5  and  C_10 
REMARK    6  A    between atoms: O_6  and  C_13 
REMARK    7  A    between atoms: O_7  and  C_21 
REMARK    8  A    between atoms: C_11  and  C_13 
REMARK    9  A    between atoms: C_14  and  C_15 
REMARK   10  A    between atoms: C_15  and  C_16 
ROOT
HETATM    1  O   UNK     0      37.511  -0.221  14.029  0.00  0.00    -0.348 OA
HETATM    2  C   UNK     0      36.590  -2.602  12.713  0.00  0.00     0.183 C 
HETATM    3  C   UNK     0      35.741  -1.852  13.740  0.00  0.00     0.180 C 
HETATM    4  C   UNK     0      38.077  -2.289  12.890  0.00  0.00     0.204 C 
HETATM    5  C   UNK     0      36.113  -0.368  13.771  0.00  0.00     0.179 C 
HETATM    6  C   UNK     0      38.320  -0.784  12.998  0.00  0.00     0.291 C 
ENDROOT
BRANCH   5   7
HETATM    7  C   UNK     0      35.363   0.379  14.869  0.00  0.00     0.198 C 
BRANCH   7   8
HETATM    8  O   UNK     0      34.975  -0.550  15.863  0.00  0.00    -0.398 OA
HETATM    9  H   UNK     0      35.397  -1.400  15.653  0.00  0.00     0.209 HD
ENDBRANCH   7   8
ENDBRANCH   5   7
BRANCH   6  10
HETATM   10  O   UNK     0      39.698  -0.583  13.303  0.00  0.00    -0.358 OA
BRANCH  10  11
HETATM   11  C   UNK     0      40.304   0.316  12.386  0.00  0.00     0.175 C 
BRANCH  11  12
HETATM   12  C   UNK     0      39.342   0.611  11.241  0.00  0.00     0.065 C 
BRANCH  12  13
HETATM   13  C   UNK     0      39.671   1.903  10.533  0.00  0.00    -0.056 A 
HETATM   14  C   UNK     0      40.652   1.912   9.557  0.00  0.00     0.010 A 
HETATM   15  C   UNK     0      40.956   3.106   8.903  0.00  0.00     0.037 A 
HETATM   16  C   UNK     0      40.273   4.276   9.236  0.00  0.00     0.065 A 
HETATM   17  C   UNK     0      39.287   4.252  10.221  0.00  0.00     0.037 A 
HETATM   18  C   UNK     0      38.984   3.058  10.874  0.00  0.00     0.010 A 
BRANCH  16  19
HETATM   19  O   UNK     0      40.570   5.441   8.597  0.00  0.00    -0.361 OA
HETATM   20  H   UNK     0      41.001   5.235   7.750  0.00  0.00     0.217 HD
ENDBRANCH  16  19
ENDBRANCH  12  13
ENDBRANCH  11  12
ENDBRANCH  10  11
ENDBRANCH   6  10
BRANCH   3  21
HETATM   21  O   UNK     0      34.364  -1.985  13.399  0.00  0.00    -0.390 OA
HETATM   22  H   UNK     0      34.220  -1.538  12.548  0.00  0.00     0.210 HD
ENDBRANCH   3  21
BRANCH   4  23
HETATM   23  O   UNK     0      38.801  -2.779  11.761  0.00  0.00    -0.388 OA
HETATM   24  H   UNK     0      39.599  -3.231  12.088  0.00  0.00     0.210 HD
ENDBRANCH   4  23
BRANCH   2  25
HETATM   25  O   UNK     0      36.373  -4.001  12.899  0.00  0.00    -0.390 OA
HETATM   26  H   UNK     0      36.912  -4.282  13.658  0.00  0.00     0.210 HD
ENDBRANCH   2  25
TORSDOF 10
ENDMDL
MODEL 9
REMARK VINA RESULT:      -6.2     20.125     21.630
REMARK  10 active torsions:
REMARK  status: ('A' for Active; 'I' for Inactive)
REMARK    1  A    between atoms: O_2  and  C_12 
REMARK    2  A    between atoms: O_2  and  C_14 
REMARK    3  A    between atoms: O_3  and  C_8 
REMARK    4  A    between atoms: O_4  and  C_9 
REMARK    5  A    between atoms: O_5  and  C_10 
REMARK    6  A    between atoms: O_6  and  C_13 
REMARK    7  A    between atoms: O_7  and  C_21 
REMARK    8  A    between atoms: C_11  and  C_13 
REMARK    9  A    between atoms: C_14  and  C_15 
REMARK   10  A    between atoms: C_15  and  C_16 
ROOT
HETATM    1  O   UNK     0      37.082  -0.386  13.199  0.00  0.00    -0.348 OA
HETATM    2  C   UNK     0      39.749  -1.287  12.630  0.00  0.00     0.183 C 
HETATM    3  C   UNK     0      38.535  -2.212  12.543  0.00  0.00     0.180 C 
HETATM    4  C   UNK     0      39.468  -0.089  13.538  0.00  0.00     0.204 C 
HETATM    5  C   UNK     0      37.267  -1.415  12.226  0.00  0.00     0.179 C 
HETATM    6  C   UNK     0      38.137   0.574  13.187  0.00  0.00     0.291 C 
ENDROOT
BRANCH   5   7
HETATM    7  C   UNK     0      36.024  -2.298  12.250  0.00  0.00     0.198 C 
BRANCH   7   8
HETATM    8  O   UNK     0      36.292  -3.434  13.050  0.00  0.00    -0.398 OA
HETATM    9  H   UNK     0      37.223  -3.678  12.914  0.00  0.00     0.209 HD
ENDBRANCH   7   8
ENDBRANCH   5   7
BRANCH   6  10
HETATM   10  O   UNK     0      37.879   1.584  14.161  0.00  0.00    -0.358 OA
BRANCH  10  11
HETATM   11  C   UNK     0      36.612   2.191  13.954  0.00  0.00     0.175 C 
BRANCH  11  12
HETATM   12  C   UNK     0      36.263   3.075  15.146  0.00  0.00     0.065 C 
BRANCH  12  13
HETATM   13  C   UNK     0      34.812   2.954  15.545  0.00  0.00    -0.056 A 
HETATM   14  C   UNK     0      34.078   4.101  15.793  0.00  0.00     0.010 A 
HETATM   15  C   UNK     0      32.737   3.989  16.162  0.00  0.00     0.037 A 
HETATM   16  C   UNK     0      32.149   2.729  16.277  0.00  0.00     0.065 A 
HETATM   17  C   UNK     0      32.901   1.583  16.024  0.00  0.00     0.037 A 
HETATM   18  C   UNK     0      34.241   1.696  15.655  0.00  0.00     0.010 A 
BRANCH  16  19
HETATM   19  O   UNK     0      30.841   2.621  16.637  0.00  0.00    -0.361 OA
HETATM   20  H   UNK     0      30.310   2.435  15.843  0.00  0.00     0.217 HD
ENDBRANCH  16  19
ENDBRANCH  12  13
ENDBRANCH  11  12
ENDBRANCH  10  11
ENDBRANCH   6  10
BRANCH   3  21
HETATM   21  O   UNK     0      38.752  -3.179  11.519  0.00  0.00    -0.390 OA
HETATM   22  H   UNK     0      39.405  -3.821  11.845  0.00  0.00     0.210 HD
ENDBRANCH   3  21
BRANCH   4  23
HETATM   23  O   UNK     0      40.505   0.879  13.379  0.00  0.00    -0.388 OA
HETATM   24  H   UNK     0      40.933   0.725  12.518  0.00  0.00     0.210 HD
ENDBRANCH   4  23
BRANCH   2  25
HETATM   25  O   UNK     0      40.840  -2.040  13.161  0.00  0.00    -0.390 OA
HETATM   26  H   UNK     0      40.632  -2.241  14.089  0.00  0.00     0.210 HD
ENDBRANCH   2  25
TORSDOF 10
ENDMDL
