MODEL 1
REMARK VINA RESULT:      -9.5      0.000      0.000
REMARK  11 active torsions:
REMARK  status: ('A' for Active; 'I' for Inactive)
REMARK    1  A    between atoms: O_1  and  C_9 
REMARK    2  A    between atoms: O_2  and  C_19 
REMARK    3  A    between atoms: O_3  and  C_26 
REMARK    4  A    between atoms: O_4  and  C_27 
REMARK    5  A    between atoms: O_6  and  C_28 
REMARK    6  A    between atoms: O_7  and  C_32 
REMARK    7  A    between atoms: C_10  and  C_19 
REMARK    8  A    between atoms: C_19  and  C_27 
REMARK    9  A    between atoms: C_27  and  C_30 
REMARK   10  A    between atoms: C_30  and  C_31 
REMARK   11  A    between atoms: C_31  and  C_32 
ROOT
HETATM    1  O   UNK     0     160.791 185.336 159.365  0.00  0.00    -0.384 OA
HETATM    2  H   UNK     0     160.711 184.371 159.460  0.00  0.00     0.211 HD
ENDROOT
BRANCH   1   3
HETATM    3  C   UNK     0     160.276 185.944 160.572  0.00  0.00     0.089 C 
HETATM    4  C   UNK     0     161.146 187.174 160.940  0.00  0.00    -0.002 C 
HETATM    5  C   UNK     0     162.504 186.489 161.239  0.00  0.00     0.034 C 
HETATM    6  C   UNK     0     161.181 188.128 159.733  0.00  0.00     0.014 C 
HETATM    7  C   UNK     0     160.622 187.933 162.190  0.00  0.00     0.019 C 
HETATM    8  C   UNK     0     162.107 185.201 161.996  0.00  0.00     0.012 C 
HETATM    9  C   UNK     0     160.610 184.960 161.703  0.00  0.00     0.044 C 
HETATM   10  C   UNK     0     159.764 188.585 159.349  0.00  0.00     0.011 C 
HETATM   11  C   UNK     0     158.720 187.438 159.182  0.00  0.00     0.027 C 
HETATM   12  C   UNK     0     157.247 187.985 159.028  0.00  0.00    -0.023 C 
HETATM   13  C   UNK     0     158.851 186.342 160.251  0.00  0.00    -0.037 C 
HETATM   14  C   UNK     0     156.234 186.806 159.066  0.00  0.00     0.071 C 
HETATM   15  C   UNK     0     157.058 188.754 157.689  0.00  0.00     0.044 C 
HETATM   16  C   UNK     0     156.880 188.971 160.171  0.00  0.00     0.016 C 
HETATM   17  C   UNK     0     156.292 185.905 157.819  0.00  0.00     0.047 C 
HETATM   18  C   UNK     0     156.425 185.960 160.310  0.00  0.00     0.154 C 
HETATM   19  C   UNK     0     156.104 186.708 156.533  0.00  0.00     0.147 C 
HETATM   20  C   UNK     0     157.114 187.853 156.450  0.00  0.00     0.147 C 
HETATM   21  O   UNK     0     155.475 185.425 160.880  0.00  0.00    -0.293 OA
HETATM   22  C   UNK     0     157.801 185.709 160.795  0.00  0.00     0.057 C 
BRANCH   5  23
HETATM   23  C   UNK     0     163.535 187.322 161.990  0.00  0.00     0.084 C 
HETATM   24  C   UNK     0     164.458 188.036 160.989  0.00  0.00     0.049 C 
BRANCH  23  25
HETATM   25  O   UNK     0     162.846 188.335 162.734  0.00  0.00    -0.387 OA
HETATM   26  H   UNK     0     162.975 189.191 162.294  0.00  0.00     0.210 HD
ENDBRANCH  23  25
BRANCH  23  27
HETATM   27  C   UNK     0     164.364 186.468 162.988  0.00  0.00     0.152 C 
BRANCH  27  28
HETATM   28  O   UNK     0     164.671 187.249 164.148  0.00  0.00    -0.393 OA
HETATM   29  H   UNK     0     165.640 187.309 164.211  0.00  0.00     0.210 HD
ENDBRANCH  27  28
BRANCH  27  30
HETATM   30  C   UNK     0     165.684 185.922 162.410  0.00  0.00     0.037 C 
BRANCH  30  31
HETATM   31  C   UNK     0     166.433 185.033 163.420  0.00  0.00     0.040 C 
BRANCH  31  32
HETATM   32  C   UNK     0     167.737 185.648 163.970  0.00  0.00     0.051 C 
HETATM   33  C   UNK     0     168.782 184.545 164.165  0.00  0.00     0.045 C 
HETATM   34  C   UNK     0     168.298 186.744 163.062  0.00  0.00     0.045 C 
BRANCH  32  35
HETATM   35  O   UNK     0     167.459 186.219 165.251  0.00  0.00    -0.391 OA
HETATM   36  H   UNK     0     166.538 186.007 165.478  0.00  0.00     0.210 HD
ENDBRANCH  32  35
ENDBRANCH  31  32
ENDBRANCH  30  31
ENDBRANCH  27  30
ENDBRANCH  23  27
ENDBRANCH   5  23
BRANCH  19  37
HETATM   37  O   UNK     0     154.780 187.244 156.505  0.00  0.00    -0.393 OA
HETATM   38  H   UNK     0     154.200 186.573 156.109  0.00  0.00     0.210 HD
ENDBRANCH  19  37
BRANCH  20  39
HETATM   39  O   UNK     0     156.843 188.627 155.283  0.00  0.00    -0.393 OA
HETATM   40  H   UNK     0     157.561 189.276 155.190  0.00  0.00     0.210 HD
ENDBRANCH  20  39
ENDBRANCH   1   3
TORSDOF 11
ENDMDL
MODEL 2
REMARK VINA RESULT:      -8.8      2.097      9.246
REMARK  11 active torsions:
REMARK  status: ('A' for Active; 'I' for Inactive)
REMARK    1  A    between atoms: O_1  and  C_9 
REMARK    2  A    between atoms: O_2  and  C_19 
REMARK    3  A    between atoms: O_3  and  C_26 
REMARK    4  A    between atoms: O_4  and  C_27 
REMARK    5  A    between atoms: O_6  and  C_28 
REMARK    6  A    between atoms: O_7  and  C_32 
REMARK    7  A    between atoms: C_10  and  C_19 
REMARK    8  A    between atoms: C_19  and  C_27 
REMARK    9  A    between atoms: C_27  and  C_30 
REMARK   10  A    between atoms: C_30  and  C_31 
REMARK   11  A    between atoms: C_31  and  C_32 
ROOT
HETATM    1  O   UNK     0     161.913 184.443 161.069  0.00  0.00    -0.384 OA
HETATM    2  H   UNK     0     161.007 184.532 161.413  0.00  0.00     0.211 HD
ENDROOT
BRANCH   1   3
HETATM    3  C   UNK     0     162.424 185.772 160.822  0.00  0.00     0.089 C 
HETATM    4  C   UNK     0     161.241 186.771 160.739  0.00  0.00    -0.002 C 
HETATM    5  C   UNK     0     160.510 186.249 159.476  0.00  0.00     0.034 C 
HETATM    6  C   UNK     0     160.412 186.658 162.031  0.00  0.00     0.014 C 
HETATM    7  C   UNK     0     161.703 188.241 160.542  0.00  0.00     0.019 C 
HETATM    8  C   UNK     0     161.660 185.880 158.511  0.00  0.00     0.012 C 
HETATM    9  C   UNK     0     162.936 185.753 159.373  0.00  0.00     0.044 C 
HETATM   10  C   UNK     0     161.272 186.967 163.267  0.00  0.00     0.011 C 
HETATM   11  C   UNK     0     162.623 186.191 163.346  0.00  0.00     0.027 C 
HETATM   12  C   UNK     0     163.558 186.727 164.500  0.00  0.00    -0.023 C 
HETATM   13  C   UNK     0     163.337 186.082 161.989  0.00  0.00    -0.037 C 
HETATM   14  C   UNK     0     164.958 186.059 164.406  0.00  0.00     0.071 C 
HETATM   15  C   UNK     0     162.962 186.427 165.905  0.00  0.00     0.044 C 
HETATM   16  C   UNK     0     163.752 188.265 164.410  0.00  0.00     0.016 C 
HETATM   17  C   UNK     0     164.952 184.564 164.771  0.00  0.00     0.047 C 
HETATM   18  C   UNK     0     165.559 186.238 163.025  0.00  0.00     0.154 C 
HETATM   19  C   UNK     0     164.356 184.323 166.157  0.00  0.00     0.147 C 
HETATM   20  C   UNK     0     162.960 184.937 166.267  0.00  0.00     0.147 C 
HETATM   21  O   UNK     0     166.770 186.383 162.861  0.00  0.00    -0.293 OA
HETATM   22  C   UNK     0     164.669 186.153 161.846  0.00  0.00     0.057 C 
BRANCH   5  23
HETATM   23  C   UNK     0     159.488 187.187 158.844  0.00  0.00     0.084 C 
HETATM   24  C   UNK     0     160.134 188.557 158.577  0.00  0.00     0.049 C 
BRANCH  23  25
HETATM   25  O   UNK     0     159.098 186.644 157.576  0.00  0.00    -0.387 OA
HETATM   26  H   UNK     0     159.256 187.309 156.886  0.00  0.00     0.210 HD
ENDBRANCH  23  25
BRANCH  23  27
HETATM   27  C   UNK     0     158.214 187.342 159.718  0.00  0.00     0.152 C 
BRANCH  27  28
HETATM   28  O   UNK     0     157.526 186.089 159.788  0.00  0.00    -0.393 OA
HETATM   29  H   UNK     0     158.200 185.387 159.781  0.00  0.00     0.210 HD
ENDBRANCH  27  28
BRANCH  27  30
HETATM   30  C   UNK     0     157.226 188.410 159.211  0.00  0.00     0.037 C 
BRANCH  30  31
HETATM   31  C   UNK     0     155.864 187.801 158.828  0.00  0.00     0.040 C 
BRANCH  31  32
HETATM   32  C   UNK     0     155.658 187.596 157.312  0.00  0.00     0.051 C 
HETATM   33  C   UNK     0     154.159 187.603 156.993  0.00  0.00     0.045 C 
HETATM   34  C   UNK     0     156.374 188.657 156.474  0.00  0.00     0.045 C 
BRANCH  32  35
HETATM   35  O   UNK     0     156.176 186.312 156.958  0.00  0.00    -0.391 OA
HETATM   36  H   UNK     0     155.524 185.875 156.385  0.00  0.00     0.210 HD
ENDBRANCH  32  35
ENDBRANCH  31  32
ENDBRANCH  30  31
ENDBRANCH  27  30
ENDBRANCH  23  27
ENDBRANCH   5  23
BRANCH  19  37
HETATM   37  O   UNK     0     165.208 184.912 167.142  0.00  0.00    -0.393 OA
HETATM   38  H   UNK     0     164.903 185.824 167.286  0.00  0.00     0.210 HD
ENDBRANCH  19  37
BRANCH  20  39
HETATM   39  O   UNK     0     162.482 184.769 167.599  0.00  0.00    -0.393 OA
HETATM   40  H   UNK     0     161.511 184.810 167.569  0.00  0.00     0.210 HD
ENDBRANCH  20  39
ENDBRANCH   1   3
TORSDOF 11
ENDMDL
MODEL 3
REMARK VINA RESULT:      -8.6      1.934      9.528
REMARK  11 active torsions:
REMARK  status: ('A' for Active; 'I' for Inactive)
REMARK    1  A    between atoms: O_1  and  C_9 
REMARK    2  A    between atoms: O_2  and  C_19 
REMARK    3  A    between atoms: O_3  and  C_26 
REMARK    4  A    between atoms: O_4  and  C_27 
REMARK    5  A    between atoms: O_6  and  C_28 
REMARK    6  A    between atoms: O_7  and  C_32 
REMARK    7  A    between atoms: C_10  and  C_19 
REMARK    8  A    between atoms: C_19  and  C_27 
REMARK    9  A    between atoms: C_27  and  C_30 
REMARK   10  A    between atoms: C_30  and  C_31 
REMARK   11  A    between atoms: C_31  and  C_32 
ROOT
HETATM    1  O   UNK     0     162.757 188.766 162.952  0.00  0.00    -0.384 OA
HETATM    2  H   UNK     0     162.206 189.374 162.429  0.00  0.00     0.211 HD
ENDROOT
BRANCH   1   3
HETATM    3  C   UNK     0     161.909 187.693 163.421  0.00  0.00     0.089 C 
HETATM    4  C   UNK     0     161.401 186.870 162.209  0.00  0.00    -0.002 C 
HETATM    5  C   UNK     0     160.542 187.933 161.477  0.00  0.00     0.034 C 
HETATM    6  C   UNK     0     162.619 186.388 161.400  0.00  0.00     0.014 C 
HETATM    7  C   UNK     0     160.535 185.650 162.625  0.00  0.00     0.019 C 
HETATM    8  C   UNK     0     159.831 188.685 162.625  0.00  0.00     0.012 C 
HETATM    9  C   UNK     0     160.622 188.371 163.915  0.00  0.00     0.044 C 
HETATM   10  C   UNK     0     163.550 185.524 162.266  0.00  0.00     0.011 C 
HETATM   11  C   UNK     0     163.946 186.147 163.640  0.00  0.00     0.027 C 
HETATM   12  C   UNK     0     164.697 185.118 164.573  0.00  0.00    -0.023 C 
HETATM   13  C   UNK     0     162.777 186.859 164.339  0.00  0.00    -0.037 C 
HETATM   14  C   UNK     0     164.888 185.726 165.991  0.00  0.00     0.071 C 
HETATM   15  C   UNK     0     166.095 184.744 164.004  0.00  0.00     0.044 C 
HETATM   16  C   UNK     0     163.899 183.794 164.721  0.00  0.00     0.016 C 
HETATM   17  C   UNK     0     165.905 186.881 166.033  0.00  0.00     0.047 C 
HETATM   18  C   UNK     0     163.567 186.195 166.569  0.00  0.00     0.154 C 
HETATM   19  C   UNK     0     167.259 186.462 165.462  0.00  0.00     0.147 C 
HETATM   20  C   UNK     0     167.106 185.896 164.050  0.00  0.00     0.147 C 
HETATM   21  O   UNK     0     163.325 186.119 167.773  0.00  0.00    -0.293 OA
HETATM   22  C   UNK     0     162.584 186.836 165.667  0.00  0.00     0.057 C 
BRANCH   5  23
HETATM   23  C   UNK     0     159.573 187.416 160.421  0.00  0.00     0.084 C 
HETATM   24  C   UNK     0     159.717 188.243 159.132  0.00  0.00     0.049 C 
BRANCH  23  25
HETATM   25  O   UNK     0     159.928 186.063 160.104  0.00  0.00    -0.387 OA
HETATM   26  H   UNK     0     160.747 185.834 160.574  0.00  0.00     0.210 HD
ENDBRANCH  23  25
BRANCH  23  27
HETATM   27  C   UNK     0     158.102 187.427 160.918  0.00  0.00     0.152 C 
BRANCH  27  28
HETATM   28  O   UNK     0     157.555 186.107 160.826  0.00  0.00    -0.393 OA
HETATM   29  H   UNK     0     158.267 185.481 161.050  0.00  0.00     0.210 HD
ENDBRANCH  27  28
BRANCH  27  30
HETATM   30  C   UNK     0     157.180 188.388 160.145  0.00  0.00     0.037 C 
BRANCH  30  31
HETATM   31  C   UNK     0     155.884 187.697 159.680  0.00  0.00     0.040 C 
BRANCH  31  32
HETATM   32  C   UNK     0     155.853 187.339 158.179  0.00  0.00     0.051 C 
HETATM   33  C   UNK     0     154.401 187.148 157.728  0.00  0.00     0.045 C 
HETATM   34  C   UNK     0     156.535 188.397 157.309  0.00  0.00     0.045 C 
BRANCH  32  35
HETATM   35  O   UNK     0     156.535 186.096 157.999  0.00  0.00    -0.391 OA
HETATM   36  H   UNK     0     156.620 185.673 158.870  0.00  0.00     0.210 HD
ENDBRANCH  32  35
ENDBRANCH  31  32
ENDBRANCH  30  31
ENDBRANCH  27  30
ENDBRANCH  23  27
ENDBRANCH   5  23
BRANCH  19  37
HETATM   37  O   UNK     0     167.837 185.468 166.308  0.00  0.00    -0.393 OA
HETATM   38  H   UNK     0     168.766 185.713 166.458  0.00  0.00     0.210 HD
ENDBRANCH  19  37
BRANCH  20  39
HETATM   39  O   UNK     0     168.376 185.436 163.594  0.00  0.00    -0.393 OA
HETATM   40  H   UNK     0     168.544 184.576 164.016  0.00  0.00     0.210 HD
ENDBRANCH  20  39
ENDBRANCH   1   3
TORSDOF 11
ENDMDL
MODEL 4
REMARK VINA RESULT:      -8.6      5.529      9.492
REMARK  11 active torsions:
REMARK  status: ('A' for Active; 'I' for Inactive)
REMARK    1  A    between atoms: O_1  and  C_9 
REMARK    2  A    between atoms: O_2  and  C_19 
REMARK    3  A    between atoms: O_3  and  C_26 
REMARK    4  A    between atoms: O_4  and  C_27 
REMARK    5  A    between atoms: O_6  and  C_28 
REMARK    6  A    between atoms: O_7  and  C_32 
REMARK    7  A    between atoms: C_10  and  C_19 
REMARK    8  A    between atoms: C_19  and  C_27 
REMARK    9  A    between atoms: C_27  and  C_30 
REMARK   10  A    between atoms: C_30  and  C_31 
REMARK   11  A    between atoms: C_31  and  C_32 
ROOT
HETATM    1  O   UNK     0     151.887 187.296 155.563  0.00  0.00    -0.384 OA
HETATM    2  H   UNK     0     151.187 187.490 154.916  0.00  0.00     0.211 HD
ENDROOT
BRANCH   1   3
HETATM    3  C   UNK     0     152.385 188.557 156.067  0.00  0.00     0.089 C 
HETATM    4  C   UNK     0     153.852 188.754 155.602  0.00  0.00    -0.002 C 
HETATM    5  C   UNK     0     154.549 187.583 156.342  0.00  0.00     0.034 C 
HETATM    6  C   UNK     0     153.899 188.638 154.068  0.00  0.00     0.014 C 
HETATM    7  C   UNK     0     154.447 190.119 156.041  0.00  0.00     0.019 C 
HETATM    8  C   UNK     0     153.865 187.565 157.728  0.00  0.00     0.012 C 
HETATM    9  C   UNK     0     152.548 188.359 157.582  0.00  0.00     0.044 C 
HETATM   10  C   UNK     0     152.995 189.691 153.407  0.00  0.00     0.011 C 
HETATM   11  C   UNK     0     151.539 189.758 153.963  0.00  0.00     0.027 C 
HETATM   12  C   UNK     0     150.744 191.008 153.416  0.00  0.00    -0.023 C 
HETATM   13  C   UNK     0     151.469 189.616 155.491  0.00  0.00    -0.037 C 
HETATM   14  C   UNK     0     149.380 191.135 154.151  0.00  0.00     0.071 C 
HETATM   15  C   UNK     0     150.472 190.892 151.889  0.00  0.00     0.044 C 
HETATM   16  C   UNK     0     151.533 192.328 153.636  0.00  0.00     0.016 C 
HETATM   17  C   UNK     0     148.377 190.028 153.782  0.00  0.00     0.047 C 
HETATM   18  C   UNK     0     149.569 191.164 155.656  0.00  0.00     0.154 C 
HETATM   19  C   UNK     0     148.148 189.954 152.273  0.00  0.00     0.147 C 
HETATM   20  C   UNK     0     149.471 189.790 151.526  0.00  0.00     0.147 C 
HETATM   21  O   UNK     0     148.841 191.836 156.386  0.00  0.00    -0.293 OA
HETATM   22  C   UNK     0     150.604 190.295 156.259  0.00  0.00     0.057 C 
BRANCH   5  23
HETATM   23  C   UNK     0     156.069 187.645 156.434  0.00  0.00     0.084 C 
HETATM   24  C   UNK     0     156.649 186.221 156.436  0.00  0.00     0.049 C 
BRANCH  23  25
HETATM   25  O   UNK     0     156.567 188.309 155.264  0.00  0.00    -0.387 OA
HETATM   26  H   UNK     0     157.036 189.115 155.536  0.00  0.00     0.210 HD
ENDBRANCH  23  25
BRANCH  23  27
HETATM   27  C   UNK     0     156.550 188.436 157.681  0.00  0.00     0.152 C 
BRANCH  27  28
HETATM   28  O   UNK     0     157.412 189.502 157.270  0.00  0.00    -0.393 OA
HETATM   29  H   UNK     0     157.711 189.961 158.074  0.00  0.00     0.210 HD
ENDBRANCH  27  28
BRANCH  27  30
HETATM   30  C   UNK     0     157.298 187.581 158.722  0.00  0.00     0.037 C 
BRANCH  30  31
HETATM   31  C   UNK     0     158.597 188.258 159.198  0.00  0.00     0.040 C 
BRANCH  31  32
HETATM   32  C   UNK     0     159.870 187.410 158.997  0.00  0.00     0.051 C 
HETATM   33  C   UNK     0     160.140 187.237 157.498  0.00  0.00     0.045 C 
HETATM   34  C   UNK     0     161.096 188.020 159.680  0.00  0.00     0.045 C 
BRANCH  32  35
HETATM   35  O   UNK     0     159.640 186.113 159.553  0.00  0.00    -0.391 OA
HETATM   36  H   UNK     0     160.461 185.822 159.983  0.00  0.00     0.210 HD
ENDBRANCH  32  35
ENDBRANCH  31  32
ENDBRANCH  30  31
ENDBRANCH  27  30
ENDBRANCH  23  27
ENDBRANCH   5  23
BRANCH  19  37
HETATM   37  O   UNK     0     147.506 191.154 151.838  0.00  0.00    -0.393 OA
HETATM   38  H   UNK     0     147.527 191.162 150.866  0.00  0.00     0.210 HD
ENDBRANCH  19  37
BRANCH  20  39
HETATM   39  O   UNK     0     149.218 189.817 150.123  0.00  0.00    -0.393 OA
HETATM   40  H   UNK     0     149.217 190.749 149.844  0.00  0.00     0.210 HD
ENDBRANCH  20  39
ENDBRANCH   1   3
TORSDOF 11
ENDMDL
MODEL 5
REMARK VINA RESULT:      -8.4     14.396     17.742
REMARK  11 active torsions:
REMARK  status: ('A' for Active; 'I' for Inactive)
REMARK    1  A    between atoms: O_1  and  C_9 
REMARK    2  A    between atoms: O_2  and  C_19 
REMARK    3  A    between atoms: O_3  and  C_26 
REMARK    4  A    between atoms: O_4  and  C_27 
REMARK    5  A    between atoms: O_6  and  C_28 
REMARK    6  A    between atoms: O_7  and  C_32 
REMARK    7  A    between atoms: C_10  and  C_19 
REMARK    8  A    between atoms: C_19  and  C_27 
REMARK    9  A    between atoms: C_27  and  C_30 
REMARK   10  A    between atoms: C_30  and  C_31 
REMARK   11  A    between atoms: C_31  and  C_32 
ROOT
HETATM    1  O   UNK     0     165.765 174.367 161.745  0.00  0.00    -0.384 OA
HETATM    2  H   UNK     0     165.150 175.057 162.047  0.00  0.00     0.211 HD
ENDROOT
BRANCH   1   3
HETATM    3  C   UNK     0     165.497 173.169 162.509  0.00  0.00     0.089 C 
HETATM    4  C   UNK     0     165.811 171.923 161.641  0.00  0.00    -0.002 C 
HETATM    5  C   UNK     0     164.751 172.076 160.521  0.00  0.00     0.034 C 
HETATM    6  C   UNK     0     167.264 172.027 161.143  0.00  0.00     0.014 C 
HETATM    7  C   UNK     0     165.617 170.587 162.408  0.00  0.00     0.019 C 
HETATM    8  C   UNK     0     163.489 172.559 161.273  0.00  0.00     0.012 C 
HETATM    9  C   UNK     0     163.968 173.098 162.639  0.00  0.00     0.044 C 
HETATM   10  C   UNK     0     168.248 172.105 162.322  0.00  0.00     0.011 C 
HETATM   11  C   UNK     0     167.902 173.174 163.404  0.00  0.00     0.027 C 
HETATM   12  C   UNK     0     168.805 173.039 164.692  0.00  0.00    -0.023 C 
HETATM   13  C   UNK     0     166.401 173.249 163.721  0.00  0.00    -0.037 C 
HETATM   14  C   UNK     0     168.289 173.991 165.807  0.00  0.00     0.071 C 
HETATM   15  C   UNK     0     170.290 173.392 164.391  0.00  0.00     0.044 C 
HETATM   16  C   UNK     0     168.789 171.590 165.252  0.00  0.00     0.016 C 
HETATM   17  C   UNK     0     168.523 175.481 165.501  0.00  0.00     0.047 C 
HETATM   18  C   UNK     0     166.817 173.758 166.089  0.00  0.00     0.154 C 
HETATM   19  C   UNK     0     169.994 175.774 165.210  0.00  0.00     0.147 C 
HETATM   20  C   UNK     0     170.519 174.877 164.088  0.00  0.00     0.147 C 
HETATM   21  O   UNK     0     166.349 173.874 167.220  0.00  0.00    -0.293 OA
HETATM   22  C   UNK     0     165.914 173.466 164.953  0.00  0.00     0.057 C 
BRANCH   5  23
HETATM   23  C   UNK     0     164.490 170.848 159.658  0.00  0.00     0.084 C 
HETATM   24  C   UNK     0     163.787 171.266 158.355  0.00  0.00     0.049 C 
BRANCH  23  25
HETATM   25  O   UNK     0     165.752 170.271 159.298  0.00  0.00    -0.387 OA
HETATM   26  H   UNK     0     165.904 169.481 159.842  0.00  0.00     0.210 HD
ENDBRANCH  23  25
BRANCH  23  27
HETATM   27  C   UNK     0     163.661 169.769 160.407  0.00  0.00     0.152 C 
BRANCH  27  28
HETATM   28  O   UNK     0     164.312 168.500 160.294  0.00  0.00    -0.393 OA
HETATM   29  H   UNK     0     163.619 167.826 160.183  0.00  0.00     0.210 HD
ENDBRANCH  27  28
BRANCH  27  30
HETATM   30  C   UNK     0     162.214 169.618 159.899  0.00  0.00     0.037 C 
BRANCH  30  31
HETATM   31  C   UNK     0     161.182 170.021 160.969  0.00  0.00     0.040 C 
BRANCH  31  32
HETATM   32  C   UNK     0     161.104 169.063 162.176  0.00  0.00     0.051 C 
HETATM   33  C   UNK     0     161.842 169.681 163.369  0.00  0.00     0.045 C 
HETATM   34  C   UNK     0     159.664 168.730 162.570  0.00  0.00     0.045 C 
BRANCH  32  35
HETATM   35  O   UNK     0     161.772 167.848 161.829  0.00  0.00    -0.391 OA
HETATM   36  H   UNK     0     162.704 167.934 162.090  0.00  0.00     0.210 HD
ENDBRANCH  32  35
ENDBRANCH  31  32
ENDBRANCH  30  31
ENDBRANCH  27  30
ENDBRANCH  23  27
ENDBRANCH   5  23
BRANCH  19  37
HETATM   37  O   UNK     0     170.760 175.545 166.394  0.00  0.00    -0.393 OA
HETATM   38  H   UNK     0     171.438 174.881 166.182  0.00  0.00     0.210 HD
ENDBRANCH  19  37
BRANCH  20  39
HETATM   39  O   UNK     0     171.913 175.120 163.915  0.00  0.00    -0.393 OA
HETATM   40  H   UNK     0     172.112 175.983 164.315  0.00  0.00     0.210 HD
ENDBRANCH  20  39
ENDBRANCH   1   3
TORSDOF 11
ENDMDL
MODEL 6
REMARK VINA RESULT:      -8.3     13.151     14.940
REMARK  11 active torsions:
REMARK  status: ('A' for Active; 'I' for Inactive)
REMARK    1  A    between atoms: O_1  and  C_9 
REMARK    2  A    between atoms: O_2  and  C_19 
REMARK    3  A    between atoms: O_3  and  C_26 
REMARK    4  A    between atoms: O_4  and  C_27 
REMARK    5  A    between atoms: O_6  and  C_28 
REMARK    6  A    between atoms: O_7  and  C_32 
REMARK    7  A    between atoms: C_10  and  C_19 
REMARK    8  A    between atoms: C_19  and  C_27 
REMARK    9  A    between atoms: C_27  and  C_30 
REMARK   10  A    between atoms: C_30  and  C_31 
REMARK   11  A    between atoms: C_31  and  C_32 
ROOT
HETATM    1  O   UNK     0     166.873 178.369 166.586  0.00  0.00    -0.384 OA
HETATM    2  H   UNK     0     167.137 179.302 166.515  0.00  0.00     0.211 HD
ENDROOT
BRANCH   1   3
HETATM    3  C   UNK     0     168.077 177.572 166.657  0.00  0.00     0.089 C 
HETATM    4  C   UNK     0     168.308 177.116 168.121  0.00  0.00    -0.002 C 
HETATM    5  C   UNK     0     168.544 178.482 168.815  0.00  0.00     0.034 C 
HETATM    6  C   UNK     0     167.049 176.378 168.609  0.00  0.00     0.014 C 
HETATM    7  C   UNK     0     169.548 176.195 168.279  0.00  0.00     0.019 C 
HETATM    8  C   UNK     0     169.401 179.269 167.798  0.00  0.00     0.012 C 
HETATM    9  C   UNK     0     169.236 178.558 166.437  0.00  0.00     0.044 C 
HETATM   10  C   UNK     0     166.747 175.158 167.722  0.00  0.00     0.011 C 
HETATM   11  C   UNK     0     166.725 175.442 166.189  0.00  0.00     0.027 C 
HETATM   12  C   UNK     0     166.650 174.117 165.333  0.00  0.00    -0.023 C 
HETATM   13  C   UNK     0     167.842 176.395 165.735  0.00  0.00    -0.037 C 
HETATM   14  C   UNK     0     166.831 174.446 163.824  0.00  0.00     0.071 C 
HETATM   15  C   UNK     0     165.286 173.392 165.519  0.00  0.00     0.044 C 
HETATM   16  C   UNK     0     167.758 173.110 165.742  0.00  0.00     0.016 C 
HETATM   17  C   UNK     0     165.638 175.200 163.212  0.00  0.00     0.047 C 
HETATM   18  C   UNK     0     168.104 175.235 163.585  0.00  0.00     0.154 C 
HETATM   19  C   UNK     0     164.325 174.447 163.423  0.00  0.00     0.147 C 
HETATM   20  C   UNK     0     164.101 174.144 164.905  0.00  0.00     0.147 C 
HETATM   21  O   UNK     0     168.773 175.087 162.563  0.00  0.00    -0.293 OA
HETATM   22  C   UNK     0     168.498 176.265 164.571  0.00  0.00     0.057 C 
BRANCH   5  23
HETATM   23  C   UNK     0     169.167 178.441 170.205  0.00  0.00     0.084 C 
HETATM   24  C   UNK     0     168.422 179.409 171.139  0.00  0.00     0.049 C 
BRANCH  23  25
HETATM   25  O   UNK     0     169.000 177.120 170.737  0.00  0.00    -0.387 OA
HETATM   26  H   UNK     0     169.708 176.948 171.381  0.00  0.00     0.210 HD
ENDBRANCH  23  25
BRANCH  23  27
HETATM   27  C   UNK     0     170.686 178.764 170.178  0.00  0.00     0.152 C 
BRANCH  27  28
HETATM   28  O   UNK     0     171.421 177.659 170.716  0.00  0.00    -0.393 OA
HETATM   29  H   UNK     0     172.361 177.911 170.721  0.00  0.00     0.210 HD
ENDBRANCH  27  28
BRANCH  27  30
HETATM   30  C   UNK     0     171.077 180.033 170.959  0.00  0.00     0.037 C 
BRANCH  30  31
HETATM   31  C   UNK     0     172.493 179.929 171.557  0.00  0.00     0.040 C 
BRANCH  31  32
HETATM   32  C   UNK     0     172.616 180.453 173.003  0.00  0.00     0.051 C 
HETATM   33  C   UNK     0     171.993 181.850 173.097  0.00  0.00     0.045 C 
HETATM   34  C   UNK     0     171.961 179.520 174.023  0.00  0.00     0.045 C 
BRANCH  32  35
HETATM   35  O   UNK     0     174.005 180.570 173.321  0.00  0.00    -0.391 OA
HETATM   36  H   UNK     0     174.465 180.905 172.534  0.00  0.00     0.210 HD
ENDBRANCH  32  35
ENDBRANCH  31  32
ENDBRANCH  30  31
ENDBRANCH  27  30
ENDBRANCH  23  27
ENDBRANCH   5  23
BRANCH  19  37
HETATM   37  O   UNK     0     164.365 173.221 162.692  0.00  0.00    -0.393 OA
HETATM   38  H   UNK     0     164.718 172.537 163.286  0.00  0.00     0.210 HD
ENDBRANCH  19  37
BRANCH  20  39
HETATM   39  O   UNK     0     162.915 173.365 165.045  0.00  0.00    -0.393 OA
HETATM   40  H   UNK     0     162.587 173.168 164.151  0.00  0.00     0.210 HD
ENDBRANCH  20  39
ENDBRANCH   1   3
TORSDOF 11
ENDMDL
MODEL 7
REMARK VINA RESULT:      -8.2     11.906     16.796
REMARK  11 active torsions:
REMARK  status: ('A' for Active; 'I' for Inactive)
REMARK    1  A    between atoms: O_1  and  C_9 
REMARK    2  A    between atoms: O_2  and  C_19 
REMARK    3  A    between atoms: O_3  and  C_26 
REMARK    4  A    between atoms: O_4  and  C_27 
REMARK    5  A    between atoms: O_6  and  C_28 
REMARK    6  A    between atoms: O_7  and  C_32 
REMARK    7  A    between atoms: C_10  and  C_19 
REMARK    8  A    between atoms: C_19  and  C_27 
REMARK    9  A    between atoms: C_27  and  C_30 
REMARK   10  A    between atoms: C_30  and  C_31 
REMARK   11  A    between atoms: C_31  and  C_32 
ROOT
HETATM    1  O   UNK     0     168.433 178.301 169.718  0.00  0.00    -0.384 OA
HETATM    2  H   UNK     0     168.119 177.906 168.886  0.00  0.00     0.211 HD
ENDROOT
BRANCH   1   3
HETATM    3  C   UNK     0     168.126 179.713 169.680  0.00  0.00     0.089 C 
HETATM    4  C   UNK     0     166.770 179.965 170.388  0.00  0.00    -0.002 C 
HETATM    5  C   UNK     0     165.806 179.195 169.448  0.00  0.00     0.034 C 
HETATM    6  C   UNK     0     166.846 179.386 171.812  0.00  0.00     0.014 C 
HETATM    7  C   UNK     0     166.392 181.469 170.455  0.00  0.00     0.019 C 
HETATM    8  C   UNK     0     166.343 179.511 168.033  0.00  0.00     0.012 C 
HETATM    9  C   UNK     0     167.789 180.022 168.213  0.00  0.00     0.044 C 
HETATM   10  C   UNK     0     167.983 180.040 172.613  0.00  0.00     0.011 C 
HETATM   11  C   UNK     0     169.369 180.067 171.897  0.00  0.00     0.027 C 
HETATM   12  C   UNK     0     170.424 180.957 172.663  0.00  0.00    -0.023 C 
HETATM   13  C   UNK     0     169.268 180.398 170.400  0.00  0.00    -0.037 C 
HETATM   14  C   UNK     0     171.714 181.108 171.809  0.00  0.00     0.071 C 
HETATM   15  C   UNK     0     170.812 180.333 174.035  0.00  0.00     0.044 C 
HETATM   16  C   UNK     0     169.869 182.378 172.953  0.00  0.00     0.016 C 
HETATM   17  C   UNK     0     172.530 179.809 171.692  0.00  0.00     0.047 C 
HETATM   18  C   UNK     0     171.394 181.631 170.421  0.00  0.00     0.154 C 
HETATM   19  C   UNK     0     172.883 179.238 173.064  0.00  0.00     0.147 C 
HETATM   20  C   UNK     0     171.627 179.041 173.914  0.00  0.00     0.147 C 
HETATM   21  O   UNK     0     172.159 182.384 169.822  0.00  0.00    -0.293 OA
HETATM   22  C   UNK     0     170.167 181.150 169.747  0.00  0.00     0.057 C 
BRANCH   5  23
HETATM   23  C   UNK     0     164.321 179.500 169.598  0.00  0.00     0.084 C 
HETATM   24  C   UNK     0     164.005 180.872 168.977  0.00  0.00     0.049 C 
BRANCH  23  25
HETATM   25  O   UNK     0     163.580 178.517 168.863  0.00  0.00    -0.387 OA
HETATM   26  H   UNK     0     162.764 178.923 168.528  0.00  0.00     0.210 HD
ENDBRANCH  23  25
BRANCH  23  27
HETATM   27  C   UNK     0     163.857 179.449 171.079  0.00  0.00     0.152 C 
BRANCH  27  28
HETATM   28  O   UNK     0     163.096 178.258 171.302  0.00  0.00    -0.393 OA
HETATM   29  H   UNK     0     163.715 177.568 171.598  0.00  0.00     0.210 HD
ENDBRANCH  27  28
BRANCH  27  30
HETATM   30  C   UNK     0     163.007 180.657 171.518  0.00  0.00     0.037 C 
BRANCH  30  31
HETATM   31  C   UNK     0     163.231 181.012 173.000  0.00  0.00     0.040 C 
BRANCH  31  32
HETATM   32  C   UNK     0     162.265 180.312 173.978  0.00  0.00     0.051 C 
HETATM   33  C   UNK     0     162.997 179.173 174.696  0.00  0.00     0.045 C 
HETATM   34  C   UNK     0     161.669 181.277 175.006  0.00  0.00     0.045 C 
BRANCH  32  35
HETATM   35  O   UNK     0     161.196 179.739 173.222  0.00  0.00    -0.391 OA
HETATM   36  H   UNK     0     161.436 178.820 173.015  0.00  0.00     0.210 HD
ENDBRANCH  32  35
ENDBRANCH  31  32
ENDBRANCH  30  31
ENDBRANCH  27  30
ENDBRANCH  23  27
ENDBRANCH   5  23
BRANCH  19  37
HETATM   37  O   UNK     0     173.768 180.138 173.733  0.00  0.00    -0.393 OA
HETATM   38  H   UNK     0     174.671 179.935 173.437  0.00  0.00     0.210 HD
ENDBRANCH  19  37
BRANCH  20  39
HETATM   39  O   UNK     0     172.010 178.595 175.213  0.00  0.00    -0.393 OA
HETATM   40  H   UNK     0     171.667 179.238 175.856  0.00  0.00     0.210 HD
ENDBRANCH  20  39
ENDBRANCH   1   3
TORSDOF 11
ENDMDL
MODEL 8
REMARK VINA RESULT:      -8.2     15.784     20.624
REMARK  11 active torsions:
REMARK  status: ('A' for Active; 'I' for Inactive)
REMARK    1  A    between atoms: O_1  and  C_9 
REMARK    2  A    between atoms: O_2  and  C_19 
REMARK    3  A    between atoms: O_3  and  C_26 
REMARK    4  A    between atoms: O_4  and  C_27 
REMARK    5  A    between atoms: O_6  and  C_28 
REMARK    6  A    between atoms: O_7  and  C_32 
REMARK    7  A    between atoms: C_10  and  C_19 
REMARK    8  A    between atoms: C_19  and  C_27 
REMARK    9  A    between atoms: C_27  and  C_30 
REMARK   10  A    between atoms: C_30  and  C_31 
REMARK   11  A    between atoms: C_31  and  C_32 
ROOT
HETATM    1  O   UNK     0     181.154 185.163 160.981  0.00  0.00    -0.384 OA
HETATM    2  H   UNK     0     180.549 184.735 160.350  0.00  0.00     0.211 HD
ENDROOT
BRANCH   1   3
HETATM    3  C   UNK     0     180.975 186.593 160.865  0.00  0.00     0.089 C 
HETATM    4  C   UNK     0     181.893 187.138 159.741  0.00  0.00    -0.002 C 
HETATM    5  C   UNK     0     183.292 186.833 160.338  0.00  0.00     0.034 C 
HETATM    6  C   UNK     0     181.589 186.369 158.443  0.00  0.00     0.014 C 
HETATM    7  C   UNK     0     181.715 188.661 159.499  0.00  0.00     0.019 C 
HETATM    8  C   UNK     0     183.132 187.169 161.838  0.00  0.00     0.012 C 
HETATM    9  C   UNK     0     181.615 187.192 162.127  0.00  0.00     0.044 C 
HETATM   10  C   UNK     0     180.115 186.532 158.038  0.00  0.00     0.011 C 
HETATM   11  C   UNK     0     179.080 186.242 159.170  0.00  0.00     0.027 C 
HETATM   12  C   UNK     0     177.612 186.657 158.763  0.00  0.00    -0.023 C 
HETATM   13  C   UNK     0     179.510 186.795 160.537  0.00  0.00    -0.037 C 
HETATM   14  C   UNK     0     176.664 186.533 159.989  0.00  0.00     0.071 C 
HETATM   15  C   UNK     0     177.059 185.760 157.619  0.00  0.00     0.044 C 
HETATM   16  C   UNK     0     177.553 188.124 158.256  0.00  0.00     0.016 C 
HETATM   17  C   UNK     0     176.397 185.078 160.415  0.00  0.00     0.047 C 
HETATM   18  C   UNK     0     177.195 187.317 161.174  0.00  0.00     0.154 C 
HETATM   19  C   UNK     0     175.858 184.240 159.257  0.00  0.00     0.147 C 
HETATM   20  C   UNK     0     176.792 184.313 158.048  0.00  0.00     0.147 C 
HETATM   21  O   UNK     0     176.442 187.882 161.965  0.00  0.00    -0.293 OA
HETATM   22  C   UNK     0     178.654 187.327 161.423  0.00  0.00     0.057 C 
BRANCH   5  23
HETATM   23  C   UNK     0     184.476 187.546 159.696  0.00  0.00     0.084 C 
HETATM   24  C   UNK     0     185.781 187.109 160.381  0.00  0.00     0.049 C 
BRANCH  23  25
HETATM   25  O   UNK     0     184.557 187.143 158.323  0.00  0.00    -0.387 OA
HETATM   26  H   UNK     0     185.484 187.195 158.034  0.00  0.00     0.210 HD
ENDBRANCH  23  25
BRANCH  23  27
HETATM   27  C   UNK     0     184.324 189.091 159.738  0.00  0.00     0.152 C 
BRANCH  27  28
HETATM   28  O   UNK     0     184.832 189.656 158.525  0.00  0.00    -0.393 OA
HETATM   29  H   UNK     0     184.102 190.144 158.104  0.00  0.00     0.210 HD
ENDBRANCH  27  28
BRANCH  27  30
HETATM   30  C   UNK     0     185.042 189.765 160.924  0.00  0.00     0.037 C 
BRANCH  30  31
HETATM   31  C   UNK     0     185.464 191.210 160.598  0.00  0.00     0.040 C 
BRANCH  31  32
HETATM   32  C   UNK     0     186.918 191.553 160.982  0.00  0.00     0.051 C 
HETATM   33  C   UNK     0     187.765 190.276 160.978  0.00  0.00     0.045 C 
HETATM   34  C   UNK     0     187.541 192.594 160.049  0.00  0.00     0.045 C 
BRANCH  32  35
HETATM   35  O   UNK     0     186.921 192.077 162.311  0.00  0.00    -0.391 OA
HETATM   36  H   UNK     0     186.616 192.999 162.270  0.00  0.00     0.210 HD
ENDBRANCH  32  35
ENDBRANCH  31  32
ENDBRANCH  30  31
ENDBRANCH  27  30
ENDBRANCH  23  27
ENDBRANCH   5  23
BRANCH  19  37
HETATM   37  O   UNK     0     174.568 184.730 158.885  0.00  0.00    -0.393 OA
HETATM   38  H   UNK     0     174.698 185.414 158.207  0.00  0.00     0.210 HD
ENDBRANCH  19  37
BRANCH  20  39
HETATM   39  O   UNK     0     176.206 183.594 156.965  0.00  0.00    -0.393 OA
HETATM   40  H   UNK     0     176.861 183.560 156.248  0.00  0.00     0.210 HD
ENDBRANCH  20  39
ENDBRANCH   1   3
TORSDOF 11
ENDMDL
MODEL 9
REMARK VINA RESULT:      -8.2     14.088     17.550
REMARK  11 active torsions:
REMARK  status: ('A' for Active; 'I' for Inactive)
REMARK    1  A    between atoms: O_1  and  C_9 
REMARK    2  A    between atoms: O_2  and  C_19 
REMARK    3  A    between atoms: O_3  and  C_26 
REMARK    4  A    between atoms: O_4  and  C_27 
REMARK    5  A    between atoms: O_6  and  C_28 
REMARK    6  A    between atoms: O_7  and  C_32 
REMARK    7  A    between atoms: C_10  and  C_19 
REMARK    8  A    between atoms: C_19  and  C_27 
REMARK    9  A    between atoms: C_27  and  C_30 
REMARK   10  A    between atoms: C_30  and  C_31 
REMARK   11  A    between atoms: C_31  and  C_32 
ROOT
HETATM    1  O   UNK     0     165.635 174.641 162.113  0.00  0.00    -0.384 OA
HETATM    2  H   UNK     0     165.311 175.455 162.538  0.00  0.00     0.211 HD
ENDROOT
BRANCH   1   3
HETATM    3  C   UNK     0     165.333 173.533 162.992  0.00  0.00     0.089 C 
HETATM    4  C   UNK     0     165.516 172.200 162.220  0.00  0.00    -0.002 C 
HETATM    5  C   UNK     0     164.407 172.333 161.146  0.00  0.00     0.034 C 
HETATM    6  C   UNK     0     166.942 172.161 161.642  0.00  0.00     0.014 C 
HETATM    7  C   UNK     0     165.279 170.949 163.109  0.00  0.00     0.019 C 
HETATM    8  C   UNK     0     163.223 172.963 161.916  0.00  0.00     0.012 C 
HETATM    9  C   UNK     0     163.812 173.579 163.204  0.00  0.00     0.044 C 
HETATM   10  C   UNK     0     167.994 172.268 162.758  0.00  0.00     0.011 C 
HETATM   11  C   UNK     0     167.780 173.445 163.760  0.00  0.00     0.027 C 
HETATM   12  C   UNK     0     168.744 173.355 165.007  0.00  0.00    -0.023 C 
HETATM   13  C   UNK     0     166.307 173.650 164.145  0.00  0.00    -0.037 C 
HETATM   14  C   UNK     0     168.354 174.431 166.060  0.00  0.00     0.071 C 
HETATM   15  C   UNK     0     170.229 173.578 164.602  0.00  0.00     0.044 C 
HETATM   16  C   UNK     0     168.665 171.963 165.690  0.00  0.00     0.016 C 
HETATM   17  C   UNK     0     168.666 175.870 165.614  0.00  0.00     0.047 C 
HETATM   18  C   UNK     0     166.888 174.325 166.435  0.00  0.00     0.154 C 
HETATM   19  C   UNK     0     170.135 176.035 165.225  0.00  0.00     0.147 C 
HETATM   20  C   UNK     0     170.536 175.013 164.160  0.00  0.00     0.147 C 
HETATM   21  O   UNK     0     166.493 174.567 167.574  0.00  0.00    -0.293 OA
HETATM   22  C   UNK     0     165.905 174.003 165.376  0.00  0.00     0.057 C 
BRANCH   5  23
HETATM   23  C   UNK     0     164.018 171.058 160.407  0.00  0.00     0.084 C 
HETATM   24  C   UNK     0     163.410 170.048 161.395  0.00  0.00     0.049 C 
BRANCH  23  25
HETATM   25  O   UNK     0     163.004 171.382 159.447  0.00  0.00    -0.387 OA
HETATM   26  H   UNK     0     162.367 171.991 159.856  0.00  0.00     0.210 HD
ENDBRANCH  23  25
BRANCH  23  27
HETATM   27  C   UNK     0     165.219 170.429 159.649  0.00  0.00     0.152 C 
BRANCH  27  28
HETATM   28  O   UNK     0     165.013 170.552 158.238  0.00  0.00    -0.393 OA
HETATM   29  H   UNK     0     165.833 170.909 157.854  0.00  0.00     0.210 HD
ENDBRANCH  27  28
BRANCH  27  30
HETATM   30  C   UNK     0     165.466 168.944 159.976  0.00  0.00     0.037 C 
BRANCH  30  31
HETATM   31  C   UNK     0     166.954 168.652 160.249  0.00  0.00     0.040 C 
BRANCH  31  32
HETATM   32  C   UNK     0     167.218 167.805 161.511  0.00  0.00     0.051 C 
HETATM   33  C   UNK     0     168.134 168.579 162.465  0.00  0.00     0.045 C 
HETATM   34  C   UNK     0     165.929 167.409 162.233  0.00  0.00     0.045 C 
BRANCH  32  35
HETATM   35  O   UNK     0     167.901 166.613 161.117  0.00  0.00    -0.391 OA
HETATM   36  H   UNK     0     168.682 166.873 160.601  0.00  0.00     0.210 HD
ENDBRANCH  32  35
ENDBRANCH  31  32
ENDBRANCH  30  31
ENDBRANCH  27  30
ENDBRANCH  23  27
ENDBRANCH   5  23
BRANCH  19  37
HETATM   37  O   UNK     0     170.950 175.852 166.384  0.00  0.00    -0.393 OA
HETATM   38  H   UNK     0     170.515 175.190 166.947  0.00  0.00     0.210 HD
ENDBRANCH  19  37
BRANCH  20  39
HETATM   39  O   UNK     0     171.931 175.143 163.895  0.00  0.00    -0.393 OA
HETATM   40  H   UNK     0     172.398 174.516 164.473  0.00  0.00     0.210 HD
ENDBRANCH  20  39
ENDBRANCH   1   3
TORSDOF 11
ENDMDL
