MODEL 1
REMARK VINA RESULT:      -5.9      0.000      0.000
REMARK  5 active torsions:
REMARK  status: ('A' for Active; 'I' for Inactive)
REMARK    1  A    between atoms: C_3  and  O_1 
REMARK    2  A    between atoms: C_4  and  O_14 
REMARK    3  A    between atoms: C_7  and  C_8 
REMARK    4  A    between atoms: C_9  and  C_10 
REMARK    5  A    between atoms: C_10  and  O_12 
ROOT
ATOM      1  C   LIG     1     170.656 173.876 170.051  0.00  0.00     0.162 A 
ATOM      2  C   LIG     1     171.844 174.183 170.715  0.00  0.00     0.158 A 
ATOM      3  C   LIG     1     173.071 173.893 170.119  0.00  0.00     0.050 A 
ATOM      4  C   LIG     1     173.111 173.296 168.859  0.00  0.00     0.012 A 
ATOM      5  C   LIG     1     171.924 172.988 168.196  0.00  0.00    -0.021 A 
ATOM      6  C   LIG     1     170.696 173.278 168.791  0.00  0.00     0.057 A 
ENDROOT
BRANCH   5   7
ATOM      7  C   LIG     1     171.965 172.366 166.882  0.00  0.00     0.015 C 
ATOM      8  C   LIG     1     173.083 172.152 166.152  0.00  0.00     0.092 C 
BRANCH   8   9
ATOM      9  C   LIG     1     172.992 171.500 164.831  0.00  0.00     0.330 C 
ATOM     10  O   LIG     1     171.983 171.051 164.312  0.00  0.00    -0.246 OA
BRANCH   9  11
ATOM     11  O   LIG     1     174.224 171.476 164.273  0.00  0.00    -0.478 OA
ATOM     12  H   LIG     1     174.547 170.560 164.135  0.00  0.00     0.295 HD
ENDBRANCH   9  11
ENDBRANCH   8   9
ENDBRANCH   5   7
BRANCH   1  13
ATOM     13  O   LIG     1     169.451 174.153 170.624  0.00  0.00    -0.491 OA
ATOM     14  C   LIG     1     168.369 173.278 170.311  0.00  0.00     0.277 C 
ENDBRANCH   1  13
BRANCH   2  15
ATOM     15  O   LIG     1     171.818 174.766 171.946  0.00  0.00    -0.503 OA
ATOM     16  H   LIG     1     171.620 174.086 172.614  0.00  0.00     0.292 HD
ENDBRANCH   2  15
TORSDOF 5
ENDMDL
MODEL 2
REMARK VINA RESULT:      -5.6     15.975     17.305
REMARK  5 active torsions:
REMARK  status: ('A' for Active; 'I' for Inactive)
REMARK    1  A    between atoms: C_3  and  O_1 
REMARK    2  A    between atoms: C_4  and  O_14 
REMARK    3  A    between atoms: C_7  and  C_8 
REMARK    4  A    between atoms: C_9  and  C_10 
REMARK    5  A    between atoms: C_10  and  O_12 
ROOT
ATOM      1  C   LIG     1     158.604 168.092 176.571  0.00  0.00     0.162 A 
ATOM      2  C   LIG     1     157.853 168.721 175.578  0.00  0.00     0.158 A 
ATOM      3  C   LIG     1     157.584 170.087 175.667  0.00  0.00     0.050 A 
ATOM      4  C   LIG     1     158.067 170.824 176.748  0.00  0.00     0.012 A 
ATOM      5  C   LIG     1     158.818 170.195 177.740  0.00  0.00    -0.021 A 
ATOM      6  C   LIG     1     159.088 168.829 177.652  0.00  0.00     0.057 A 
ENDROOT
BRANCH   5   7
ATOM      7  C   LIG     1     159.323 170.964 178.867  0.00  0.00     0.015 C 
ATOM      8  C   LIG     1     158.833 172.152 179.285  0.00  0.00     0.092 C 
BRANCH   8   9
ATOM      9  C   LIG     1     159.429 172.829 180.454  0.00  0.00     0.330 C 
ATOM     10  O   LIG     1     159.394 172.445 181.611  0.00  0.00    -0.246 OA
BRANCH   9  11
ATOM     11  O   LIG     1     160.036 173.965 180.034  0.00  0.00    -0.478 OA
ATOM     12  H   LIG     1     160.411 174.478 180.782  0.00  0.00     0.295 HD
ENDBRANCH   9  11
ENDBRANCH   8   9
ENDBRANCH   5   7
BRANCH   1  13
ATOM     13  O   LIG     1     158.872 166.758 176.495  0.00  0.00    -0.491 OA
ATOM     14  C   LIG     1     160.242 166.379 176.379  0.00  0.00     0.277 C 
ENDBRANCH   1  13
BRANCH   2  15
ATOM     15  O   LIG     1     157.374 168.012 174.518  0.00  0.00    -0.503 OA
ATOM     16  H   LIG     1     156.666 168.523 174.088  0.00  0.00     0.292 HD
ENDBRANCH   2  15
TORSDOF 5
ENDMDL
MODEL 3
REMARK VINA RESULT:      -5.6      2.326      3.196
REMARK  5 active torsions:
REMARK  status: ('A' for Active; 'I' for Inactive)
REMARK    1  A    between atoms: C_3  and  O_1 
REMARK    2  A    between atoms: C_4  and  O_14 
REMARK    3  A    between atoms: C_7  and  C_8 
REMARK    4  A    between atoms: C_9  and  C_10 
REMARK    5  A    between atoms: C_10  and  O_12 
ROOT
ATOM      1  C   LIG     1     168.712 173.359 168.398  0.00  0.00     0.162 A 
ATOM      2  C   LIG     1     168.157 174.307 167.537  0.00  0.00     0.158 A 
ATOM      3  C   LIG     1     168.866 174.724 166.411  0.00  0.00     0.050 A 
ATOM      4  C   LIG     1     170.128 174.194 166.144  0.00  0.00     0.012 A 
ATOM      5  C   LIG     1     170.682 173.247 167.004  0.00  0.00    -0.021 A 
ATOM      6  C   LIG     1     169.975 172.829 168.131  0.00  0.00     0.057 A 
ENDROOT
BRANCH   5   7
ATOM      7  C   LIG     1     171.998 172.694 166.726  0.00  0.00     0.015 C 
ATOM      8  C   LIG     1     172.436 172.290 165.512  0.00  0.00     0.092 C 
BRANCH   8   9
ATOM      9  C   LIG     1     173.803 171.753 165.359  0.00  0.00     0.330 C 
ATOM     10  O   LIG     1     174.597 171.526 166.257  0.00  0.00    -0.246 OA
BRANCH   9  11
ATOM     11  O   LIG     1     174.043 171.548 164.043  0.00  0.00    -0.478 OA
ATOM     12  H   LIG     1     174.515 170.702 163.884  0.00  0.00     0.295 HD
ENDBRANCH   9  11
ENDBRANCH   8   9
ENDBRANCH   5   7
BRANCH   1  13
ATOM     13  O   LIG     1     168.030 172.943 169.502  0.00  0.00    -0.491 OA
ATOM     14  C   LIG     1     168.553 173.334 170.770  0.00  0.00     0.277 C 
ENDBRANCH   1  13
BRANCH   2  15
ATOM     15  O   LIG     1     166.926 174.832 167.787  0.00  0.00    -0.503 OA
ATOM     16  H   LIG     1     167.008 175.522 168.469  0.00  0.00     0.292 HD
ENDBRANCH   2  15
TORSDOF 5
ENDMDL
MODEL 4
REMARK VINA RESULT:      -5.5      1.467      5.771
REMARK  5 active torsions:
REMARK  status: ('A' for Active; 'I' for Inactive)
REMARK    1  A    between atoms: C_3  and  O_1 
REMARK    2  A    between atoms: C_4  and  O_14 
REMARK    3  A    between atoms: C_7  and  C_8 
REMARK    4  A    between atoms: C_9  and  C_10 
REMARK    5  A    between atoms: C_10  and  O_12 
ROOT
ATOM      1  C   LIG     1     172.167 172.504 166.300  0.00  0.00     0.162 A 
ATOM      2  C   LIG     1     173.504 172.129 166.434  0.00  0.00     0.158 A 
ATOM      3  C   LIG     1     174.151 172.278 167.661  0.00  0.00     0.050 A 
ATOM      4  C   LIG     1     173.460 172.802 168.754  0.00  0.00     0.012 A 
ATOM      5  C   LIG     1     172.124 173.176 168.620  0.00  0.00    -0.021 A 
ATOM      6  C   LIG     1     171.477 173.027 167.394  0.00  0.00     0.057 A 
ENDROOT
BRANCH   5   7
ATOM      7  C   LIG     1     171.404 173.720 169.761  0.00  0.00     0.015 C 
ATOM      8  C   LIG     1     171.664 174.906 170.356  0.00  0.00     0.092 C 
BRANCH   8   9
ATOM      9  C   LIG     1     170.851 175.352 171.505  0.00  0.00     0.330 C 
ATOM     10  O   LIG     1     170.186 174.642 172.242  0.00  0.00    -0.246 OA
BRANCH   9  11
ATOM     11  O   LIG     1     170.959 176.696 171.617  0.00  0.00    -0.478 OA
ATOM     12  H   LIG     1     170.114 177.151 171.413  0.00  0.00     0.295 HD
ENDBRANCH   9  11
ENDBRANCH   8   9
ENDBRANCH   5   7
BRANCH   1  13
ATOM     13  O   LIG     1     171.525 172.364 165.107  0.00  0.00    -0.491 OA
ATOM     14  C   LIG     1     170.862 171.123 164.870  0.00  0.00     0.277 C 
ENDBRANCH   1  13
BRANCH   2  15
ATOM     15  O   LIG     1     174.189 171.618 165.373  0.00  0.00    -0.503 OA
ATOM     16  H   LIG     1     175.131 171.845 165.465  0.00  0.00     0.292 HD
ENDBRANCH   2  15
TORSDOF 5
ENDMDL
MODEL 5
REMARK VINA RESULT:      -5.5      2.345      5.448
REMARK  5 active torsions:
REMARK  status: ('A' for Active; 'I' for Inactive)
REMARK    1  A    between atoms: C_3  and  O_1 
REMARK    2  A    between atoms: C_4  and  O_14 
REMARK    3  A    between atoms: C_7  and  C_8 
REMARK    4  A    between atoms: C_9  and  C_10 
REMARK    5  A    between atoms: C_10  and  O_12 
ROOT
ATOM      1  C   LIG     1     172.794 172.884 166.408  0.00  0.00     0.162 A 
ATOM      2  C   LIG     1     173.369 172.651 167.658  0.00  0.00     0.158 A 
ATOM      3  C   LIG     1     172.613 172.827 168.816  0.00  0.00     0.050 A 
ATOM      4  C   LIG     1     171.282 173.235 168.726  0.00  0.00     0.012 A 
ATOM      5  C   LIG     1     170.708 173.468 167.478  0.00  0.00    -0.021 A 
ATOM      6  C   LIG     1     171.463 173.292 166.318  0.00  0.00     0.057 A 
ENDROOT
BRANCH   5   7
ATOM      7  C   LIG     1     169.320 173.892 167.383  0.00  0.00     0.015 C 
ATOM      8  C   LIG     1     168.315 173.465 168.181  0.00  0.00     0.092 C 
BRANCH   8   9
ATOM      9  C   LIG     1     166.946 173.982 167.989  0.00  0.00     0.330 C 
ATOM     10  O   LIG     1     166.334 174.714 168.750  0.00  0.00    -0.246 OA
BRANCH   9  11
ATOM     11  O   LIG     1     166.465 173.511 166.815  0.00  0.00    -0.478 OA
ATOM     12  H   LIG     1     165.522 173.746 166.683  0.00  0.00     0.295 HD
ENDBRANCH   9  11
ENDBRANCH   8   9
ENDBRANCH   5   7
BRANCH   1  13
ATOM     13  O   LIG     1     173.522 172.717 165.269  0.00  0.00    -0.491 OA
ATOM     14  C   LIG     1     173.474 171.432 164.652  0.00  0.00     0.277 C 
ENDBRANCH   1  13
BRANCH   2  15
ATOM     15  O   LIG     1     174.668 172.254 167.759  0.00  0.00    -0.503 OA
ATOM     16  H   LIG     1     174.916 172.217 168.699  0.00  0.00     0.292 HD
ENDBRANCH   2  15
TORSDOF 5
ENDMDL
MODEL 6
REMARK VINA RESULT:      -5.5     16.754     18.571
REMARK  5 active torsions:
REMARK  status: ('A' for Active; 'I' for Inactive)
REMARK    1  A    between atoms: C_3  and  O_1 
REMARK    2  A    between atoms: C_4  and  O_14 
REMARK    3  A    between atoms: C_7  and  C_8 
REMARK    4  A    between atoms: C_9  and  C_10 
REMARK    5  A    between atoms: C_10  and  O_12 
ROOT
ATOM      1  C   LIG     1     154.993 174.748 163.615  0.00  0.00     0.162 A 
ATOM      2  C   LIG     1     155.575 175.085 164.838  0.00  0.00     0.158 A 
ATOM      3  C   LIG     1     155.899 176.413 165.113  0.00  0.00     0.050 A 
ATOM      4  C   LIG     1     155.641 177.405 164.166  0.00  0.00     0.012 A 
ATOM      5  C   LIG     1     155.061 177.068 162.945  0.00  0.00    -0.021 A 
ATOM      6  C   LIG     1     154.736 175.740 162.668  0.00  0.00     0.057 A 
ENDROOT
BRANCH   5   7
ATOM      7  C   LIG     1     154.791 178.101 161.958  0.00  0.00     0.015 C 
ATOM      8  C   LIG     1     154.733 179.428 162.211  0.00  0.00     0.092 C 
BRANCH   8   9
ATOM      9  C   LIG     1     154.460 180.380 161.116  0.00  0.00     0.330 C 
ATOM     10  O   LIG     1     153.521 180.340 160.338  0.00  0.00    -0.246 OA
BRANCH   9  11
ATOM     11  O   LIG     1     155.431 181.323 161.108  0.00  0.00    -0.478 OA
ATOM     12  H   LIG     1     155.113 182.174 160.739  0.00  0.00     0.295 HD
ENDBRANCH   9  11
ENDBRANCH   8   9
ENDBRANCH   5   7
BRANCH   1  13
ATOM     13  O   LIG     1     154.673 173.453 163.335  0.00  0.00    -0.491 OA
ATOM     14  C   LIG     1     153.341 173.197 162.894  0.00  0.00     0.277 C 
ENDBRANCH   1  13
BRANCH   2  15
ATOM     15  O   LIG     1     155.832 174.125 165.770  0.00  0.00    -0.503 OA
ATOM     16  H   LIG     1     155.605 173.255 165.400  0.00  0.00     0.292 HD
ENDBRANCH   2  15
TORSDOF 5
ENDMDL
MODEL 7
REMARK VINA RESULT:      -5.4      1.779      2.240
REMARK  5 active torsions:
REMARK  status: ('A' for Active; 'I' for Inactive)
REMARK    1  A    between atoms: C_3  and  O_1 
REMARK    2  A    between atoms: C_4  and  O_14 
REMARK    3  A    between atoms: C_7  and  C_8 
REMARK    4  A    between atoms: C_9  and  C_10 
REMARK    5  A    between atoms: C_10  and  O_12 
ROOT
ATOM      1  C   LIG     1     170.048 174.212 171.338  0.00  0.00     0.162 A 
ATOM      2  C   LIG     1     170.539 175.518 171.370  0.00  0.00     0.158 A 
ATOM      3  C   LIG     1     171.597 175.885 170.540  0.00  0.00     0.050 A 
ATOM      4  C   LIG     1     172.166 174.948 169.678  0.00  0.00     0.012 A 
ATOM      5  C   LIG     1     171.677 173.643 169.647  0.00  0.00    -0.021 A 
ATOM      6  C   LIG     1     170.618 173.274 170.476  0.00  0.00     0.057 A 
ENDROOT
BRANCH   5   7
ATOM      7  C   LIG     1     172.269 172.666 168.747  0.00  0.00     0.015 C 
ATOM      8  C   LIG     1     173.448 172.810 168.102  0.00  0.00     0.092 C 
BRANCH   8   9
ATOM      9  C   LIG     1     173.947 171.736 167.220  0.00  0.00     0.330 C 
ATOM     10  O   LIG     1     174.190 171.831 166.029  0.00  0.00    -0.246 OA
BRANCH   9  11
ATOM     11  O   LIG     1     174.096 170.608 167.953  0.00  0.00    -0.478 OA
ATOM     12  H   LIG     1     173.288 170.394 168.466  0.00  0.00     0.295 HD
ENDBRANCH   9  11
ENDBRANCH   8   9
ENDBRANCH   5   7
BRANCH   1  13
ATOM     13  O   LIG     1     169.015 173.840 172.145  0.00  0.00    -0.491 OA
ATOM     14  C   LIG     1     167.772 173.546 171.511  0.00  0.00     0.277 C 
ENDBRANCH   1  13
BRANCH   2  15
ATOM     15  O   LIG     1     169.992 176.442 172.209  0.00  0.00    -0.503 OA
ATOM     16  H   LIG     1     169.803 176.020 173.065  0.00  0.00     0.292 HD
ENDBRANCH   2  15
TORSDOF 5
ENDMDL
MODEL 8
REMARK VINA RESULT:      -5.4      1.603      2.246
REMARK  5 active torsions:
REMARK  status: ('A' for Active; 'I' for Inactive)
REMARK    1  A    between atoms: C_3  and  O_1 
REMARK    2  A    between atoms: C_4  and  O_14 
REMARK    3  A    between atoms: C_7  and  C_8 
REMARK    4  A    between atoms: C_9  and  C_10 
REMARK    5  A    between atoms: C_10  and  O_12 
ROOT
ATOM      1  C   LIG     1     168.901 172.973 168.771  0.00  0.00     0.162 A 
ATOM      2  C   LIG     1     169.210 173.242 170.105  0.00  0.00     0.158 A 
ATOM      3  C   LIG     1     170.542 173.352 170.503  0.00  0.00     0.050 A 
ATOM      4  C   LIG     1     171.565 173.194 169.567  0.00  0.00     0.012 A 
ATOM      5  C   LIG     1     171.256 172.926 168.235  0.00  0.00    -0.021 A 
ATOM      6  C   LIG     1     169.924 172.815 167.836  0.00  0.00     0.057 A 
ENDROOT
BRANCH   5   7
ATOM      7  C   LIG     1     172.322 172.762 167.260  0.00  0.00     0.015 C 
ATOM      8  C   LIG     1     172.154 172.384 165.973  0.00  0.00     0.092 C 
BRANCH   8   9
ATOM      9  C   LIG     1     173.321 172.264 165.077  0.00  0.00     0.330 C 
ATOM     10  O   LIG     1     173.793 171.228 164.636  0.00  0.00    -0.246 OA
BRANCH   9  11
ATOM     11  O   LIG     1     173.797 173.503 164.815  0.00  0.00    -0.478 OA
ATOM     12  H   LIG     1     173.088 174.180 164.834  0.00  0.00     0.295 HD
ENDBRANCH   9  11
ENDBRANCH   8   9
ENDBRANCH   5   7
BRANCH   1  13
ATOM     13  O   LIG     1     167.603 172.862 168.371  0.00  0.00    -0.491 OA
ATOM     14  C   LIG     1     167.029 173.991 167.715  0.00  0.00     0.277 C 
ENDBRANCH   1  13
BRANCH   2  15
ATOM     15  O   LIG     1     168.220 173.397 171.028  0.00  0.00    -0.503 OA
ATOM     16  H   LIG     1     168.054 172.541 171.461  0.00  0.00     0.292 HD
ENDBRANCH   2  15
TORSDOF 5
ENDMDL
MODEL 9
REMARK VINA RESULT:      -5.4      2.016      6.182
REMARK  5 active torsions:
REMARK  status: ('A' for Active; 'I' for Inactive)
REMARK    1  A    between atoms: C_3  and  O_1 
REMARK    2  A    between atoms: C_4  and  O_14 
REMARK    3  A    between atoms: C_7  and  C_8 
REMARK    4  A    between atoms: C_9  and  C_10 
REMARK    5  A    between atoms: C_10  and  O_12 
ROOT
ATOM      1  C   LIG     1     171.974 172.719 167.499  0.00  0.00     0.162 A 
ATOM      2  C   LIG     1     171.390 173.132 166.301  0.00  0.00     0.158 A 
ATOM      3  C   LIG     1     170.617 174.293 166.267  0.00  0.00     0.050 A 
ATOM      4  C   LIG     1     170.428 175.040 167.430  0.00  0.00     0.012 A 
ATOM      5  C   LIG     1     171.011 174.627 168.626  0.00  0.00    -0.021 A 
ATOM      6  C   LIG     1     171.784 173.466 168.662  0.00  0.00     0.057 A 
ENDROOT
BRANCH   5   7
ATOM      7  C   LIG     1     170.815 175.406 169.838  0.00  0.00     0.015 C 
ATOM      8  C   LIG     1     170.356 174.922 171.014  0.00  0.00     0.092 C 
BRANCH   8   9
ATOM      9  C   LIG     1     170.210 175.819 172.178  0.00  0.00     0.330 C 
ATOM     10  O   LIG     1     169.619 175.569 173.216  0.00  0.00    -0.246 OA
BRANCH   9  11
ATOM     11  O   LIG     1     170.846 176.983 171.911  0.00  0.00    -0.478 OA
ATOM     12  H   LIG     1     170.550 177.707 172.503  0.00  0.00     0.295 HD
ENDBRANCH   9  11
ENDBRANCH   8   9
ENDBRANCH   5   7
BRANCH   1  13
ATOM     13  O   LIG     1     172.730 171.586 167.546  0.00  0.00    -0.491 OA
ATOM     14  C   LIG     1     174.137 171.740 167.375  0.00  0.00     0.277 C 
ENDBRANCH   1  13
BRANCH   2  15
ATOM     15  O   LIG     1     171.567 172.410 165.160  0.00  0.00    -0.503 OA
ATOM     16  H   LIG     1     171.041 171.594 165.217  0.00  0.00     0.292 HD
ENDBRANCH   2  15
TORSDOF 5
ENDMDL
MODEL 10
REMARK VINA RESULT:      -5.3      1.411      2.592
REMARK  5 active torsions:
REMARK  status: ('A' for Active; 'I' for Inactive)
REMARK    1  A    between atoms: C_3  and  O_1 
REMARK    2  A    between atoms: C_4  and  O_14 
REMARK    3  A    between atoms: C_7  and  C_8 
REMARK    4  A    between atoms: C_9  and  C_10 
REMARK    5  A    between atoms: C_10  and  O_12 
ROOT
ATOM      1  C   LIG     1     170.194 173.863 170.489  0.00  0.00     0.162 A 
ATOM      2  C   LIG     1     168.954 173.682 169.874  0.00  0.00     0.158 A 
ATOM      3  C   LIG     1     168.882 173.096 168.611  0.00  0.00     0.050 A 
ATOM      4  C   LIG     1     170.049 172.691 167.962  0.00  0.00     0.012 A 
ATOM      5  C   LIG     1     171.287 172.872 168.576  0.00  0.00    -0.021 A 
ATOM      6  C   LIG     1     171.360 173.458 169.840  0.00  0.00     0.057 A 
ENDROOT
BRANCH   5   7
ATOM      7  C   LIG     1     172.502 172.449 167.900  0.00  0.00     0.015 C 
ATOM      8  C   LIG     1     172.584 172.060 166.608  0.00  0.00     0.092 C 
BRANCH   8   9
ATOM      9  C   LIG     1     173.885 171.662 166.035  0.00  0.00     0.330 C 
ATOM     10  O   LIG     1     174.167 171.601 164.850  0.00  0.00    -0.246 OA
BRANCH   9  11
ATOM     11  O   LIG     1     174.734 171.369 167.048  0.00  0.00    -0.478 OA
ATOM     12  H   LIG     1     174.383 171.659 167.917  0.00  0.00     0.295 HD
ENDBRANCH   9  11
ENDBRANCH   8   9
ENDBRANCH   5   7
BRANCH   1  13
ATOM     13  O   LIG     1     170.277 174.436 171.723  0.00  0.00    -0.491 OA
ATOM     14  C   LIG     1     170.476 175.848 171.769  0.00  0.00     0.277 C 
ENDBRANCH   1  13
BRANCH   2  15
ATOM     15  O   LIG     1     167.808 174.075 170.498  0.00  0.00    -0.503 OA
ATOM     16  H   LIG     1     167.627 173.470 171.238  0.00  0.00     0.292 HD
ENDBRANCH   2  15
TORSDOF 5
ENDMDL
