MODEL 1
REMARK VINA RESULT:      -8.2      0.000      0.000
REMARK  13 active torsions:
REMARK  status: ('A' for Active; 'I' for Inactive)
REMARK    1  A    between atoms: O_2  and  C_16 
REMARK    2  A    between atoms: O_2  and  C_17 
REMARK    3  A    between atoms: O_4  and  C_12 
REMARK    4  A    between atoms: O_5  and  C_13 
REMARK    5  A    between atoms: O_6  and  C_15 
REMARK    6  A    between atoms: O_6  and  C_22 
REMARK    7  A    between atoms: O_7  and  C_14 
REMARK    8  A    between atoms: O_8  and  C_18 
REMARK    9  A    between atoms: O_9  and  C_19 
REMARK   10  A    between atoms: O_10  and  C_20 
REMARK   11  A    between atoms: C_11  and  C_16 
REMARK   12  A    between atoms: C_22  and  C_23 
REMARK   13  A    between atoms: C_24  and  C_25 
ROOT
HETATM    1  O   UNK     0     152.887 155.496 151.676  0.00  0.00    -0.348 OA
HETATM    2  C   UNK     0     153.655 156.431 152.435  0.00  0.00     0.180 C 
HETATM    3  C   UNK     0     155.140 156.289 152.092  0.00  0.00     0.180 C 
HETATM    4  C   UNK     0     155.613 154.853 152.313  0.00  0.00     0.183 C 
HETATM    5  C   UNK     0     154.673 153.851 151.641  0.00  0.00     0.204 C 
HETATM    6  C   UNK     0     153.213 154.144 151.984  0.00  0.00     0.291 C 
ENDROOT
BRANCH   2   7
HETATM    7  C   UNK     0     153.131 157.828 152.113  0.00  0.00     0.205 C 
BRANCH   7   8
HETATM    8  O   UNK     0     154.092 158.496 151.317  0.00  0.00    -0.356 OA
BRANCH   8   9
HETATM    9  C   UNK     0     153.559 158.875 150.052  0.00  0.00     0.290 C 
HETATM   10  O   UNK     0     153.799 157.882 149.050  0.00  0.00    -0.356 OA
HETATM   11  C   UNK     0     155.176 157.722 148.716  0.00  0.00     0.205 C 
HETATM   12  C   UNK     0     155.750 159.023 148.170  0.00  0.00     0.173 C 
HETATM   13  C   UNK     0     155.581 160.155 149.185  0.00  0.00     0.182 C 
HETATM   14  C   UNK     0     154.120 160.244 149.638  0.00  0.00     0.204 C 
BRANCH  12  15
HETATM   15  O   UNK     0     157.125 158.863 147.852  0.00  0.00    -0.391 OA
HETATM   16  H   UNK     0     157.179 158.306 147.055  0.00  0.00     0.210 HD
ENDBRANCH  12  15
BRANCH  13  17
HETATM   17  O   UNK     0     156.417 159.904 150.314  0.00  0.00    -0.390 OA
HETATM   18  H   UNK     0     157.248 159.522 149.984  0.00  0.00     0.210 HD
ENDBRANCH  13  17
BRANCH  14  19
HETATM   19  O   UNK     0     153.322 160.741 148.565  0.00  0.00    -0.388 OA
HETATM   20  H   UNK     0     152.507 160.214 148.519  0.00  0.00     0.210 HD
ENDBRANCH  14  19
ENDBRANCH   8   9
ENDBRANCH   7   8
ENDBRANCH   2   7
BRANCH   6  21
HETATM   21  O   UNK     0     152.396 153.263 151.213  0.00  0.00    -0.355 OA
BRANCH  21  22
HETATM   22  C   UNK     0     152.384 153.636 149.843  0.00  0.00     0.198 C 
BRANCH  22  23
HETATM   23  C   UNK     0     152.489 152.400 149.008  0.00  0.00     0.000 C 
HETATM   24  C   UNK     0     151.693 152.151 147.958  0.00  0.00     0.009 C 
BRANCH  24  25
HETATM   25  C   UNK     0     151.769 150.957 147.098  0.00  0.00    -0.036 A 
HETATM   26  C   UNK     0     153.002 150.371 146.857  0.00  0.00     0.011 A 
HETATM   27  C   UNK     0     153.074 149.240 146.043  0.00  0.00     0.001 A 
HETATM   28  C   UNK     0     151.913 148.711 145.482  0.00  0.00     0.000 A 
HETATM   29  C   UNK     0     150.680 149.311 145.733  0.00  0.00     0.001 A 
HETATM   30  C   UNK     0     150.607 150.442 146.547  0.00  0.00     0.011 A 
ENDBRANCH  24  25
ENDBRANCH  22  23
ENDBRANCH  21  22
ENDBRANCH   6  21
BRANCH   3  31
HETATM   31  O   UNK     0     155.900 157.169 152.917  0.00  0.00    -0.390 OA
HETATM   32  H   UNK     0     155.899 156.809 153.821  0.00  0.00     0.210 HD
ENDBRANCH   3  31
BRANCH   5  33
HETATM   33  O   UNK     0     154.985 152.534 152.093  0.00  0.00    -0.388 OA
HETATM   34  H   UNK     0     155.926 152.369 151.916  0.00  0.00     0.210 HD
ENDBRANCH   5  33
BRANCH   4  35
HETATM   35  O   UNK     0     156.921 154.728 151.752  0.00  0.00    -0.390 OA
HETATM   36  H   UNK     0     156.816 154.428 150.833  0.00  0.00     0.210 HD
ENDBRANCH   4  35
TORSDOF 13
ENDMDL
MODEL 2
REMARK VINA RESULT:      -8.0      4.598      8.018
REMARK  13 active torsions:
REMARK  status: ('A' for Active; 'I' for Inactive)
REMARK    1  A    between atoms: O_2  and  C_16 
REMARK    2  A    between atoms: O_2  and  C_17 
REMARK    3  A    between atoms: O_4  and  C_12 
REMARK    4  A    between atoms: O_5  and  C_13 
REMARK    5  A    between atoms: O_6  and  C_15 
REMARK    6  A    between atoms: O_6  and  C_22 
REMARK    7  A    between atoms: O_7  and  C_14 
REMARK    8  A    between atoms: O_8  and  C_18 
REMARK    9  A    between atoms: O_9  and  C_19 
REMARK   10  A    between atoms: O_10  and  C_20 
REMARK   11  A    between atoms: C_11  and  C_16 
REMARK   12  A    between atoms: C_22  and  C_23 
REMARK   13  A    between atoms: C_24  and  C_25 
ROOT
HETATM    1  O   UNK     0     152.855 149.502 146.258  0.00  0.00    -0.348 OA
HETATM    2  C   UNK     0     153.162 150.885 146.446  0.00  0.00     0.180 C 
HETATM    3  C   UNK     0     153.176 151.605 145.095  0.00  0.00     0.180 C 
HETATM    4  C   UNK     0     154.152 150.932 144.132  0.00  0.00     0.183 C 
HETATM    5  C   UNK     0     153.926 149.420 144.081  0.00  0.00     0.204 C 
HETATM    6  C   UNK     0     153.841 148.824 145.485  0.00  0.00     0.291 C 
ENDROOT
BRANCH   2   7
HETATM    7  C   UNK     0     152.110 151.467 147.386  0.00  0.00     0.205 C 
BRANCH   7   8
HETATM    8  O   UNK     0     152.754 151.895 148.571  0.00  0.00    -0.356 OA
BRANCH   8   9
HETATM    9  C   UNK     0     151.980 152.865 149.271  0.00  0.00     0.290 C 
HETATM   10  O   UNK     0     152.671 154.114 149.395  0.00  0.00    -0.356 OA
HETATM   11  C   UNK     0     153.827 154.051 150.227  0.00  0.00     0.205 C 
HETATM   12  C   UNK     0     153.448 153.633 151.642  0.00  0.00     0.173 C 
HETATM   13  C   UNK     0     152.732 152.281 151.632  0.00  0.00     0.182 C 
HETATM   14  C   UNK     0     151.563 152.311 150.642  0.00  0.00     0.204 C 
BRANCH  12  15
HETATM   15  O   UNK     0     154.604 153.560 152.464  0.00  0.00    -0.391 OA
HETATM   16  H   UNK     0     154.733 152.626 152.707  0.00  0.00     0.210 HD
ENDBRANCH  12  15
BRANCH  13  17
HETATM   17  O   UNK     0     153.655 151.262 151.251  0.00  0.00    -0.390 OA
HETATM   18  H   UNK     0     154.330 151.675 150.685  0.00  0.00     0.210 HD
ENDBRANCH  13  17
BRANCH  14  19
HETATM   19  O   UNK     0     150.527 153.145 151.158  0.00  0.00    -0.388 OA
HETATM   20  H   UNK     0     150.338 153.839 150.504  0.00  0.00     0.210 HD
ENDBRANCH  14  19
ENDBRANCH   8   9
ENDBRANCH   7   8
ENDBRANCH   2   7
BRANCH   6  21
HETATM   21  O   UNK     0     153.490 147.447 145.357  0.00  0.00    -0.355 OA
BRANCH  21  22
HETATM   22  C   UNK     0     152.100 147.246 145.566  0.00  0.00     0.198 C 
BRANCH  22  23
HETATM   23  C   UNK     0     151.618 146.194 144.619  0.00  0.00     0.000 C 
HETATM   24  C   UNK     0     152.442 145.442 143.873  0.00  0.00     0.009 C 
BRANCH  24  25
HETATM   25  C   UNK     0     152.015 144.385 142.940  0.00  0.00    -0.036 A 
HETATM   26  C   UNK     0     151.139 144.699 141.913  0.00  0.00     0.011 A 
HETATM   27  C   UNK     0     150.734 143.699 141.028  0.00  0.00     0.001 A 
HETATM   28  C   UNK     0     151.212 142.398 141.183  0.00  0.00     0.000 A 
HETATM   29  C   UNK     0     152.094 142.097 142.220  0.00  0.00     0.001 A 
HETATM   30  C   UNK     0     152.499 143.097 143.105  0.00  0.00     0.011 A 
ENDBRANCH  24  25
ENDBRANCH  22  23
ENDBRANCH  21  22
ENDBRANCH   6  21
BRANCH   3  31
HETATM   31  O   UNK     0     153.564 152.963 145.289  0.00  0.00    -0.390 OA
HETATM   32  H   UNK     0     152.820 153.529 145.018  0.00  0.00     0.210 HD
ENDBRANCH   3  31
BRANCH   5  33
HETATM   33  O   UNK     0     155.016 148.802 143.396  0.00  0.00    -0.388 OA
HETATM   34  H   UNK     0     155.347 148.075 143.951  0.00  0.00     0.210 HD
ENDBRANCH   5  33
BRANCH   4  35
HETATM   35  O   UNK     0     153.945 151.488 142.832  0.00  0.00    -0.390 OA
HETATM   36  H   UNK     0     154.819 151.608 142.424  0.00  0.00     0.210 HD
ENDBRANCH   4  35
TORSDOF 13
ENDMDL
MODEL 3
REMARK VINA RESULT:      -8.0      2.929      4.225
REMARK  13 active torsions:
REMARK  status: ('A' for Active; 'I' for Inactive)
REMARK    1  A    between atoms: O_2  and  C_16 
REMARK    2  A    between atoms: O_2  and  C_17 
REMARK    3  A    between atoms: O_4  and  C_12 
REMARK    4  A    between atoms: O_5  and  C_13 
REMARK    5  A    between atoms: O_6  and  C_15 
REMARK    6  A    between atoms: O_6  and  C_22 
REMARK    7  A    between atoms: O_7  and  C_14 
REMARK    8  A    between atoms: O_8  and  C_18 
REMARK    9  A    between atoms: O_9  and  C_19 
REMARK   10  A    between atoms: O_10  and  C_20 
REMARK   11  A    between atoms: C_11  and  C_16 
REMARK   12  A    between atoms: C_22  and  C_23 
REMARK   13  A    between atoms: C_24  and  C_25 
ROOT
HETATM    1  O   UNK     0     152.907 155.857 151.284  0.00  0.00    -0.348 OA
HETATM    2  C   UNK     0     153.625 156.685 152.199  0.00  0.00     0.180 C 
HETATM    3  C   UNK     0     155.131 156.475 152.022  0.00  0.00     0.180 C 
HETATM    4  C   UNK     0     155.496 154.999 152.183  0.00  0.00     0.183 C 
HETATM    5  C   UNK     0     154.591 154.110 151.329  0.00  0.00     0.204 C 
HETATM    6  C   UNK     0     153.118 154.468 151.520  0.00  0.00     0.291 C 
ENDROOT
BRANCH   2   7
HETATM    7  C   UNK     0     153.221 158.131 151.929  0.00  0.00     0.205 C 
BRANCH   7   8
HETATM    8  O   UNK     0     154.198 158.722 151.091  0.00  0.00    -0.356 OA
BRANCH   8   9
HETATM    9  C   UNK     0     153.670 159.039 149.807  0.00  0.00     0.290 C 
HETATM   10  O   UNK     0     153.974 158.030 148.838  0.00  0.00    -0.356 OA
HETATM   11  C   UNK     0     155.362 157.926 148.532  0.00  0.00     0.205 C 
HETATM   12  C   UNK     0     155.885 159.237 147.957  0.00  0.00     0.173 C 
HETATM   13  C   UNK     0     155.645 160.388 148.935  0.00  0.00     0.182 C 
HETATM   14  C   UNK     0     154.174 160.421 149.361  0.00  0.00     0.204 C 
BRANCH  12  15
HETATM   15  O   UNK     0     157.271 159.132 147.666  0.00  0.00    -0.391 OA
HETATM   16  H   UNK     0     157.511 159.888 147.102  0.00  0.00     0.210 HD
ENDBRANCH  12  15
BRANCH  13  17
HETATM   17  O   UNK     0     156.471 160.209 150.085  0.00  0.00    -0.390 OA
HETATM   18  H   UNK     0     156.872 159.325 150.022  0.00  0.00     0.210 HD
ENDBRANCH  13  17
BRANCH  14  19
HETATM   19  O   UNK     0     153.372 160.848 148.262  0.00  0.00    -0.388 OA
HETATM   20  H   UNK     0     153.432 160.179 147.560  0.00  0.00     0.210 HD
ENDBRANCH  14  19
ENDBRANCH   8   9
ENDBRANCH   7   8
ENDBRANCH   2   7
BRANCH   6  21
HETATM   21  O   UNK     0     152.355 153.699 150.592  0.00  0.00    -0.355 OA
BRANCH  21  22
HETATM   22  C   UNK     0     151.090 153.345 151.132  0.00  0.00     0.198 C 
BRANCH  22  23
HETATM   23  C   UNK     0     150.038 154.183 150.479  0.00  0.00     0.000 C 
HETATM   24  C   UNK     0     148.949 154.631 151.123  0.00  0.00     0.009 C 
BRANCH  24  25
HETATM   25  C   UNK     0     147.895 155.470 150.527  0.00  0.00    -0.036 A 
HETATM   26  C   UNK     0     148.083 156.841 150.446  0.00  0.00     0.011 A 
HETATM   27  C   UNK     0     147.086 157.636 149.882  0.00  0.00     0.001 A 
HETATM   28  C   UNK     0     145.914 157.050 149.406  0.00  0.00     0.000 A 
HETATM   29  C   UNK     0     145.738 155.669 149.494  0.00  0.00     0.001 A 
HETATM   30  C   UNK     0     146.736 154.874 150.058  0.00  0.00     0.011 A 
ENDBRANCH  24  25
ENDBRANCH  22  23
ENDBRANCH  21  22
ENDBRANCH   6  21
BRANCH   3  31
HETATM   31  O   UNK     0     155.833 157.243 152.997  0.00  0.00    -0.390 OA
HETATM   32  H   UNK     0     155.493 158.154 152.961  0.00  0.00     0.210 HD
ENDBRANCH   3  31
BRANCH   5  33
HETATM   33  O   UNK     0     154.774 152.746 151.710  0.00  0.00    -0.388 OA
HETATM   34  H   UNK     0     153.897 152.351 151.846  0.00  0.00     0.210 HD
ENDBRANCH   5  33
BRANCH   4  35
HETATM   35  O   UNK     0     156.853 154.832 151.772  0.00  0.00    -0.390 OA
HETATM   36  H   UNK     0     157.031 153.877 151.734  0.00  0.00     0.210 HD
ENDBRANCH   4  35
TORSDOF 13
ENDMDL
MODEL 4
REMARK VINA RESULT:      -8.0      3.473      6.165
REMARK  13 active torsions:
REMARK  status: ('A' for Active; 'I' for Inactive)
REMARK    1  A    between atoms: O_2  and  C_16 
REMARK    2  A    between atoms: O_2  and  C_17 
REMARK    3  A    between atoms: O_4  and  C_12 
REMARK    4  A    between atoms: O_5  and  C_13 
REMARK    5  A    between atoms: O_6  and  C_15 
REMARK    6  A    between atoms: O_6  and  C_22 
REMARK    7  A    between atoms: O_7  and  C_14 
REMARK    8  A    between atoms: O_8  and  C_18 
REMARK    9  A    between atoms: O_9  and  C_19 
REMARK   10  A    between atoms: O_10  and  C_20 
REMARK   11  A    between atoms: C_11  and  C_16 
REMARK   12  A    between atoms: C_22  and  C_23 
REMARK   13  A    between atoms: C_24  and  C_25 
ROOT
HETATM    1  O   UNK     0     150.880 152.460 147.592  0.00  0.00    -0.348 OA
HETATM    2  C   UNK     0     152.030 152.722 148.398  0.00  0.00     0.180 C 
HETATM    3  C   UNK     0     153.303 152.505 147.577  0.00  0.00     0.180 C 
HETATM    4  C   UNK     0     153.333 151.097 146.984  0.00  0.00     0.183 C 
HETATM    5  C   UNK     0     152.018 150.766 146.277  0.00  0.00     0.204 C 
HETATM    6  C   UNK     0     150.815 151.105 147.155  0.00  0.00     0.291 C 
ENDROOT
BRANCH   2   7
HETATM    7  C   UNK     0     151.921 154.157 148.904  0.00  0.00     0.205 C 
BRANCH   7   8
HETATM    8  O   UNK     0     153.060 154.443 149.695  0.00  0.00    -0.356 OA
BRANCH   8   9
HETATM    9  C   UNK     0     152.818 154.201 151.077  0.00  0.00     0.290 C 
HETATM   10  O   UNK     0     152.600 155.416 151.804  0.00  0.00    -0.356 OA
HETATM   11  C   UNK     0     153.751 156.253 151.882  0.00  0.00     0.205 C 
HETATM   12  C   UNK     0     154.891 155.534 152.591  0.00  0.00     0.173 C 
HETATM   13  C   UNK     0     155.237 154.229 151.871  0.00  0.00     0.182 C 
HETATM   14  C   UNK     0     153.973 153.384 151.675  0.00  0.00     0.204 C 
BRANCH  12  15
HETATM   15  O   UNK     0     156.039 156.367 152.655  0.00  0.00    -0.391 OA
HETATM   16  H   UNK     0     156.014 156.838 153.507  0.00  0.00     0.210 HD
ENDBRANCH  12  15
BRANCH  13  17
HETATM   17  O   UNK     0     155.811 154.531 150.600  0.00  0.00    -0.390 OA
HETATM   18  H   UNK     0     156.097 153.691 150.201  0.00  0.00     0.210 HD
ENDBRANCH  13  17
BRANCH  14  19
HETATM   19  O   UNK     0     153.546 152.874 152.937  0.00  0.00    -0.388 OA
HETATM   20  H   UNK     0     153.166 153.606 153.451  0.00  0.00     0.210 HD
ENDBRANCH  14  19
ENDBRANCH   8   9
ENDBRANCH   7   8
ENDBRANCH   2   7
BRANCH   6  21
HETATM   21  O   UNK     0     149.634 150.904 146.380  0.00  0.00    -0.355 OA
BRANCH  21  22
HETATM   22  C   UNK     0     149.502 151.896 145.373  0.00  0.00     0.198 C 
BRANCH  22  23
HETATM   23  C   UNK     0     148.977 151.251 144.130  0.00  0.00     0.000 C 
HETATM   24  C   UNK     0     148.333 150.074 144.127  0.00  0.00     0.009 C 
BRANCH  24  25
HETATM   25  C   UNK     0     147.785 149.409 142.932  0.00  0.00    -0.036 A 
HETATM   26  C   UNK     0     148.585 148.531 142.217  0.00  0.00     0.011 A 
HETATM   27  C   UNK     0     148.067 147.900 141.085  0.00  0.00     0.001 A 
HETATM   28  C   UNK     0     146.756 148.157 140.684  0.00  0.00     0.000 A 
HETATM   29  C   UNK     0     145.963 149.043 141.413  0.00  0.00     0.001 A 
HETATM   30  C   UNK     0     146.481 149.673 142.545  0.00  0.00     0.011 A 
ENDBRANCH  24  25
ENDBRANCH  22  23
ENDBRANCH  21  22
ENDBRANCH   6  21
BRANCH   3  31
HETATM   31  O   UNK     0     154.442 152.689 148.415  0.00  0.00    -0.390 OA
HETATM   32  H   UNK     0     154.161 153.200 149.194  0.00  0.00     0.210 HD
ENDBRANCH   3  31
BRANCH   5  33
HETATM   33  O   UNK     0     151.979 149.370 145.981  0.00  0.00    -0.388 OA
HETATM   34  H   UNK     0     151.096 149.037 146.215  0.00  0.00     0.210 HD
ENDBRANCH   5  33
BRANCH   4  35
HETATM   35  O   UNK     0     154.407 151.037 146.043  0.00  0.00    -0.390 OA
HETATM   36  H   UNK     0     154.740 150.124 146.040  0.00  0.00     0.210 HD
ENDBRANCH   4  35
TORSDOF 13
ENDMDL
MODEL 5
REMARK VINA RESULT:      -8.0      1.436      1.763
REMARK  13 active torsions:
REMARK  status: ('A' for Active; 'I' for Inactive)
REMARK    1  A    between atoms: O_2  and  C_16 
REMARK    2  A    between atoms: O_2  and  C_17 
REMARK    3  A    between atoms: O_4  and  C_12 
REMARK    4  A    between atoms: O_5  and  C_13 
REMARK    5  A    between atoms: O_6  and  C_15 
REMARK    6  A    between atoms: O_6  and  C_22 
REMARK    7  A    between atoms: O_7  and  C_14 
REMARK    8  A    between atoms: O_8  and  C_18 
REMARK    9  A    between atoms: O_9  and  C_19 
REMARK   10  A    between atoms: O_10  and  C_20 
REMARK   11  A    between atoms: C_11  and  C_16 
REMARK   12  A    between atoms: C_22  and  C_23 
REMARK   13  A    between atoms: C_24  and  C_25 
ROOT
HETATM    1  O   UNK     0     153.544 155.529 150.142  0.00  0.00    -0.348 OA
HETATM    2  C   UNK     0     153.213 156.323 151.282  0.00  0.00     0.180 C 
HETATM    3  C   UNK     0     154.470 156.596 152.112  0.00  0.00     0.180 C 
HETATM    4  C   UNK     0     155.153 155.288 152.508  0.00  0.00     0.183 C 
HETATM    5  C   UNK     0     155.337 154.370 151.299  0.00  0.00     0.204 C 
HETATM    6  C   UNK     0     154.042 154.242 150.497  0.00  0.00     0.291 C 
ENDROOT
BRANCH   2   7
HETATM    7  C   UNK     0     152.578 157.615 150.776  0.00  0.00     0.205 C 
BRANCH   7   8
HETATM    8  O   UNK     0     153.607 158.552 150.520  0.00  0.00    -0.356 OA
BRANCH   8   9
HETATM    9  C   UNK     0     153.375 159.276 149.316  0.00  0.00     0.290 C 
HETATM   10  O   UNK     0     153.665 158.491 148.153  0.00  0.00    -0.356 OA
HETATM   11  C   UNK     0     155.047 158.173 148.005  0.00  0.00     0.205 C 
HETATM   12  C   UNK     0     155.879 159.443 147.878  0.00  0.00     0.173 C 
HETATM   13  C   UNK     0     155.674 160.346 149.096  0.00  0.00     0.182 C 
HETATM   14  C   UNK     0     154.178 160.585 149.329  0.00  0.00     0.204 C 
BRANCH  12  15
HETATM   15  O   UNK     0     157.256 159.121 147.744  0.00  0.00    -0.391 OA
HETATM   16  H   UNK     0     157.436 158.990 146.796  0.00  0.00     0.210 HD
ENDBRANCH  12  15
BRANCH  13  17
HETATM   17  O   UNK     0     156.243 159.723 150.246  0.00  0.00    -0.390 OA
HETATM   18  H   UNK     0     156.558 158.843 149.977  0.00  0.00     0.210 HD
ENDBRANCH  13  17
BRANCH  14  19
HETATM   19  O   UNK     0     153.668 161.427 148.297  0.00  0.00    -0.388 OA
HETATM   20  H   UNK     0     153.133 160.883 147.694  0.00  0.00     0.210 HD
ENDBRANCH  14  19
ENDBRANCH   8   9
ENDBRANCH   7   8
ENDBRANCH   2   7
BRANCH   6  21
HETATM   21  O   UNK     0     154.329 153.493 149.317  0.00  0.00    -0.355 OA
BRANCH  21  22
HETATM   22  C   UNK     0     153.141 153.000 148.717  0.00  0.00     0.198 C 
BRANCH  22  23
HETATM   23  C   UNK     0     153.493 152.348 147.418  0.00  0.00     0.000 C 
HETATM   24  C   UNK     0     153.298 151.044 147.172  0.00  0.00     0.009 C 
BRANCH  24  25
HETATM   25  C   UNK     0     153.614 150.362 145.905  0.00  0.00    -0.036 A 
HETATM   26  C   UNK     0     153.982 151.116 144.801  0.00  0.00     0.011 A 
HETATM   27  C   UNK     0     154.282 150.470 143.601  0.00  0.00     0.001 A 
HETATM   28  C   UNK     0     154.211 149.080 143.521  0.00  0.00     0.000 A 
HETATM   29  C   UNK     0     153.840 148.334 144.640  0.00  0.00     0.001 A 
HETATM   30  C   UNK     0     153.540 148.980 145.840  0.00  0.00     0.011 A 
ENDBRANCH  24  25
ENDBRANCH  22  23
ENDBRANCH  21  22
ENDBRANCH   6  21
BRANCH   3  31
HETATM   31  O   UNK     0     154.111 157.317 153.288  0.00  0.00    -0.390 OA
HETATM   32  H   UNK     0     153.282 156.940 153.629  0.00  0.00     0.210 HD
ENDBRANCH   3  31
BRANCH   5  33
HETATM   33  O   UNK     0     155.718 153.070 151.746  0.00  0.00    -0.388 OA
HETATM   34  H   UNK     0     156.621 152.895 151.432  0.00  0.00     0.210 HD
ENDBRANCH   5  33
BRANCH   4  35
HETATM   35  O   UNK     0     156.431 155.608 153.062  0.00  0.00    -0.390 OA
HETATM   36  H   UNK     0     156.338 155.602 154.030  0.00  0.00     0.210 HD
ENDBRANCH   4  35
TORSDOF 13
ENDMDL
MODEL 6
REMARK VINA RESULT:      -7.9      3.444      4.685
REMARK  13 active torsions:
REMARK  status: ('A' for Active; 'I' for Inactive)
REMARK    1  A    between atoms: O_2  and  C_16 
REMARK    2  A    between atoms: O_2  and  C_17 
REMARK    3  A    between atoms: O_4  and  C_12 
REMARK    4  A    between atoms: O_5  and  C_13 
REMARK    5  A    between atoms: O_6  and  C_15 
REMARK    6  A    between atoms: O_6  and  C_22 
REMARK    7  A    between atoms: O_7  and  C_14 
REMARK    8  A    between atoms: O_8  and  C_18 
REMARK    9  A    between atoms: O_9  and  C_19 
REMARK   10  A    between atoms: O_10  and  C_20 
REMARK   11  A    between atoms: C_11  and  C_16 
REMARK   12  A    between atoms: C_22  and  C_23 
REMARK   13  A    between atoms: C_24  and  C_25 
ROOT
HETATM    1  O   UNK     0     153.505 156.710 151.514  0.00  0.00    -0.348 OA
HETATM    2  C   UNK     0     154.587 156.684 152.446  0.00  0.00     0.180 C 
HETATM    3  C   UNK     0     155.498 155.488 152.155  0.00  0.00     0.180 C 
HETATM    4  C   UNK     0     154.703 154.184 152.170  0.00  0.00     0.183 C 
HETATM    5  C   UNK     0     153.445 154.292 151.306  0.00  0.00     0.204 C 
HETATM    6  C   UNK     0     152.663 155.566 151.621  0.00  0.00     0.291 C 
ENDROOT
BRANCH   2   7
HETATM    7  C   UNK     0     155.336 158.008 152.322  0.00  0.00     0.205 C 
BRANCH   7   8
HETATM    8  O   UNK     0     154.722 158.778 151.305  0.00  0.00    -0.356 OA
BRANCH   8   9
HETATM    9  C   UNK     0     155.665 159.209 150.328  0.00  0.00     0.290 C 
HETATM   10  O   UNK     0     155.375 160.526 149.848  0.00  0.00    -0.356 OA
HETATM   11  C   UNK     0     154.164 160.612 149.099  0.00  0.00     0.205 C 
HETATM   12  C   UNK     0     154.230 159.717 147.868  0.00  0.00     0.173 C 
HETATM   13  C   UNK     0     154.499 158.266 148.271  0.00  0.00     0.182 C 
HETATM   14  C   UNK     0     155.731 158.190 149.180  0.00  0.00     0.204 C 
BRANCH  12  15
HETATM   15  O   UNK     0     153.017 159.796 147.133  0.00  0.00    -0.391 OA
HETATM   16  H   UNK     0     153.244 160.022 146.214  0.00  0.00     0.210 HD
ENDBRANCH  12  15
BRANCH  13  17
HETATM   17  O   UNK     0     153.363 157.750 148.962  0.00  0.00    -0.390 OA
HETATM   18  H   UNK     0     152.585 158.251 148.661  0.00  0.00     0.210 HD
ENDBRANCH  13  17
BRANCH  14  19
HETATM   19  O   UNK     0     156.902 158.465 148.413  0.00  0.00    -0.388 OA
HETATM   20  H   UNK     0     156.636 158.928 147.601  0.00  0.00     0.210 HD
ENDBRANCH  14  19
ENDBRANCH   8   9
ENDBRANCH   7   8
ENDBRANCH   2   7
BRANCH   6  21
HETATM   21  O   UNK     0     151.591 155.667 150.684  0.00  0.00    -0.355 OA
BRANCH  21  22
HETATM   22  C   UNK     0     150.330 155.586 151.331  0.00  0.00     0.198 C 
BRANCH  22  23
HETATM   23  C   UNK     0     149.253 155.712 150.302  0.00  0.00     0.000 C 
HETATM   24  C   UNK     0     147.982 155.339 150.516  0.00  0.00     0.009 C 
BRANCH  24  25
HETATM   25  C   UNK     0     146.886 155.458 149.539  0.00  0.00    -0.036 A 
HETATM   26  C   UNK     0     146.032 156.547 149.607  0.00  0.00     0.011 A 
HETATM   27  C   UNK     0     144.993 156.660 148.682  0.00  0.00     0.001 A 
HETATM   28  C   UNK     0     144.824 155.683 147.702  0.00  0.00     0.000 A 
HETATM   29  C   UNK     0     145.691 154.592 147.646  0.00  0.00     0.001 A 
HETATM   30  C   UNK     0     146.730 154.479 148.571  0.00  0.00     0.011 A 
ENDBRANCH  24  25
ENDBRANCH  22  23
ENDBRANCH  21  22
ENDBRANCH   6  21
BRANCH   3  31
HETATM   31  O   UNK     0     156.525 155.426 153.142  0.00  0.00    -0.390 OA
HETATM   32  H   UNK     0     157.186 154.776 152.846  0.00  0.00     0.210 HD
ENDBRANCH   3  31
BRANCH   5  33
HETATM   33  O   UNK     0     152.599 153.171 151.560  0.00  0.00    -0.388 OA
HETATM   34  H   UNK     0     153.139 152.366 151.498  0.00  0.00     0.210 HD
ENDBRANCH   5  33
BRANCH   4  35
HETATM   35  O   UNK     0     155.543 153.148 151.659  0.00  0.00    -0.390 OA
HETATM   36  H   UNK     0     155.586 152.448 152.333  0.00  0.00     0.210 HD
ENDBRANCH   4  35
TORSDOF 13
ENDMDL
MODEL 7
REMARK VINA RESULT:      -7.9      3.910      5.578
REMARK  13 active torsions:
REMARK  status: ('A' for Active; 'I' for Inactive)
REMARK    1  A    between atoms: O_2  and  C_16 
REMARK    2  A    between atoms: O_2  and  C_17 
REMARK    3  A    between atoms: O_4  and  C_12 
REMARK    4  A    between atoms: O_5  and  C_13 
REMARK    5  A    between atoms: O_6  and  C_15 
REMARK    6  A    between atoms: O_6  and  C_22 
REMARK    7  A    between atoms: O_7  and  C_14 
REMARK    8  A    between atoms: O_8  and  C_18 
REMARK    9  A    between atoms: O_9  and  C_19 
REMARK   10  A    between atoms: O_10  and  C_20 
REMARK   11  A    between atoms: C_11  and  C_16 
REMARK   12  A    between atoms: C_22  and  C_23 
REMARK   13  A    between atoms: C_24  and  C_25 
ROOT
HETATM    1  O   UNK     0     152.627 156.831 151.612  0.00  0.00    -0.348 OA
HETATM    2  C   UNK     0     153.788 157.451 152.169  0.00  0.00     0.180 C 
HETATM    3  C   UNK     0     154.967 156.475 152.137  0.00  0.00     0.180 C 
HETATM    4  C   UNK     0     154.614 155.175 152.859  0.00  0.00     0.183 C 
HETATM    5  C   UNK     0     153.274 154.620 152.377  0.00  0.00     0.204 C 
HETATM    6  C   UNK     0     152.195 155.702 152.366  0.00  0.00     0.291 C 
ENDROOT
BRANCH   2   7
HETATM    7  C   UNK     0     154.074 158.709 151.355  0.00  0.00     0.205 C 
BRANCH   7   8
HETATM    8  O   UNK     0     153.123 159.698 151.706  0.00  0.00    -0.356 OA
BRANCH   8   9
HETATM    9  C   UNK     0     152.790 160.528 150.597  0.00  0.00     0.290 C 
HETATM   10  O   UNK     0     152.283 161.801 151.013  0.00  0.00    -0.356 OA
HETATM   11  C   UNK     0     151.022 161.728 151.674  0.00  0.00     0.205 C 
HETATM   12  C   UNK     0     149.966 161.131 150.752  0.00  0.00     0.173 C 
HETATM   13  C   UNK     0     150.391 159.742 150.274  0.00  0.00     0.182 C 
HETATM   14  C   UNK     0     151.801 159.798 149.676  0.00  0.00     0.204 C 
BRANCH  12  15
HETATM   15  O   UNK     0     148.715 161.050 151.419  0.00  0.00    -0.391 OA
HETATM   16  H   UNK     0     148.735 160.259 151.987  0.00  0.00     0.210 HD
ENDBRANCH  12  15
BRANCH  13  17
HETATM   17  O   UNK     0     150.376 158.839 151.379  0.00  0.00    -0.390 OA
HETATM   18  H   UNK     0     150.387 157.935 151.019  0.00  0.00     0.210 HD
ENDBRANCH  13  17
BRANCH  14  19
HETATM   19  O   UNK     0     151.759 160.494 148.432  0.00  0.00    -0.388 OA
HETATM   20  H   UNK     0     152.640 160.868 148.261  0.00  0.00     0.210 HD
ENDBRANCH  14  19
ENDBRANCH   8   9
ENDBRANCH   7   8
ENDBRANCH   2   7
BRANCH   6  21
HETATM   21  O   UNK     0     151.022 155.147 151.774  0.00  0.00    -0.355 OA
BRANCH  21  22
HETATM   22  C   UNK     0     151.093 155.178 150.357  0.00  0.00     0.198 C 
BRANCH  22  23
HETATM   23  C   UNK     0     149.771 155.622 149.818  0.00  0.00     0.000 C 
HETATM   24  C   UNK     0     148.728 155.943 150.599  0.00  0.00     0.009 C 
BRANCH  24  25
HETATM   25  C   UNK     0     147.413 156.399 150.115  0.00  0.00    -0.036 A 
HETATM   26  C   UNK     0     147.181 157.756 149.958  0.00  0.00     0.011 A 
HETATM   27  C   UNK     0     145.936 158.188 149.500  0.00  0.00     0.001 A 
HETATM   28  C   UNK     0     144.941 157.257 149.204  0.00  0.00     0.000 A 
HETATM   29  C   UNK     0     145.190 155.894 149.366  0.00  0.00     0.001 A 
HETATM   30  C   UNK     0     146.434 155.462 149.824  0.00  0.00     0.011 A 
ENDBRANCH  24  25
ENDBRANCH  22  23
ENDBRANCH  21  22
ENDBRANCH   6  21
BRANCH   3  31
HETATM   31  O   UNK     0     156.093 157.076 152.770  0.00  0.00    -0.390 OA
HETATM   32  H   UNK     0     156.737 156.373 152.968  0.00  0.00     0.210 HD
ENDBRANCH   3  31
BRANCH   5  33
HETATM   33  O   UNK     0     152.852 153.575 153.253  0.00  0.00    -0.388 OA
HETATM   34  H   UNK     0     151.894 153.663 153.388  0.00  0.00     0.210 HD
ENDBRANCH   5  33
BRANCH   4  35
HETATM   35  O   UNK     0     155.648 154.226 152.590  0.00  0.00    -0.390 OA
HETATM   36  H   UNK     0     155.534 153.488 153.211  0.00  0.00     0.210 HD
ENDBRANCH   4  35
TORSDOF 13
ENDMDL
MODEL 8
REMARK VINA RESULT:      -7.9      4.240      7.395
REMARK  13 active torsions:
REMARK  status: ('A' for Active; 'I' for Inactive)
REMARK    1  A    between atoms: O_2  and  C_16 
REMARK    2  A    between atoms: O_2  and  C_17 
REMARK    3  A    between atoms: O_4  and  C_12 
REMARK    4  A    between atoms: O_5  and  C_13 
REMARK    5  A    between atoms: O_6  and  C_15 
REMARK    6  A    between atoms: O_6  and  C_22 
REMARK    7  A    between atoms: O_7  and  C_14 
REMARK    8  A    between atoms: O_8  and  C_18 
REMARK    9  A    between atoms: O_9  and  C_19 
REMARK   10  A    between atoms: O_10  and  C_20 
REMARK   11  A    between atoms: C_11  and  C_16 
REMARK   12  A    between atoms: C_22  and  C_23 
REMARK   13  A    between atoms: C_24  and  C_25 
ROOT
HETATM    1  O   UNK     0     150.513 151.822 146.258  0.00  0.00    -0.348 OA
HETATM    2  C   UNK     0     151.277 151.633 147.450  0.00  0.00     0.180 C 
HETATM    3  C   UNK     0     152.732 151.319 147.094  0.00  0.00     0.180 C 
HETATM    4  C   UNK     0     152.814 150.106 146.168  0.00  0.00     0.183 C 
HETATM    5  C   UNK     0     151.852 150.244 144.988  0.00  0.00     0.204 C 
HETATM    6  C   UNK     0     150.454 150.646 145.455  0.00  0.00     0.291 C 
ENDROOT
BRANCH   2   7
HETATM    7  C   UNK     0     151.160 152.909 148.279  0.00  0.00     0.205 C 
BRANCH   7   8
HETATM    8  O   UNK     0     151.709 152.664 149.561  0.00  0.00    -0.356 OA
BRANCH   8   9
HETATM    9  C   UNK     0     151.889 153.870 150.297  0.00  0.00     0.290 C 
HETATM   10  O   UNK     0     152.974 154.653 149.787  0.00  0.00    -0.356 OA
HETATM   11  C   UNK     0     154.252 154.047 149.961  0.00  0.00     0.205 C 
HETATM   12  C   UNK     0     154.546 153.829 151.439  0.00  0.00     0.173 C 
HETATM   13  C   UNK     0     153.461 152.964 152.083  0.00  0.00     0.182 C 
HETATM   14  C   UNK     0     152.076 153.550 151.788  0.00  0.00     0.204 C 
BRANCH  12  15
HETATM   15  O   UNK     0     155.815 153.213 151.607  0.00  0.00    -0.391 OA
HETATM   16  H   UNK     0     156.456 153.708 151.066  0.00  0.00     0.210 HD
ENDBRANCH  12  15
BRANCH  13  17
HETATM   17  O   UNK     0     153.541 151.640 151.558  0.00  0.00    -0.390 OA
HETATM   18  H   UNK     0     153.402 151.697 150.597  0.00  0.00     0.210 HD
ENDBRANCH  13  17
BRANCH  14  19
HETATM   19  O   UNK     0     151.908 154.760 152.524  0.00  0.00    -0.388 OA
HETATM   20  H   UNK     0     151.656 155.464 151.903  0.00  0.00     0.210 HD
ENDBRANCH  14  19
ENDBRANCH   8   9
ENDBRANCH   7   8
ENDBRANCH   2   7
BRANCH   6  21
HETATM   21  O   UNK     0     149.657 150.893 144.297  0.00  0.00    -0.355 OA
BRANCH  21  22
HETATM   22  C   UNK     0     148.273 150.777 144.587  0.00  0.00     0.198 C 
BRANCH  22  23
HETATM   23  C   UNK     0     147.671 149.769 143.661  0.00  0.00     0.000 C 
HETATM   24  C   UNK     0     148.270 149.353 142.535  0.00  0.00     0.009 C 
BRANCH  24  25
HETATM   25  C   UNK     0     147.723 148.354 141.601  0.00  0.00    -0.036 A 
HETATM   26  C   UNK     0     146.349 148.209 141.489  0.00  0.00     0.011 A 
HETATM   27  C   UNK     0     145.831 147.263 140.604  0.00  0.00     0.001 A 
HETATM   28  C   UNK     0     146.694 146.474 139.844  0.00  0.00     0.000 A 
HETATM   29  C   UNK     0     148.074 146.631 139.967  0.00  0.00     0.001 A 
HETATM   30  C   UNK     0     148.592 147.578 140.851  0.00  0.00     0.011 A 
ENDBRANCH  24  25
ENDBRANCH  22  23
ENDBRANCH  21  22
ENDBRANCH   6  21
BRANCH   3  31
HETATM   31  O   UNK     0     153.463 151.051 148.289  0.00  0.00    -0.390 OA
HETATM   32  H   UNK     0     152.988 151.467 149.030  0.00  0.00     0.210 HD
ENDBRANCH   3  31
BRANCH   5  33
HETATM   33  O   UNK     0     151.755 148.993 144.307  0.00  0.00    -0.388 OA
HETATM   34  H   UNK     0     150.814 148.798 144.168  0.00  0.00     0.210 HD
ENDBRANCH   5  33
BRANCH   4  35
HETATM   35  O   UNK     0     154.154 150.012 145.682  0.00  0.00    -0.390 OA
HETATM   36  H   UNK     0     154.171 150.411 144.796  0.00  0.00     0.210 HD
ENDBRANCH   4  35
TORSDOF 13
ENDMDL
MODEL 9
REMARK VINA RESULT:      -7.8      3.594      6.758
REMARK  13 active torsions:
REMARK  status: ('A' for Active; 'I' for Inactive)
REMARK    1  A    between atoms: O_2  and  C_16 
REMARK    2  A    between atoms: O_2  and  C_17 
REMARK    3  A    between atoms: O_4  and  C_12 
REMARK    4  A    between atoms: O_5  and  C_13 
REMARK    5  A    between atoms: O_6  and  C_15 
REMARK    6  A    between atoms: O_6  and  C_22 
REMARK    7  A    between atoms: O_7  and  C_14 
REMARK    8  A    between atoms: O_8  and  C_18 
REMARK    9  A    between atoms: O_9  and  C_19 
REMARK   10  A    between atoms: O_10  and  C_20 
REMARK   11  A    between atoms: C_11  and  C_16 
REMARK   12  A    between atoms: C_22  and  C_23 
REMARK   13  A    between atoms: C_24  and  C_25 
ROOT
HETATM    1  O   UNK     0     153.058 156.422 150.916  0.00  0.00    -0.348 OA
HETATM    2  C   UNK     0     154.286 155.828 151.340  0.00  0.00     0.180 C 
HETATM    3  C   UNK     0     154.899 156.648 152.478  0.00  0.00     0.180 C 
HETATM    4  C   UNK     0     155.088 158.105 152.056  0.00  0.00     0.183 C 
HETATM    5  C   UNK     0     153.810 158.672 151.436  0.00  0.00     0.204 C 
HETATM    6  C   UNK     0     153.241 157.729 150.377  0.00  0.00     0.291 C 
ENDROOT
BRANCH   2   7
HETATM    7  C   UNK     0     153.980 154.398 151.775  0.00  0.00     0.205 C 
BRANCH   7   8
HETATM    8  O   UNK     0     153.849 153.593 150.617  0.00  0.00    -0.356 OA
BRANCH   8   9
HETATM    9  C   UNK     0     152.842 152.599 150.776  0.00  0.00     0.290 C 
HETATM   10  O   UNK     0     152.932 151.579 149.775  0.00  0.00    -0.356 OA
HETATM   11  C   UNK     0     152.640 152.040 148.458  0.00  0.00     0.205 C 
HETATM   12  C   UNK     0     151.219 152.584 148.382  0.00  0.00     0.173 C 
HETATM   13  C   UNK     0     151.021 153.716 149.392  0.00  0.00     0.182 C 
HETATM   14  C   UNK     0     151.454 153.258 150.789  0.00  0.00     0.204 C 
BRANCH  12  15
HETATM   15  O   UNK     0     150.937 153.053 147.072  0.00  0.00    -0.391 OA
HETATM   16  H   UNK     0     151.324 152.419 146.443  0.00  0.00     0.210 HD
ENDBRANCH  12  15
BRANCH  13  17
HETATM   17  O   UNK     0     151.800 154.843 148.996  0.00  0.00    -0.390 OA
HETATM   18  H   UNK     0     151.249 155.636 149.116  0.00  0.00     0.210 HD
ENDBRANCH  13  17
BRANCH  14  19
HETATM   19  O   UNK     0     150.518 152.304 151.286  0.00  0.00    -0.388 OA
HETATM   20  H   UNK     0     150.479 151.559 150.663  0.00  0.00     0.210 HD
ENDBRANCH  14  19
ENDBRANCH   8   9
ENDBRANCH   7   8
ENDBRANCH   2   7
BRANCH   6  21
HETATM   21  O   UNK     0     151.984 158.254 149.950  0.00  0.00    -0.355 OA
BRANCH  21  22
HETATM   22  C   UNK     0     151.105 158.445 151.048  0.00  0.00     0.198 C 
BRANCH  22  23
HETATM   23  C   UNK     0     149.859 157.654 150.809  0.00  0.00     0.000 C 
HETATM   24  C   UNK     0     148.795 158.136 150.148  0.00  0.00     0.009 C 
BRANCH  24  25
HETATM   25  C   UNK     0     147.555 157.390 149.876  0.00  0.00    -0.036 A 
HETATM   26  C   UNK     0     146.436 158.074 149.428  0.00  0.00     0.011 A 
HETATM   27  C   UNK     0     145.260 157.368 149.170  0.00  0.00     0.001 A 
HETATM   28  C   UNK     0     145.220 155.987 149.364  0.00  0.00     0.000 A 
HETATM   29  C   UNK     0     146.354 155.313 149.815  0.00  0.00     0.001 A 
HETATM   30  C   UNK     0     147.530 156.019 150.073  0.00  0.00     0.011 A 
ENDBRANCH  24  25
ENDBRANCH  22  23
ENDBRANCH  21  22
ENDBRANCH   6  21
BRANCH   3  31
HETATM   31  O   UNK     0     156.162 156.092 152.834  0.00  0.00    -0.390 OA
HETATM   32  H   UNK     0     156.812 156.816 152.859  0.00  0.00     0.210 HD
ENDBRANCH   3  31
BRANCH   5  33
HETATM   33  O   UNK     0     154.102 159.922 150.813  0.00  0.00    -0.388 OA
HETATM   34  H   UNK     0     155.037 159.917 150.550  0.00  0.00     0.210 HD
ENDBRANCH   5  33
BRANCH   4  35
HETATM   35  O   UNK     0     155.428 158.861 153.220  0.00  0.00    -0.390 OA
HETATM   36  H   UNK     0     156.045 159.559 152.943  0.00  0.00     0.210 HD
ENDBRANCH   4  35
TORSDOF 13
ENDMDL
MODEL 10
REMARK VINA RESULT:      -7.8      3.933      7.050
REMARK  13 active torsions:
REMARK  status: ('A' for Active; 'I' for Inactive)
REMARK    1  A    between atoms: O_2  and  C_16 
REMARK    2  A    between atoms: O_2  and  C_17 
REMARK    3  A    between atoms: O_4  and  C_12 
REMARK    4  A    between atoms: O_5  and  C_13 
REMARK    5  A    between atoms: O_6  and  C_15 
REMARK    6  A    between atoms: O_6  and  C_22 
REMARK    7  A    between atoms: O_7  and  C_14 
REMARK    8  A    between atoms: O_8  and  C_18 
REMARK    9  A    between atoms: O_9  and  C_19 
REMARK   10  A    between atoms: O_10  and  C_20 
REMARK   11  A    between atoms: C_11  and  C_16 
REMARK   12  A    between atoms: C_22  and  C_23 
REMARK   13  A    between atoms: C_24  and  C_25 
ROOT
HETATM    1  O   UNK     0     151.650 154.971 151.447  0.00  0.00    -0.348 OA
HETATM    2  C   UNK     0     152.457 153.793 151.401  0.00  0.00     0.180 C 
HETATM    3  C   UNK     0     153.120 153.561 152.761  0.00  0.00     0.180 C 
HETATM    4  C   UNK     0     153.927 154.786 153.188  0.00  0.00     0.183 C 
HETATM    5  C   UNK     0     153.100 156.066 153.058  0.00  0.00     0.204 C 
HETATM    6  C   UNK     0     152.414 156.148 151.695  0.00  0.00     0.291 C 
ENDROOT
BRANCH   2   7
HETATM    7  C   UNK     0     151.552 152.630 151.007  0.00  0.00     0.205 C 
BRANCH   7   8
HETATM    8  O   UNK     0     151.170 152.796 149.654  0.00  0.00    -0.356 OA
BRANCH   8   9
HETATM    9  C   UNK     0     152.300 152.959 148.802  0.00  0.00     0.290 C 
HETATM   10  O   UNK     0     152.098 153.998 147.837  0.00  0.00    -0.356 OA
HETATM   11  C   UNK     0     151.087 153.702 146.877  0.00  0.00     0.205 C 
HETATM   12  C   UNK     0     151.448 152.452 146.085  0.00  0.00     0.173 C 
HETATM   13  C   UNK     0     151.650 151.260 147.022  0.00  0.00     0.182 C 
HETATM   14  C   UNK     0     152.645 151.622 148.129  0.00  0.00     0.204 C 
BRANCH  12  15
HETATM   15  O   UNK     0     150.432 152.154 145.139  0.00  0.00    -0.391 OA
HETATM   16  H   UNK     0     150.814 151.552 144.476  0.00  0.00     0.210 HD
ENDBRANCH  12  15
BRANCH  13  17
HETATM   17  O   UNK     0     150.398 150.900 147.604  0.00  0.00    -0.390 OA
HETATM   18  H   UNK     0     150.516 150.041 148.044  0.00  0.00     0.210 HD
ENDBRANCH  13  17
BRANCH  14  19
HETATM   19  O   UNK     0     153.953 151.734 147.572  0.00  0.00    -0.388 OA
HETATM   20  H   UNK     0     154.394 150.871 147.647  0.00  0.00     0.210 HD
ENDBRANCH  14  19
ENDBRANCH   8   9
ENDBRANCH   7   8
ENDBRANCH   2   7
BRANCH   6  21
HETATM   21  O   UNK     0     151.556 157.288 151.703  0.00  0.00    -0.355 OA
BRANCH  21  22
HETATM   22  C   UNK     0     151.437 157.854 150.407  0.00  0.00     0.198 C 
BRANCH  22  23
HETATM   23  C   UNK     0     150.082 157.531 149.863  0.00  0.00     0.000 C 
HETATM   24  C   UNK     0     148.993 157.396 150.634  0.00  0.00     0.009 C 
BRANCH  24  25
HETATM   25  C   UNK     0     147.637 157.093 150.143  0.00  0.00    -0.036 A 
HETATM   26  C   UNK     0     147.204 155.777 150.112  0.00  0.00     0.011 A 
HETATM   27  C   UNK     0     145.920 155.490 149.647  0.00  0.00     0.001 A 
HETATM   28  C   UNK     0     145.087 156.524 149.220  0.00  0.00     0.000 A 
HETATM   29  C   UNK     0     145.536 157.844 149.258  0.00  0.00     0.001 A 
HETATM   30  C   UNK     0     146.820 158.130 149.723  0.00  0.00     0.011 A 
ENDBRANCH  24  25
ENDBRANCH  22  23
ENDBRANCH  21  22
ENDBRANCH   6  21
BRANCH   3  31
HETATM   31  O   UNK     0     153.986 152.432 152.676  0.00  0.00    -0.390 OA
HETATM   32  H   UNK     0     154.803 152.713 152.229  0.00  0.00     0.210 HD
ENDBRANCH   3  31
BRANCH   5  33
HETATM   33  O   UNK     0     153.957 157.199 153.197  0.00  0.00    -0.388 OA
HETATM   34  H   UNK     0     153.742 157.638 154.037  0.00  0.00     0.210 HD
ENDBRANCH   5  33
BRANCH   4  35
HETATM   35  O   UNK     0     154.315 154.607 154.551  0.00  0.00    -0.390 OA
HETATM   36  H   UNK     0     154.958 153.878 154.577  0.00  0.00     0.210 HD
ENDBRANCH   4  35
TORSDOF 13
ENDMDL
