MODEL 1
REMARK VINA RESULT:   -10.467      0.000      0.000
REMARK INTER + INTRA:         -24.761
REMARK INTER:                 -20.993
REMARK INTRA:                  -3.768
REMARK UNBOUND:                -2.361
REMARK  26 active torsions:
REMARK  status: ('A' for Active; 'I' for Inactive)
REMARK    1  A    between atoms: O_2  and  C_29 
REMARK    2  A    between atoms: O_2  and  C_23 
REMARK    3  A    between atoms: O_3  and  C_24 
REMARK    4  A    between atoms: O_3  and  C_30 
REMARK    5  A    between atoms: O_4  and  C_26 
REMARK    6  A    between atoms: O_5  and  C_31 
REMARK    7  A    between atoms: O_5  and  C_27 
REMARK    8  A    between atoms: O_6  and  C_28 
REMARK    9  A    between atoms: O_6  and  C_34 
REMARK   10  A    between atoms: O_11  and  C_43 
REMARK   11  A    between atoms: O_12  and  C_44 
REMARK   12  A    between atoms: O_13  and  C_45 
REMARK   13  A    between atoms: O_14  and  C_46 
REMARK   14  A    between atoms: O_15  and  C_49 
REMARK   15  A    between atoms: O_16  and  C_50 
REMARK   16  A    between atoms: O_17  and  C_51 
REMARK   17  A    between atoms: O_18  and  C_52 
REMARK   18  A    between atoms: O_19  and  C_53 
REMARK   19  A    between atoms: O_20  and  C_54 
REMARK   20  A    between atoms: O_21  and  C_55 
REMARK   21  A    between atoms: O_22  and  C_56 
REMARK   22  A    between atoms: C_25  and  C_28 
REMARK   23  A    between atoms: C_29  and  C_32 
REMARK   24  A    between atoms: C_30  and  C_33 
REMARK   25  A    between atoms: C_31  and  C_35 
REMARK   26  A    between atoms: C_34  and  C_36 
ROOT
HETATM    1  O   UNL     1      80.400  24.707  35.878  1.00  0.00    -0.348 OA
HETATM    2  C   UNL     1      79.145  25.025  37.916  1.00  0.00     0.195 C 
HETATM    3  C   UNL     1      79.848  23.814  38.548  1.00  0.00     0.198 C 
HETATM    4  C   UNL     1      79.069  24.802  36.395  1.00  0.00     0.181 C 
HETATM    5  C   UNL     1      81.191  23.493  37.861  1.00  0.00     0.206 C 
HETATM    6  C   UNL     1      81.064  23.519  36.319  1.00  0.00     0.301 C 
ENDROOT
BRANCH   4   7
HETATM    7  C   UNL     1      78.301  25.941  35.705  1.00  0.00     0.213 C 
BRANCH   7   8
HETATM    8  O   UNL     1      79.204  26.926  35.180  1.00  0.00    -0.315 OA
BRANCH   8   9
HETATM    9  C   UNL     1      79.248  26.981  33.823  1.00  0.00     0.293 C 
HETATM   10  O   UNL     1      80.130  26.542  33.104  1.00  0.00    -0.259 OA
BRANCH   9  11
HETATM   11  C   UNL     1      78.040  27.665  33.314  1.00  0.00     0.045 A 
HETATM   12  C   UNL     1      77.133  27.006  32.465  1.00  0.00     0.057 A 
HETATM   13  C   UNL     1      75.984  27.675  32.059  1.00  0.00     0.102 A 
HETATM   14  C   UNL     1      75.746  28.979  32.480  1.00  0.00     0.132 A 
HETATM   15  C   UNL     1      76.650  29.625  33.314  1.00  0.00     0.102 A 
HETATM   16  C   UNL     1      77.797  28.976  33.745  1.00  0.00     0.057 A 
BRANCH  13  17
HETATM   17  O   UNL     1      75.048  27.088  31.253  1.00  0.00    -0.358 OA
HETATM   18  H   UNL     1      75.346  26.188  31.032  1.00  0.00     0.217 HD
ENDBRANCH  13  17
BRANCH  14  19
HETATM   19  O   UNL     1      74.615  29.642  32.087  1.00  0.00    -0.356 OA
HETATM   20  H   UNL     1      74.935  30.317  31.455  1.00  0.00     0.218 HD
ENDBRANCH  14  19
BRANCH  15  21
HETATM   21  O   UNL     1      76.412  30.904  33.724  1.00  0.00    -0.358 OA
HETATM   22  H   UNL     1      75.446  31.027  33.613  1.00  0.00     0.217 HD
ENDBRANCH  15  21
ENDBRANCH   9  11
ENDBRANCH   8   9
ENDBRANCH   7   8
ENDBRANCH   4   7
BRANCH   2  23
HETATM   23  O   UNL     1      77.791  25.138  38.418  1.00  0.00    -0.307 OA
BRANCH  23  24
HETATM   24  C   UNL     1      77.201  26.183  39.044  1.00  0.00     0.294 C 
HETATM   25  O   UNL     1      76.844  26.079  40.213  1.00  0.00    -0.259 OA
BRANCH  24  26
HETATM   26  C   UNL     1      77.015  27.480  38.354  1.00  0.00     0.045 A 
HETATM   27  C   UNL     1      75.781  27.876  37.816  1.00  0.00     0.057 A 
HETATM   28  C   UNL     1      75.688  29.091  37.146  1.00  0.00     0.102 A 
HETATM   29  C   UNL     1      76.784  29.943  37.086  1.00  0.00     0.132 A 
HETATM   30  C   UNL     1      77.981  29.585  37.690  1.00  0.00     0.102 A 
HETATM   31  C   UNL     1      78.108  28.359  38.328  1.00  0.00     0.057 A 
BRANCH  28  32
HETATM   32  O   UNL     1      74.538  29.490  36.527  1.00  0.00    -0.358 OA
HETATM   33  H   UNL     1      74.629  29.353  35.566  1.00  0.00     0.217 HD
ENDBRANCH  28  32
BRANCH  29  34
HETATM   34  O   UNL     1      76.696  31.144  36.437  1.00  0.00    -0.356 OA
HETATM   35  H   UNL     1      76.418  30.907  35.529  1.00  0.00     0.218 HD
ENDBRANCH  29  34
BRANCH  30  36
HETATM   36  O   UNL     1      79.045  30.436  37.656  1.00  0.00    -0.358 OA
HETATM   37  H   UNL     1      78.985  30.881  36.787  1.00  0.00     0.217 HD
ENDBRANCH  30  36
ENDBRANCH  24  26
ENDBRANCH  23  24
ENDBRANCH   2  23
BRANCH   6  38
HETATM   38  O   UNL     1      82.408  23.512  35.787  1.00  0.00    -0.283 OA
BRANCH  38  39
HETATM   39  C   UNL     1      83.221  24.585  35.672  1.00  0.00     0.295 C 
HETATM   40  O   UNL     1      83.462  25.103  34.588  1.00  0.00    -0.259 OA
BRANCH  39  41
HETATM   41  C   UNL     1      83.955  25.052  36.863  1.00  0.00     0.045 A 
HETATM   42  C   UNL     1      83.598  26.240  37.517  1.00  0.00     0.057 A 
HETATM   43  C   UNL     1      84.297  26.618  38.657  1.00  0.00     0.102 A 
HETATM   44  C   UNL     1      85.384  25.867  39.092  1.00  0.00     0.132 A 
HETATM   45  C   UNL     1      85.779  24.732  38.394  1.00  0.00     0.102 A 
HETATM   46  C   UNL     1      85.068  24.309  37.280  1.00  0.00     0.057 A 
BRANCH  43  47
HETATM   47  O   UNL     1      83.945  27.715  39.390  1.00  0.00    -0.358 OA
HETATM   48  H   UNL     1      83.146  27.504  39.906  1.00  0.00     0.217 HD
ENDBRANCH  43  47
BRANCH  44  49
HETATM   49  O   UNL     1      86.083  26.237  40.208  1.00  0.00    -0.356 OA
HETATM   50  H   UNL     1      86.639  25.458  40.418  1.00  0.00     0.218 HD
ENDBRANCH  44  49
BRANCH  45  51
HETATM   51  O   UNL     1      86.872  24.025  38.800  1.00  0.00    -0.358 OA
HETATM   52  H   UNL     1      87.632  24.465  38.368  1.00  0.00     0.217 HD
ENDBRANCH  45  51
ENDBRANCH  39  41
ENDBRANCH  38  39
ENDBRANCH   6  38
BRANCH   3  53
HETATM   53  O   UNL     1      79.974  23.936  39.995  1.00  0.00    -0.306 OA
BRANCH  53  54
HETATM   54  C   UNL     1      79.229  23.138  40.795  1.00  0.00     0.294 C 
HETATM   55  O   UNL     1      78.026  22.968  40.716  1.00  0.00    -0.259 OA
BRANCH  54  56
HETATM   56  C   UNL     1      80.071  22.535  41.849  1.00  0.00     0.045 A 
HETATM   57  C   UNL     1      80.720  21.321  41.567  1.00  0.00     0.057 A 
HETATM   58  C   UNL     1      81.553  20.760  42.527  1.00  0.00     0.102 A 
HETATM   59  C   UNL     1      81.761  21.412  43.739  1.00  0.00     0.132 A 
HETATM   60  C   UNL     1      81.121  22.615  44.008  1.00  0.00     0.102 A 
HETATM   61  C   UNL     1      80.260  23.180  43.078  1.00  0.00     0.057 A 
BRANCH  58  62
HETATM   62  O   UNL     1      82.196  19.571  42.327  1.00  0.00    -0.358 OA
HETATM   63  H   UNL     1      81.545  18.908  42.037  1.00  0.00     0.217 HD
ENDBRANCH  58  62
BRANCH  59  64
HETATM   64  O   UNL     1      82.600  20.879  44.680  1.00  0.00    -0.356 OA
HETATM   65  H   UNL     1      83.466  20.820  44.228  1.00  0.00     0.218 HD
ENDBRANCH  59  64
BRANCH  60  66
HETATM   66  O   UNL     1      81.344  23.260  45.188  1.00  0.00    -0.358 OA
HETATM   67  H   UNL     1      81.806  22.604  45.749  1.00  0.00     0.217 HD
ENDBRANCH  60  66
ENDBRANCH  54  56
ENDBRANCH  53  54
ENDBRANCH   3  53
BRANCH   5  68
HETATM   68  O   UNL     1      81.637  22.198  38.302  1.00  0.00    -0.388 OA
HETATM   69  H   UNL     1      82.562  22.108  38.005  1.00  0.00     0.210 HD
ENDBRANCH   5  68
TORSDOF 26
ENDMDL
MODEL 2
REMARK VINA RESULT:   -10.274      5.459      9.133
REMARK INTER + INTRA:         -24.346
REMARK INTER:                 -20.881
REMARK INTRA:                  -3.465
REMARK UNBOUND:                -2.361
REMARK  26 active torsions:
REMARK  status: ('A' for Active; 'I' for Inactive)
REMARK    1  A    between atoms: O_2  and  C_29 
REMARK    2  A    between atoms: O_2  and  C_23 
REMARK    3  A    between atoms: O_3  and  C_24 
REMARK    4  A    between atoms: O_3  and  C_30 
REMARK    5  A    between atoms: O_4  and  C_26 
REMARK    6  A    between atoms: O_5  and  C_31 
REMARK    7  A    between atoms: O_5  and  C_27 
REMARK    8  A    between atoms: O_6  and  C_28 
REMARK    9  A    between atoms: O_6  and  C_34 
REMARK   10  A    between atoms: O_11  and  C_43 
REMARK   11  A    between atoms: O_12  and  C_44 
REMARK   12  A    between atoms: O_13  and  C_45 
REMARK   13  A    between atoms: O_14  and  C_46 
REMARK   14  A    between atoms: O_15  and  C_49 
REMARK   15  A    between atoms: O_16  and  C_50 
REMARK   16  A    between atoms: O_17  and  C_51 
REMARK   17  A    between atoms: O_18  and  C_52 
REMARK   18  A    between atoms: O_19  and  C_53 
REMARK   19  A    between atoms: O_20  and  C_54 
REMARK   20  A    between atoms: O_21  and  C_55 
REMARK   21  A    between atoms: O_22  and  C_56 
REMARK   22  A    between atoms: C_25  and  C_28 
REMARK   23  A    between atoms: C_29  and  C_32 
REMARK   24  A    between atoms: C_30  and  C_33 
REMARK   25  A    between atoms: C_31  and  C_35 
REMARK   26  A    between atoms: C_34  and  C_36 
ROOT
HETATM    1  O   UNL     1      80.530  24.461  34.133  1.00  0.00    -0.348 OA
HETATM    2  C   UNL     1      79.817  22.839  32.493  1.00  0.00     0.195 C 
HETATM    3  C   UNL     1      81.191  22.913  31.809  1.00  0.00     0.198 C 
HETATM    4  C   UNL     1      79.526  24.201  33.146  1.00  0.00     0.181 C 
HETATM    5  C   UNL     1      82.288  23.436  32.759  1.00  0.00     0.206 C 
HETATM    6  C   UNL     1      81.815  24.682  33.547  1.00  0.00     0.301 C 
ENDROOT
BRANCH   4   7
HETATM    7  C   UNL     1      78.126  24.226  33.779  1.00  0.00     0.213 C 
BRANCH   7   8
HETATM    8  O   UNL     1      77.988  25.334  34.681  1.00  0.00    -0.315 OA
BRANCH   8   9
HETATM    9  C   UNL     1      77.721  26.521  34.076  1.00  0.00     0.293 C 
HETATM   10  O   UNL     1      77.261  26.681  32.958  1.00  0.00    -0.259 OA
BRANCH   9  11
HETATM   11  C   UNL     1      78.072  27.632  34.985  1.00  0.00     0.045 A 
HETATM   12  C   UNL     1      79.318  27.675  35.636  1.00  0.00     0.057 A 
HETATM   13  C   UNL     1      79.622  28.770  36.437  1.00  0.00     0.102 A 
HETATM   14  C   UNL     1      78.699  29.799  36.597  1.00  0.00     0.132 A 
HETATM   15  C   UNL     1      77.469  29.746  35.954  1.00  0.00     0.102 A 
HETATM   16  C   UNL     1      77.146  28.673  35.139  1.00  0.00     0.057 A 
BRANCH  13  17
HETATM   17  O   UNL     1      80.822  28.889  37.081  1.00  0.00    -0.358 OA
HETATM   18  H   UNL     1      80.671  28.813  38.040  1.00  0.00     0.217 HD
ENDBRANCH  13  17
BRANCH  14  19
HETATM   19  O   UNL     1      78.994  30.882  37.380  1.00  0.00    -0.356 OA
HETATM   20  H   UNL     1      79.236  31.584  36.743  1.00  0.00     0.218 HD
ENDBRANCH  14  19
BRANCH  15  21
HETATM   21  O   UNL     1      76.568  30.758  36.115  1.00  0.00    -0.358 OA
HETATM   22  H   UNL     1      76.402  31.091  35.208  1.00  0.00     0.217 HD
ENDBRANCH  15  21
ENDBRANCH   9  11
ENDBRANCH   8   9
ENDBRANCH   7   8
ENDBRANCH   4   7
BRANCH   2  23
HETATM   23  O   UNL     1      78.782  22.586  31.512  1.00  0.00    -0.307 OA
BRANCH  23  24
HETATM   24  C   UNL     1      77.797  21.657  31.536  1.00  0.00     0.294 C 
HETATM   25  O   UNL     1      76.630  22.000  31.692  1.00  0.00    -0.259 OA
BRANCH  24  26
HETATM   26  C   UNL     1      78.097  20.222  31.330  1.00  0.00     0.045 A 
HETATM   27  C   UNL     1      79.022  19.525  32.122  1.00  0.00     0.057 A 
HETATM   28  C   UNL     1      79.284  18.187  31.848  1.00  0.00     0.102 A 
HETATM   29  C   UNL     1      78.572  17.524  30.856  1.00  0.00     0.132 A 
HETATM   30  C   UNL     1      77.599  18.193  30.127  1.00  0.00     0.102 A 
HETATM   31  C   UNL     1      77.351  19.540  30.357  1.00  0.00     0.057 A 
BRANCH  28  32
HETATM   32  O   UNL     1      80.236  17.481  32.526  1.00  0.00    -0.358 OA
HETATM   33  H   UNL     1      80.213  17.736  33.467  1.00  0.00     0.217 HD
ENDBRANCH  28  32
BRANCH  29  34
HETATM   34  O   UNL     1      78.818  16.205  30.587  1.00  0.00    -0.356 OA
HETATM   35  H   UNL     1      77.961  15.863  30.259  1.00  0.00     0.218 HD
ENDBRANCH  29  34
BRANCH  30  36
HETATM   36  O   UNL     1      76.881  17.533  29.176  1.00  0.00    -0.358 OA
HETATM   37  H   UNL     1      77.452  16.788  28.901  1.00  0.00     0.217 HD
ENDBRANCH  30  36
ENDBRANCH  24  26
ENDBRANCH  23  24
ENDBRANCH   2  23
BRANCH   6  38
HETATM   38  O   UNL     1      82.777  24.900  34.603  1.00  0.00    -0.283 OA
BRANCH  38  39
HETATM   39  C   UNL     1      82.746  24.342  35.833  1.00  0.00     0.295 C 
HETATM   40  O   UNL     1      81.970  23.436  36.114  1.00  0.00    -0.259 OA
BRANCH  39  41
HETATM   41  C   UNL     1      83.562  24.939  36.906  1.00  0.00     0.045 A 
HETATM   42  C   UNL     1      83.205  26.160  37.496  1.00  0.00     0.057 A 
HETATM   43  C   UNL     1      83.987  26.663  38.530  1.00  0.00     0.102 A 
HETATM   44  C   UNL     1      85.148  26.001  38.913  1.00  0.00     0.132 A 
HETATM   45  C   UNL     1      85.535  24.830  38.272  1.00  0.00     0.102 A 
HETATM   46  C   UNL     1      84.747  24.284  37.270  1.00  0.00     0.057 A 
BRANCH  43  47
HETATM   47  O   UNL     1      83.647  27.801  39.204  1.00  0.00    -0.358 OA
HETATM   48  H   UNL     1      84.430  28.379  39.257  1.00  0.00     0.217 HD
ENDBRANCH  43  47
BRANCH  44  49
HETATM   49  O   UNL     1      85.927  26.494  39.924  1.00  0.00    -0.356 OA
HETATM   50  H   UNL     1      86.551  27.102  39.476  1.00  0.00     0.218 HD
ENDBRANCH  44  49
BRANCH  45  51
HETATM   51  O   UNL     1      86.698  24.210  38.624  1.00  0.00    -0.358 OA
HETATM   52  H   UNL     1      86.470  23.260  38.677  1.00  0.00     0.217 HD
ENDBRANCH  45  51
ENDBRANCH  39  41
ENDBRANCH  38  39
ENDBRANCH   6  38
BRANCH   3  53
HETATM   53  O   UNL     1      81.561  21.660  31.164  1.00  0.00    -0.306 OA
BRANCH  53  54
HETATM   54  C   UNL     1      81.542  21.580  29.813  1.00  0.00     0.294 C 
HETATM   55  O   UNL     1      81.531  22.521  29.040  1.00  0.00    -0.259 OA
BRANCH  54  56
HETATM   56  C   UNL     1      81.465  20.169  29.382  1.00  0.00     0.045 A 
HETATM   57  C   UNL     1      80.458  19.807  28.471  1.00  0.00     0.057 A 
HETATM   58  C   UNL     1      80.396  18.495  28.015  1.00  0.00     0.102 A 
HETATM   59  C   UNL     1      81.340  17.564  28.438  1.00  0.00     0.132 A 
HETATM   60  C   UNL     1      82.337  17.930  29.333  1.00  0.00     0.102 A 
HETATM   61  C   UNL     1      82.402  19.226  29.827  1.00  0.00     0.057 A 
BRANCH  58  62
HETATM   62  O   UNL     1      79.429  18.072  27.148  1.00  0.00    -0.358 OA
HETATM   63  H   UNL     1      78.715  18.732  27.128  1.00  0.00     0.217 HD
ENDBRANCH  58  62
BRANCH  59  64
HETATM   64  O   UNL     1      81.302  16.277  27.975  1.00  0.00    -0.356 OA
HETATM   65  H   UNL     1      82.065  15.840  28.407  1.00  0.00     0.218 HD
ENDBRANCH  59  64
BRANCH  60  66
HETATM   66  O   UNL     1      83.272  17.020  29.727  1.00  0.00    -0.358 OA
HETATM   67  H   UNL     1      84.127  17.396  29.432  1.00  0.00     0.217 HD
ENDBRANCH  60  66
ENDBRANCH  54  56
ENDBRANCH  53  54
ENDBRANCH   3  53
BRANCH   5  68
HETATM   68  O   UNL     1      83.458  23.753  31.982  1.00  0.00    -0.388 OA
HETATM   69  H   UNL     1      83.168  24.370  31.284  1.00  0.00     0.210 HD
ENDBRANCH   5  68
TORSDOF 26
ENDMDL
MODEL 3
REMARK VINA RESULT:   -10.264     15.275     18.674
REMARK INTER + INTRA:         -24.325
REMARK INTER:                 -20.608
REMARK INTRA:                  -3.717
REMARK UNBOUND:                -2.361
REMARK  26 active torsions:
REMARK  status: ('A' for Active; 'I' for Inactive)
REMARK    1  A    between atoms: O_2  and  C_29 
REMARK    2  A    between atoms: O_2  and  C_23 
REMARK    3  A    between atoms: O_3  and  C_24 
REMARK    4  A    between atoms: O_3  and  C_30 
REMARK    5  A    between atoms: O_4  and  C_26 
REMARK    6  A    between atoms: O_5  and  C_31 
REMARK    7  A    between atoms: O_5  and  C_27 
REMARK    8  A    between atoms: O_6  and  C_28 
REMARK    9  A    between atoms: O_6  and  C_34 
REMARK   10  A    between atoms: O_11  and  C_43 
REMARK   11  A    between atoms: O_12  and  C_44 
REMARK   12  A    between atoms: O_13  and  C_45 
REMARK   13  A    between atoms: O_14  and  C_46 
REMARK   14  A    between atoms: O_15  and  C_49 
REMARK   15  A    between atoms: O_16  and  C_50 
REMARK   16  A    between atoms: O_17  and  C_51 
REMARK   17  A    between atoms: O_18  and  C_52 
REMARK   18  A    between atoms: O_19  and  C_53 
REMARK   19  A    between atoms: O_20  and  C_54 
REMARK   20  A    between atoms: O_21  and  C_55 
REMARK   21  A    between atoms: O_22  and  C_56 
REMARK   22  A    between atoms: C_25  and  C_28 
REMARK   23  A    between atoms: C_29  and  C_32 
REMARK   24  A    between atoms: C_30  and  C_33 
REMARK   25  A    between atoms: C_31  and  C_35 
REMARK   26  A    between atoms: C_34  and  C_36 
ROOT
HETATM    1  O   UNL     1      89.974  12.697  38.128  1.00  0.00    -0.348 OA
HETATM    2  C   UNL     1      89.498  12.736  40.495  1.00  0.00     0.195 C 
HETATM    3  C   UNL     1      88.188  11.971  40.254  1.00  0.00     0.198 C 
HETATM    4  C   UNL     1      89.805  13.578  39.244  1.00  0.00     0.181 C 
HETATM    5  C   UNL     1      88.205  11.190  38.923  1.00  0.00     0.206 C 
HETATM    6  C   UNL     1      88.750  12.055  37.761  1.00  0.00     0.301 C 
ENDROOT
BRANCH   4   7
HETATM    7  C   UNL     1      91.063  14.437  39.448  1.00  0.00     0.213 C 
BRANCH   7   8
HETATM    8  O   UNL     1      92.220  13.615  39.661  1.00  0.00    -0.315 OA
BRANCH   8   9
HETATM    9  C   UNL     1      93.172  13.723  38.697  1.00  0.00     0.293 C 
HETATM   10  O   UNL     1      92.995  14.033  37.530  1.00  0.00    -0.259 OA
BRANCH   9  11
HETATM   11  C   UNL     1      94.498  13.408  39.270  1.00  0.00     0.045 A 
HETATM   12  C   UNL     1      95.189  14.342  40.061  1.00  0.00     0.057 A 
HETATM   13  C   UNL     1      96.408  13.977  40.623  1.00  0.00     0.102 A 
HETATM   14  C   UNL     1      96.935  12.711  40.392  1.00  0.00     0.132 A 
HETATM   15  C   UNL     1      96.247  11.797  39.604  1.00  0.00     0.102 A 
HETATM   16  C   UNL     1      95.024  12.129  39.044  1.00  0.00     0.057 A 
BRANCH  13  17
HETATM   17  O   UNL     1      97.123  14.826  41.422  1.00  0.00    -0.358 OA
HETATM   18  H   UNL     1      96.525  15.206  42.089  1.00  0.00     0.217 HD
ENDBRANCH  13  17
BRANCH  14  19
HETATM   19  O   UNL     1      98.131  12.344  40.945  1.00  0.00    -0.356 OA
HETATM   20  H   UNL     1      98.515  13.182  41.274  1.00  0.00     0.218 HD
ENDBRANCH  14  19
BRANCH  15  21
HETATM   21  O   UNL     1      96.769  10.556  39.381  1.00  0.00    -0.358 OA
HETATM   22  H   UNL     1      97.072  10.250  40.261  1.00  0.00     0.217 HD
ENDBRANCH  15  21
ENDBRANCH   9  11
ENDBRANCH   8   9
ENDBRANCH   7   8
ENDBRANCH   4   7
BRANCH   2  23
HETATM   23  O   UNL     1      89.350  13.643  41.615  1.00  0.00    -0.307 OA
BRANCH  23  24
HETATM   24  C   UNL     1      90.028  13.664  42.787  1.00  0.00     0.294 C 
HETATM   25  O   UNL     1      89.961  12.712  43.556  1.00  0.00    -0.259 OA
BRANCH  24  26
HETATM   26  C   UNL     1      90.896  14.810  43.145  1.00  0.00     0.045 A 
HETATM   27  C   UNL     1      92.273  14.669  43.372  1.00  0.00     0.057 A 
HETATM   28  C   UNL     1      93.021  15.781  43.743  1.00  0.00     0.102 A 
HETATM   29  C   UNL     1      92.426  17.035  43.804  1.00  0.00     0.132 A 
HETATM   30  C   UNL     1      91.080  17.186  43.499  1.00  0.00     0.102 A 
HETATM   31  C   UNL     1      90.307  16.083  43.166  1.00  0.00     0.057 A 
BRANCH  28  32
HETATM   32  O   UNL     1      94.345  15.690  44.062  1.00  0.00    -0.358 OA
HETATM   33  H   UNL     1      94.636  14.765  43.960  1.00  0.00     0.217 HD
ENDBRANCH  28  32
BRANCH  29  34
HETATM   34  O   UNL     1      93.158  18.135  44.159  1.00  0.00    -0.356 OA
HETATM   35  H   UNL     1      93.945  18.098  43.578  1.00  0.00     0.218 HD
ENDBRANCH  29  34
BRANCH  30  36
HETATM   36  O   UNL     1      90.507  18.422  43.530  1.00  0.00    -0.358 OA
HETATM   37  H   UNL     1      89.861  18.419  42.794  1.00  0.00     0.217 HD
ENDBRANCH  30  36
ENDBRANCH  24  26
ENDBRANCH  23  24
ENDBRANCH   2  23
BRANCH   6  38
HETATM   38  O   UNL     1      89.007  11.159  36.657  1.00  0.00    -0.283 OA
BRANCH  38  39
HETATM   39  C   UNL     1      89.224  11.523  35.373  1.00  0.00     0.295 C 
HETATM   40  O   UNL     1      88.712  12.525  34.888  1.00  0.00    -0.259 OA
BRANCH  39  41
HETATM   41  C   UNL     1      89.977  10.611  34.493  1.00  0.00     0.045 A 
HETATM   42  C   UNL     1      90.858   9.655  35.020  1.00  0.00     0.057 A 
HETATM   43  C   UNL     1      91.516   8.793  34.151  1.00  0.00     0.102 A 
HETATM   44  C   UNL     1      91.360   8.935  32.776  1.00  0.00     0.132 A 
HETATM   45  C   UNL     1      90.545   9.934  32.259  1.00  0.00     0.102 A 
HETATM   46  C   UNL     1      89.841  10.776  33.108  1.00  0.00     0.057 A 
BRANCH  43  47
HETATM   47  O   UNL     1      92.318   7.785  34.603  1.00  0.00    -0.358 OA
HETATM   48  H   UNL     1      92.786   8.092  35.400  1.00  0.00     0.217 HD
ENDBRANCH  43  47
BRANCH  44  49
HETATM   49  O   UNL     1      92.012   8.096  31.913  1.00  0.00    -0.356 OA
HETATM   50  H   UNL     1      91.499   7.262  31.949  1.00  0.00     0.218 HD
ENDBRANCH  44  49
BRANCH  45  51
HETATM   51  O   UNL     1      90.432  10.095  30.909  1.00  0.00    -0.358 OA
HETATM   52  H   UNL     1      90.620   9.211  30.533  1.00  0.00     0.217 HD
ENDBRANCH  45  51
ENDBRANCH  39  41
ENDBRANCH  38  39
ENDBRANCH   6  38
BRANCH   3  53
HETATM   53  O   UNL     1      87.815  11.135  41.387  1.00  0.00    -0.306 OA
BRANCH  53  54
HETATM   54  C   UNL     1      86.581  11.266  41.929  1.00  0.00     0.294 C 
HETATM   55  O   UNL     1      85.537  10.883  41.432  1.00  0.00    -0.259 OA
BRANCH  54  56
HETATM   56  C   UNL     1      86.654  12.013  43.201  1.00  0.00     0.045 A 
HETATM   57  C   UNL     1      87.064  11.322  44.354  1.00  0.00     0.057 A 
HETATM   58  C   UNL     1      87.184  12.015  45.553  1.00  0.00     0.102 A 
HETATM   59  C   UNL     1      86.928  13.382  45.597  1.00  0.00     0.132 A 
HETATM   60  C   UNL     1      86.529  14.060  44.453  1.00  0.00     0.102 A 
HETATM   61  C   UNL     1      86.372  13.384  43.250  1.00  0.00     0.057 A 
BRANCH  58  62
HETATM   62  O   UNL     1      87.555  11.400  46.715  1.00  0.00    -0.358 OA
HETATM   63  H   UNL     1      87.950  10.537  46.500  1.00  0.00     0.217 HD
ENDBRANCH  58  62
BRANCH  59  64
HETATM   64  O   UNL     1      87.069  14.079  46.767  1.00  0.00    -0.356 OA
HETATM   65  H   UNL     1      87.313  13.399  47.428  1.00  0.00     0.218 HD
ENDBRANCH  59  64
BRANCH  60  66
HETATM   66  O   UNL     1      86.300  15.404  44.496  1.00  0.00    -0.358 OA
HETATM   67  H   UNL     1      85.525  15.544  43.914  1.00  0.00     0.217 HD
ENDBRANCH  60  66
ENDBRANCH  54  56
ENDBRANCH  53  54
ENDBRANCH   3  53
BRANCH   5  68
HETATM   68  O   UNL     1      86.866  10.750  38.631  1.00  0.00    -0.388 OA
HETATM   69  H   UNL     1      86.447  10.550  39.489  1.00  0.00     0.210 HD
ENDBRANCH   5  68
TORSDOF 26
ENDMDL
MODEL 4
REMARK VINA RESULT:   -10.151      1.684      3.362
REMARK INTER + INTRA:         -24.085
REMARK INTER:                 -20.379
REMARK INTRA:                  -3.705
REMARK UNBOUND:                -2.361
REMARK  26 active torsions:
REMARK  status: ('A' for Active; 'I' for Inactive)
REMARK    1  A    between atoms: O_2  and  C_29 
REMARK    2  A    between atoms: O_2  and  C_23 
REMARK    3  A    between atoms: O_3  and  C_24 
REMARK    4  A    between atoms: O_3  and  C_30 
REMARK    5  A    between atoms: O_4  and  C_26 
REMARK    6  A    between atoms: O_5  and  C_31 
REMARK    7  A    between atoms: O_5  and  C_27 
REMARK    8  A    between atoms: O_6  and  C_28 
REMARK    9  A    between atoms: O_6  and  C_34 
REMARK   10  A    between atoms: O_11  and  C_43 
REMARK   11  A    between atoms: O_12  and  C_44 
REMARK   12  A    between atoms: O_13  and  C_45 
REMARK   13  A    between atoms: O_14  and  C_46 
REMARK   14  A    between atoms: O_15  and  C_49 
REMARK   15  A    between atoms: O_16  and  C_50 
REMARK   16  A    between atoms: O_17  and  C_51 
REMARK   17  A    between atoms: O_18  and  C_52 
REMARK   18  A    between atoms: O_19  and  C_53 
REMARK   19  A    between atoms: O_20  and  C_54 
REMARK   20  A    between atoms: O_21  and  C_55 
REMARK   21  A    between atoms: O_22  and  C_56 
REMARK   22  A    between atoms: C_25  and  C_28 
REMARK   23  A    between atoms: C_29  and  C_32 
REMARK   24  A    between atoms: C_30  and  C_33 
REMARK   25  A    between atoms: C_31  and  C_35 
REMARK   26  A    between atoms: C_34  and  C_36 
ROOT
HETATM    1  O   UNL     1      80.661  24.826  35.777  1.00  0.00    -0.348 OA
HETATM    2  C   UNL     1      79.358  25.128  37.788  1.00  0.00     0.195 C 
HETATM    3  C   UNL     1      80.018  23.890  38.413  1.00  0.00     0.198 C 
HETATM    4  C   UNL     1      79.318  24.938  36.261  1.00  0.00     0.181 C 
HETATM    5  C   UNL     1      81.373  23.555  37.755  1.00  0.00     0.206 C 
HETATM    6  C   UNL     1      81.287  23.616  36.210  1.00  0.00     0.301 C 
ENDROOT
BRANCH   4   7
HETATM    7  C   UNL     1      78.593  26.107  35.575  1.00  0.00     0.213 C 
BRANCH   7   8
HETATM    8  O   UNL     1      79.357  26.607  34.467  1.00  0.00    -0.315 OA
BRANCH   8   9
HETATM    9  C   UNL     1      78.811  26.353  33.249  1.00  0.00     0.293 C 
HETATM   10  O   UNL     1      77.849  26.913  32.750  1.00  0.00    -0.259 OA
BRANCH   9  11
HETATM   11  C   UNL     1      79.568  25.273  32.581  1.00  0.00     0.045 A 
HETATM   12  C   UNL     1      80.974  25.267  32.572  1.00  0.00     0.057 A 
HETATM   13  C   UNL     1      81.638  24.199  31.979  1.00  0.00     0.102 A 
HETATM   14  C   UNL     1      80.918  23.162  31.395  1.00  0.00     0.132 A 
HETATM   15  C   UNL     1      79.529  23.179  31.404  1.00  0.00     0.102 A 
HETATM   16  C   UNL     1      78.842  24.224  32.000  1.00  0.00     0.057 A 
BRANCH  13  17
HETATM   17  O   UNL     1      83.003  24.116  31.954  1.00  0.00    -0.358 OA
HETATM   18  H   UNL     1      83.362  24.963  31.637  1.00  0.00     0.217 HD
ENDBRANCH  13  17
BRANCH  14  19
HETATM   19  O   UNL     1      81.566  22.106  30.814  1.00  0.00    -0.356 OA
HETATM   20  H   UNL     1      80.915  21.739  30.182  1.00  0.00     0.218 HD
ENDBRANCH  14  19
BRANCH  15  21
HETATM   21  O   UNL     1      78.828  22.159  30.830  1.00  0.00    -0.358 OA
HETATM   22  H   UNL     1      79.408  21.375  30.918  1.00  0.00     0.217 HD
ENDBRANCH  15  21
ENDBRANCH   9  11
ENDBRANCH   8   9
ENDBRANCH   7   8
ENDBRANCH   4   7
BRANCH   2  23
HETATM   23  O   UNL     1      77.993  25.260  38.255  1.00  0.00    -0.307 OA
BRANCH  23  24
HETATM   24  C   UNL     1      77.410  26.300  38.896  1.00  0.00     0.294 C 
HETATM   25  O   UNL     1      77.265  26.271  40.113  1.00  0.00    -0.259 OA
BRANCH  24  26
HETATM   26  C   UNL     1      76.979  27.507  38.154  1.00  0.00     0.045 A 
HETATM   27  C   UNL     1      75.666  27.677  37.691  1.00  0.00     0.057 A 
HETATM   28  C   UNL     1      75.339  28.819  36.967  1.00  0.00     0.102 A 
HETATM   29  C   UNL     1      76.283  29.821  36.779  1.00  0.00     0.132 A 
HETATM   30  C   UNL     1      77.559  29.688  37.308  1.00  0.00     0.102 A 
HETATM   31  C   UNL     1      77.918  28.538  37.999  1.00  0.00     0.057 A 
BRANCH  28  32
HETATM   32  O   UNL     1      74.103  28.999  36.417  1.00  0.00    -0.358 OA
HETATM   33  H   UNL     1      73.424  28.717  37.057  1.00  0.00     0.217 HD
ENDBRANCH  28  32
BRANCH  29  34
HETATM   34  O   UNL     1      75.967  30.951  36.077  1.00  0.00    -0.356 OA
HETATM   35  H   UNL     1      76.525  31.649  36.478  1.00  0.00     0.218 HD
ENDBRANCH  29  34
BRANCH  30  36
HETATM   36  O   UNL     1      78.473  30.686  37.149  1.00  0.00    -0.358 OA
HETATM   37  H   UNL     1      78.561  30.795  36.181  1.00  0.00     0.217 HD
ENDBRANCH  30  36
ENDBRANCH  24  26
ENDBRANCH  23  24
ENDBRANCH   2  23
BRANCH   6  38
HETATM   38  O   UNL     1      82.645  23.591  35.715  1.00  0.00    -0.283 OA
BRANCH  38  39
HETATM   39  C   UNL     1      83.474  24.654  35.619  1.00  0.00     0.295 C 
HETATM   40  O   UNL     1      83.850  25.088  34.537  1.00  0.00    -0.259 OA
BRANCH  39  41
HETATM   41  C   UNL     1      84.059  25.212  36.853  1.00  0.00     0.045 A 
HETATM   42  C   UNL     1      85.036  24.511  37.575  1.00  0.00     0.057 A 
HETATM   43  C   UNL     1      85.584  25.096  38.710  1.00  0.00     0.102 A 
HETATM   44  C   UNL     1      85.109  26.322  39.162  1.00  0.00     0.132 A 
HETATM   45  C   UNL     1      84.087  26.975  38.484  1.00  0.00     0.102 A 
HETATM   46  C   UNL     1      83.558  26.433  37.322  1.00  0.00     0.057 A 
BRANCH  43  47
HETATM   47  O   UNL     1      86.599  24.507  39.408  1.00  0.00    -0.358 OA
HETATM   48  H   UNL     1      86.303  23.629  39.709  1.00  0.00     0.217 HD
ENDBRANCH  43  47
BRANCH  44  49
HETATM   49  O   UNL     1      85.637  26.901  40.284  1.00  0.00    -0.356 OA
HETATM   50  H   UNL     1      84.936  26.804  40.962  1.00  0.00     0.218 HD
ENDBRANCH  44  49
BRANCH  45  51
HETATM   51  O   UNL     1      83.596  28.156  38.958  1.00  0.00    -0.358 OA
HETATM   52  H   UNL     1      82.947  28.447  38.286  1.00  0.00     0.217 HD
ENDBRANCH  45  51
ENDBRANCH  39  41
ENDBRANCH  38  39
ENDBRANCH   6  38
BRANCH   3  53
HETATM   53  O   UNL     1      80.108  23.980  39.864  1.00  0.00    -0.306 OA
BRANCH  53  54
HETATM   54  C   UNL     1      79.369  23.141  40.627  1.00  0.00     0.294 C 
HETATM   55  O   UNL     1      78.165  22.978  40.552  1.00  0.00    -0.259 OA
BRANCH  54  56
HETATM   56  C   UNL     1      80.220  22.477  41.636  1.00  0.00     0.045 A 
HETATM   57  C   UNL     1      80.346  23.081  42.898  1.00  0.00     0.057 A 
HETATM   58  C   UNL     1      81.104  22.451  43.878  1.00  0.00     0.102 A 
HETATM   59  C   UNL     1      81.704  21.223  43.615  1.00  0.00     0.132 A 
HETATM   60  C   UNL     1      81.570  20.629  42.367  1.00  0.00     0.102 A 
HETATM   61  C   UNL     1      80.844  21.253  41.362  1.00  0.00     0.057 A 
BRANCH  58  62
HETATM   62  O   UNL     1      81.287  22.995  45.118  1.00  0.00    -0.358 OA
HETATM   63  H   UNL     1      81.472  22.279  45.750  1.00  0.00     0.217 HD
ENDBRANCH  58  62
BRANCH  59  64
HETATM   64  O   UNL     1      82.431  20.583  44.582  1.00  0.00    -0.356 OA
HETATM   65  H   UNL     1      82.353  21.160  45.368  1.00  0.00     0.218 HD
ENDBRANCH  59  64
BRANCH  60  66
HETATM   66  O   UNL     1      82.141  19.415  42.121  1.00  0.00    -0.358 OA
HETATM   67  H   UNL     1      82.764  19.277  42.863  1.00  0.00     0.217 HD
ENDBRANCH  60  66
ENDBRANCH  54  56
ENDBRANCH  53  54
ENDBRANCH   3  53
BRANCH   5  68
HETATM   68  O   UNL     1      81.780  22.242  38.180  1.00  0.00    -0.388 OA
HETATM   69  H   UNL     1      81.270  22.043  38.988  1.00  0.00     0.210 HD
ENDBRANCH   5  68
TORSDOF 26
ENDMDL
MODEL 5
REMARK VINA RESULT:   -10.149     15.435     19.429
REMARK INTER + INTRA:         -24.081
REMARK INTER:                 -19.692
REMARK INTRA:                  -4.388
REMARK UNBOUND:                -2.361
REMARK  26 active torsions:
REMARK  status: ('A' for Active; 'I' for Inactive)
REMARK    1  A    between atoms: O_2  and  C_29 
REMARK    2  A    between atoms: O_2  and  C_23 
REMARK    3  A    between atoms: O_3  and  C_24 
REMARK    4  A    between atoms: O_3  and  C_30 
REMARK    5  A    between atoms: O_4  and  C_26 
REMARK    6  A    between atoms: O_5  and  C_31 
REMARK    7  A    between atoms: O_5  and  C_27 
REMARK    8  A    between atoms: O_6  and  C_28 
REMARK    9  A    between atoms: O_6  and  C_34 
REMARK   10  A    between atoms: O_11  and  C_43 
REMARK   11  A    between atoms: O_12  and  C_44 
REMARK   12  A    between atoms: O_13  and  C_45 
REMARK   13  A    between atoms: O_14  and  C_46 
REMARK   14  A    between atoms: O_15  and  C_49 
REMARK   15  A    between atoms: O_16  and  C_50 
REMARK   16  A    between atoms: O_17  and  C_51 
REMARK   17  A    between atoms: O_18  and  C_52 
REMARK   18  A    between atoms: O_19  and  C_53 
REMARK   19  A    between atoms: O_20  and  C_54 
REMARK   20  A    between atoms: O_21  and  C_55 
REMARK   21  A    between atoms: O_22  and  C_56 
REMARK   22  A    between atoms: C_25  and  C_28 
REMARK   23  A    between atoms: C_29  and  C_32 
REMARK   24  A    between atoms: C_30  and  C_33 
REMARK   25  A    between atoms: C_31  and  C_35 
REMARK   26  A    between atoms: C_34  and  C_36 
ROOT
HETATM    1  O   UNL     1      92.296  12.835  39.588  1.00  0.00    -0.348 OA
HETATM    2  C   UNL     1      90.463  12.024  38.240  1.00  0.00     0.195 C 
HETATM    3  C   UNL     1      90.932  12.892  37.063  1.00  0.00     0.198 C 
HETATM    4  C   UNL     1      90.869  12.722  39.550  1.00  0.00     0.181 C 
HETATM    5  C   UNL     1      92.424  13.270  37.174  1.00  0.00     0.206 C 
HETATM    6  C   UNL     1      92.787  13.746  38.601  1.00  0.00     0.301 C 
ENDROOT
BRANCH   4   7
HETATM    7  C   UNL     1      90.356  11.947  40.775  1.00  0.00     0.213 C 
BRANCH   7   8
HETATM    8  O   UNL     1      90.721  12.611  41.994  1.00  0.00    -0.315 OA
BRANCH   8   9
HETATM    9  C   UNL     1      89.961  13.698  42.291  1.00  0.00     0.293 C 
HETATM   10  O   UNL     1      88.753  13.801  42.155  1.00  0.00    -0.259 OA
BRANCH   9  11
HETATM   11  C   UNL     1      90.821  14.775  42.825  1.00  0.00     0.045 A 
HETATM   12  C   UNL     1      92.176  14.545  43.124  1.00  0.00     0.057 A 
HETATM   13  C   UNL     1      92.956  15.605  43.570  1.00  0.00     0.102 A 
HETATM   14  C   UNL     1      92.397  16.869  43.727  1.00  0.00     0.132 A 
HETATM   15  C   UNL     1      91.057  17.087  43.435  1.00  0.00     0.102 A 
HETATM   16  C   UNL     1      90.260  16.050  42.975  1.00  0.00     0.057 A 
BRANCH  13  17
HETATM   17  O   UNL     1      94.285  15.459  43.858  1.00  0.00    -0.358 OA
HETATM   18  H   UNL     1      94.533  14.527  43.727  1.00  0.00     0.217 HD
ENDBRANCH  13  17
BRANCH  14  19
HETATM   19  O   UNL     1      93.161  17.918  44.162  1.00  0.00    -0.356 OA
HETATM   20  H   UNL     1      93.344  17.714  45.101  1.00  0.00     0.218 HD
ENDBRANCH  14  19
BRANCH  15  21
HETATM   21  O   UNL     1      90.514  18.329  43.590  1.00  0.00    -0.358 OA
HETATM   22  H   UNL     1      90.399  18.668  42.678  1.00  0.00     0.217 HD
ENDBRANCH  15  21
ENDBRANCH   9  11
ENDBRANCH   8   9
ENDBRANCH   7   8
ENDBRANCH   4   7
BRANCH   2  23
HETATM   23  O   UNL     1      89.020  11.901  38.230  1.00  0.00    -0.307 OA
BRANCH  23  24
HETATM   24  C   UNL     1      88.262  10.782  38.152  1.00  0.00     0.294 C 
HETATM   25  O   UNL     1      87.469  10.511  39.047  1.00  0.00    -0.259 OA
BRANCH  24  26
HETATM   26  C   UNL     1      88.339   9.889  36.973  1.00  0.00     0.045 A 
HETATM   27  C   UNL     1      89.508   9.193  36.631  1.00  0.00     0.057 A 
HETATM   28  C   UNL     1      89.521   8.401  35.488  1.00  0.00     0.102 A 
HETATM   29  C   UNL     1      88.362   8.234  34.740  1.00  0.00     0.132 A 
HETATM   30  C   UNL     1      87.185   8.859  35.126  1.00  0.00     0.102 A 
HETATM   31  C   UNL     1      87.160   9.685  36.241  1.00  0.00     0.057 A 
BRANCH  28  32
HETATM   32  O   UNL     1      90.653   7.771  35.056  1.00  0.00    -0.358 OA
HETATM   33  H   UNL     1      90.419   6.884  34.727  1.00  0.00     0.217 HD
ENDBRANCH  28  32
BRANCH  29  34
HETATM   34  O   UNL     1      88.366   7.449  33.619  1.00  0.00    -0.356 OA
HETATM   35  H   UNL     1      87.531   7.680  33.161  1.00  0.00     0.218 HD
ENDBRANCH  29  34
BRANCH  30  36
HETATM   36  O   UNL     1      86.042   8.668  34.408  1.00  0.00    -0.358 OA
HETATM   37  H   UNL     1      85.846   9.539  34.009  1.00  0.00     0.217 HD
ENDBRANCH  30  36
ENDBRANCH  24  26
ENDBRANCH  23  24
ENDBRANCH   2  23
BRANCH   6  38
HETATM   38  O   UNL     1      94.230  13.779  38.677  1.00  0.00    -0.283 OA
BRANCH  38  39
HETATM   39  C   UNL     1      95.023  12.793  39.153  1.00  0.00     0.295 C 
HETATM   40  O   UNL     1      94.957  11.646  38.728  1.00  0.00    -0.259 OA
BRANCH  39  41
HETATM   41  C   UNL     1      95.885  13.073  40.316  1.00  0.00     0.045 A 
HETATM   42  C   UNL     1      97.002  13.914  40.207  1.00  0.00     0.057 A 
HETATM   43  C   UNL     1      97.761  14.176  41.342  1.00  0.00     0.102 A 
HETATM   44  C   UNL     1      97.459  13.548  42.545  1.00  0.00     0.132 A 
HETATM   45  C   UNL     1      96.396  12.657  42.626  1.00  0.00     0.102 A 
HETATM   46  C   UNL     1      95.596  12.415  41.520  1.00  0.00     0.057 A 
BRANCH  43  47
HETATM   47  O   UNL     1      98.808  15.053  41.323  1.00  0.00    -0.358 OA
HETATM   48  H   UNL     1      98.457  15.957  41.228  1.00  0.00     0.217 HD
ENDBRANCH  43  47
BRANCH  44  49
HETATM   49  O   UNL     1      98.207  13.794  43.664  1.00  0.00    -0.356 OA
HETATM   50  H   UNL     1      97.752  14.543  44.102  1.00  0.00     0.218 HD
ENDBRANCH  44  49
BRANCH  45  51
HETATM   51  O   UNL     1      96.134  12.010  43.798  1.00  0.00    -0.358 OA
HETATM   52  H   UNL     1      95.606  12.646  44.324  1.00  0.00     0.217 HD
ENDBRANCH  45  51
ENDBRANCH  39  41
ENDBRANCH  38  39
ENDBRANCH   6  38
BRANCH   3  53
HETATM   53  O   UNL     1      90.598  12.306  35.771  1.00  0.00    -0.306 OA
BRANCH  53  54
HETATM   54  C   UNL     1      89.685  12.919  34.983  1.00  0.00     0.294 C 
HETATM   55  O   UNL     1      89.221  14.032  35.156  1.00  0.00    -0.259 OA
BRANCH  54  56
HETATM   56  C   UNL     1      89.257  12.018  33.893  1.00  0.00     0.045 A 
HETATM   57  C   UNL     1      87.914  12.063  33.482  1.00  0.00     0.057 A 
HETATM   58  C   UNL     1      87.501  11.257  32.428  1.00  0.00     0.102 A 
HETATM   59  C   UNL     1      88.417  10.440  31.772  1.00  0.00     0.132 A 
HETATM   60  C   UNL     1      89.745  10.405  32.180  1.00  0.00     0.102 A 
HETATM   61  C   UNL     1      90.176  11.177  33.250  1.00  0.00     0.057 A 
BRANCH  58  62
HETATM   62  O   UNL     1      86.206  11.236  31.993  1.00  0.00    -0.358 OA
HETATM   63  H   UNL     1      85.815  10.373  32.217  1.00  0.00     0.217 HD
ENDBRANCH  58  62
BRANCH  59  64
HETATM   64  O   UNL     1      88.025   9.663  30.716  1.00  0.00    -0.356 OA
HETATM   65  H   UNL     1      87.516   8.934  31.126  1.00  0.00     0.218 HD
ENDBRANCH  59  64
BRANCH  60  66
HETATM   66  O   UNL     1      90.643   9.619  31.521  1.00  0.00    -0.358 OA
HETATM   67  H   UNL     1      91.226  10.248  31.048  1.00  0.00     0.217 HD
ENDBRANCH  60  66
ENDBRANCH  54  56
ENDBRANCH  53  54
ENDBRANCH   3  53
BRANCH   5  68
HETATM   68  O   UNL     1      92.710  14.304  36.216  1.00  0.00    -0.388 OA
HETATM   69  H   UNL     1      91.988  14.957  36.290  1.00  0.00     0.210 HD
ENDBRANCH   5  68
TORSDOF 26
ENDMDL
MODEL 6
REMARK VINA RESULT:   -10.148      4.910      9.124
REMARK INTER + INTRA:         -24.078
REMARK INTER:                 -20.089
REMARK INTRA:                  -3.989
REMARK UNBOUND:                -2.361
REMARK  26 active torsions:
REMARK  status: ('A' for Active; 'I' for Inactive)
REMARK    1  A    between atoms: O_2  and  C_29 
REMARK    2  A    between atoms: O_2  and  C_23 
REMARK    3  A    between atoms: O_3  and  C_24 
REMARK    4  A    between atoms: O_3  and  C_30 
REMARK    5  A    between atoms: O_4  and  C_26 
REMARK    6  A    between atoms: O_5  and  C_31 
REMARK    7  A    between atoms: O_5  and  C_27 
REMARK    8  A    between atoms: O_6  and  C_28 
REMARK    9  A    between atoms: O_6  and  C_34 
REMARK   10  A    between atoms: O_11  and  C_43 
REMARK   11  A    between atoms: O_12  and  C_44 
REMARK   12  A    between atoms: O_13  and  C_45 
REMARK   13  A    between atoms: O_14  and  C_46 
REMARK   14  A    between atoms: O_15  and  C_49 
REMARK   15  A    between atoms: O_16  and  C_50 
REMARK   16  A    between atoms: O_17  and  C_51 
REMARK   17  A    between atoms: O_18  and  C_52 
REMARK   18  A    between atoms: O_19  and  C_53 
REMARK   19  A    between atoms: O_20  and  C_54 
REMARK   20  A    between atoms: O_21  and  C_55 
REMARK   21  A    between atoms: O_22  and  C_56 
REMARK   22  A    between atoms: C_25  and  C_28 
REMARK   23  A    between atoms: C_29  and  C_32 
REMARK   24  A    between atoms: C_30  and  C_33 
REMARK   25  A    between atoms: C_31  and  C_35 
REMARK   26  A    between atoms: C_34  and  C_36 
ROOT
HETATM    1  O   UNL     1      79.005  21.067  36.475  1.00  0.00    -0.348 OA
HETATM    2  C   UNL     1      80.516  22.143  34.929  1.00  0.00     0.195 C 
HETATM    3  C   UNL     1      80.968  23.113  36.031  1.00  0.00     0.198 C 
HETATM    4  C   UNL     1      79.059  21.735  35.209  1.00  0.00     0.181 C 
HETATM    5  C   UNL     1      80.701  22.556  37.445  1.00  0.00     0.206 C 
HETATM    6  C   UNL     1      79.279  21.955  37.562  1.00  0.00     0.301 C 
ENDROOT
BRANCH   4   7
HETATM    7  C   UNL     1      78.513  20.827  34.096  1.00  0.00     0.213 C 
BRANCH   7   8
HETATM    8  O   UNL     1      79.446  19.782  33.780  1.00  0.00    -0.315 OA
BRANCH   8   9
HETATM    9  C   UNL     1      78.892  18.545  33.684  1.00  0.00     0.293 C 
HETATM   10  O   UNL     1      78.125  18.026  34.478  1.00  0.00    -0.259 OA
BRANCH   9  11
HETATM   11  C   UNL     1      79.356  17.887  32.444  1.00  0.00     0.045 A 
HETATM   12  C   UNL     1      80.724  17.804  32.132  1.00  0.00     0.057 A 
HETATM   13  C   UNL     1      81.112  17.126  30.982  1.00  0.00     0.102 A 
HETATM   14  C   UNL     1      80.156  16.552  30.151  1.00  0.00     0.132 A 
HETATM   15  C   UNL     1      78.806  16.643  30.463  1.00  0.00     0.102 A 
HETATM   16  C   UNL     1      78.393  17.301  31.611  1.00  0.00     0.057 A 
BRANCH  13  17
HETATM   17  O   UNL     1      82.426  16.987  30.629  1.00  0.00    -0.358 OA
HETATM   18  H   UNL     1      82.629  16.038  30.550  1.00  0.00     0.217 HD
ENDBRANCH  13  17
BRANCH  14  19
HETATM   19  O   UNL     1      80.532  15.879  29.019  1.00  0.00    -0.356 OA
HETATM   20  H   UNL     1      80.619  14.948  29.307  1.00  0.00     0.218 HD
ENDBRANCH  14  19
BRANCH  15  21
HETATM   21  O   UNL     1      77.873  16.077  29.645  1.00  0.00    -0.358 OA
HETATM   22  H   UNL     1      77.038  16.542  29.859  1.00  0.00     0.217 HD
ENDBRANCH  15  21
ENDBRANCH   9  11
ENDBRANCH   8   9
ENDBRANCH   7   8
ENDBRANCH   4   7
BRANCH   2  23
HETATM   23  O   UNL     1      80.554  22.799  33.638  1.00  0.00    -0.307 OA
BRANCH  23  24
HETATM   24  C   UNL     1      81.446  22.645  32.632  1.00  0.00     0.294 C 
HETATM   25  O   UNL     1      82.572  23.121  32.728  1.00  0.00    -0.259 OA
BRANCH  24  26
HETATM   26  C   UNL     1      81.103  21.866  31.420  1.00  0.00     0.045 A 
HETATM   27  C   UNL     1      82.015  21.004  30.795  1.00  0.00     0.057 A 
HETATM   28  C   UNL     1      81.638  20.333  29.636  1.00  0.00     0.102 A 
HETATM   29  C   UNL     1      80.341  20.450  29.152  1.00  0.00     0.132 A 
HETATM   30  C   UNL     1      79.414  21.240  29.818  1.00  0.00     0.102 A 
HETATM   31  C   UNL     1      79.782  21.950  30.952  1.00  0.00     0.057 A 
BRANCH  28  32
HETATM   32  O   UNL     1      82.510  19.550  28.936  1.00  0.00    -0.358 OA
HETATM   33  H   UNL     1      83.374  19.998  28.888  1.00  0.00     0.217 HD
ENDBRANCH  28  32
BRANCH  29  34
HETATM   34  O   UNL     1      79.960  19.785  28.019  1.00  0.00    -0.356 OA
HETATM   35  H   UNL     1      79.753  20.498  27.379  1.00  0.00     0.218 HD
ENDBRANCH  29  34
BRANCH  30  36
HETATM   36  O   UNL     1      78.135  21.328  29.358  1.00  0.00    -0.358 OA
HETATM   37  H   UNL     1      77.576  21.313  30.161  1.00  0.00     0.217 HD
ENDBRANCH  30  36
ENDBRANCH  24  26
ENDBRANCH  23  24
ENDBRANCH   2  23
BRANCH   6  38
HETATM   38  O   UNL     1      79.242  21.205  38.796  1.00  0.00    -0.283 OA
BRANCH  38  39
HETATM   39  C   UNL     1      78.924  21.696  40.015  1.00  0.00     0.295 C 
HETATM   40  O   UNL     1      77.936  22.398  40.193  1.00  0.00    -0.259 OA
BRANCH  39  41
HETATM   41  C   UNL     1      79.873  21.506  41.128  1.00  0.00     0.045 A 
HETATM   42  C   UNL     1      80.634  20.334  41.240  1.00  0.00     0.057 A 
HETATM   43  C   UNL     1      81.542  20.219  42.287  1.00  0.00     0.102 A 
HETATM   44  C   UNL     1      81.630  21.219  43.249  1.00  0.00     0.132 A 
HETATM   45  C   UNL     1      80.817  22.343  43.172  1.00  0.00     0.102 A 
HETATM   46  C   UNL     1      79.938  22.503  42.111  1.00  0.00     0.057 A 
BRANCH  43  47
HETATM   47  O   UNL     1      82.376  19.143  42.405  1.00  0.00    -0.358 OA
HETATM   48  H   UNL     1      82.878  19.227  43.235  1.00  0.00     0.217 HD
ENDBRANCH  43  47
BRANCH  44  49
HETATM   49  O   UNL     1      82.514  21.109  44.287  1.00  0.00    -0.356 OA
HETATM   50  H   UNL     1      82.713  20.150  44.337  1.00  0.00     0.218 HD
ENDBRANCH  44  49
BRANCH  45  51
HETATM   51  O   UNL     1      80.878  23.299  44.143  1.00  0.00    -0.358 OA
HETATM   52  H   UNL     1      81.751  23.174  44.566  1.00  0.00     0.217 HD
ENDBRANCH  45  51
ENDBRANCH  39  41
ENDBRANCH  38  39
ENDBRANCH   6  38
BRANCH   3  53
HETATM   53  O   UNL     1      82.346  23.554  35.855  1.00  0.00    -0.306 OA
BRANCH  53  54
HETATM   54  C   UNL     1      82.621  24.879  35.849  1.00  0.00     0.294 C 
HETATM   55  O   UNL     1      82.199  25.694  35.050  1.00  0.00    -0.259 OA
BRANCH  54  56
HETATM   56  C   UNL     1      83.581  25.211  36.922  1.00  0.00     0.045 A 
HETATM   57  C   UNL     1      83.360  26.377  37.673  1.00  0.00     0.057 A 
HETATM   58  C   UNL     1      84.224  26.685  38.718  1.00  0.00     0.102 A 
HETATM   59  C   UNL     1      85.275  25.828  39.029  1.00  0.00     0.132 A 
HETATM   60  C   UNL     1      85.484  24.673  38.287  1.00  0.00     0.102 A 
HETATM   61  C   UNL     1      84.654  24.360  37.219  1.00  0.00     0.057 A 
BRANCH  58  62
HETATM   62  O   UNL     1      84.080  27.815  39.472  1.00  0.00    -0.358 OA
HETATM   63  H   UNL     1      83.855  27.557  40.383  1.00  0.00     0.217 HD
ENDBRANCH  58  62
BRANCH  59  64
HETATM   64  O   UNL     1      86.116  26.109  40.073  1.00  0.00    -0.356 OA
HETATM   65  H   UNL     1      85.930  27.045  40.290  1.00  0.00     0.218 HD
ENDBRANCH  59  64
BRANCH  60  66
HETATM   66  O   UNL     1      86.503  23.825  38.609  1.00  0.00    -0.358 OA
HETATM   67  H   UNL     1      86.089  23.142  39.176  1.00  0.00     0.217 HD
ENDBRANCH  60  66
ENDBRANCH  54  56
ENDBRANCH  53  54
ENDBRANCH   3  53
BRANCH   5  68
HETATM   68  O   UNL     1      80.872  23.620  38.399  1.00  0.00    -0.388 OA
HETATM   69  H   UNL     1      80.675  23.240  39.276  1.00  0.00     0.210 HD
ENDBRANCH   5  68
TORSDOF 26
ENDMDL
MODEL 7
REMARK VINA RESULT:   -10.015     15.281     19.236
REMARK INTER + INTRA:         -23.792
REMARK INTER:                 -19.376
REMARK INTRA:                  -4.416
REMARK UNBOUND:                -2.361
REMARK  26 active torsions:
REMARK  status: ('A' for Active; 'I' for Inactive)
REMARK    1  A    between atoms: O_2  and  C_29 
REMARK    2  A    between atoms: O_2  and  C_23 
REMARK    3  A    between atoms: O_3  and  C_24 
REMARK    4  A    between atoms: O_3  and  C_30 
REMARK    5  A    between atoms: O_4  and  C_26 
REMARK    6  A    between atoms: O_5  and  C_31 
REMARK    7  A    between atoms: O_5  and  C_27 
REMARK    8  A    between atoms: O_6  and  C_28 
REMARK    9  A    between atoms: O_6  and  C_34 
REMARK   10  A    between atoms: O_11  and  C_43 
REMARK   11  A    between atoms: O_12  and  C_44 
REMARK   12  A    between atoms: O_13  and  C_45 
REMARK   13  A    between atoms: O_14  and  C_46 
REMARK   14  A    between atoms: O_15  and  C_49 
REMARK   15  A    between atoms: O_16  and  C_50 
REMARK   16  A    between atoms: O_17  and  C_51 
REMARK   17  A    between atoms: O_18  and  C_52 
REMARK   18  A    between atoms: O_19  and  C_53 
REMARK   19  A    between atoms: O_20  and  C_54 
REMARK   20  A    between atoms: O_21  and  C_55 
REMARK   21  A    between atoms: O_22  and  C_56 
REMARK   22  A    between atoms: C_25  and  C_28 
REMARK   23  A    between atoms: C_29  and  C_32 
REMARK   24  A    between atoms: C_30  and  C_33 
REMARK   25  A    between atoms: C_31  and  C_35 
REMARK   26  A    between atoms: C_34  and  C_36 
ROOT
HETATM    1  O   UNL     1      93.010   9.951  36.956  1.00  0.00    -0.348 OA
HETATM    2  C   UNL     1      92.467  11.944  38.207  1.00  0.00     0.195 C 
HETATM    3  C   UNL     1      93.783  11.821  38.991  1.00  0.00     0.198 C 
HETATM    4  C   UNL     1      92.010  10.531  37.802  1.00  0.00     0.181 C 
HETATM    5  C   UNL     1      94.834  10.979  38.239  1.00  0.00     0.206 C 
HETATM    6  C   UNL     1      94.221   9.679  37.666  1.00  0.00     0.301 C 
ENDROOT
BRANCH   4   7
HETATM    7  C   UNL     1      90.652  10.572  37.083  1.00  0.00     0.213 C 
BRANCH   7   8
HETATM    8  O   UNL     1      90.773  11.179  35.788  1.00  0.00    -0.315 OA
BRANCH   8   9
HETATM    9  C   UNL     1      89.670  11.860  35.381  1.00  0.00     0.293 C 
HETATM   10  O   UNL     1      89.036  12.675  36.032  1.00  0.00    -0.259 OA
BRANCH   9  11
HETATM   11  C   UNL     1      89.327  11.471  33.997  1.00  0.00     0.045 A 
HETATM   12  C   UNL     1      88.085  11.810  33.432  1.00  0.00     0.057 A 
HETATM   13  C   UNL     1      87.833  11.470  32.107  1.00  0.00     0.102 A 
HETATM   14  C   UNL     1      88.794  10.795  31.362  1.00  0.00     0.132 A 
HETATM   15  C   UNL     1      90.016  10.459  31.930  1.00  0.00     0.102 A 
HETATM   16  C   UNL     1      90.299  10.798  33.244  1.00  0.00     0.057 A 
BRANCH  13  17
HETATM   17  O   UNL     1      86.657  11.788  31.487  1.00  0.00    -0.358 OA
HETATM   18  H   UNL     1      86.089  10.997  31.468  1.00  0.00     0.217 HD
ENDBRANCH  13  17
BRANCH  14  19
HETATM   19  O   UNL     1      88.554  10.461  30.057  1.00  0.00    -0.356 OA
HETATM   20  H   UNL     1      89.371  10.007  29.767  1.00  0.00     0.218 HD
ENDBRANCH  14  19
BRANCH  15  21
HETATM   21  O   UNL     1      90.955   9.797  31.194  1.00  0.00    -0.358 OA
HETATM   22  H   UNL     1      91.488   9.306  31.852  1.00  0.00     0.217 HD
ENDBRANCH  15  21
ENDBRANCH   9  11
ENDBRANCH   8   9
ENDBRANCH   7   8
ENDBRANCH   4   7
BRANCH   2  23
HETATM   23  O   UNL     1      91.436  12.521  39.045  1.00  0.00    -0.307 OA
BRANCH  23  24
HETATM   24  C   UNL     1      91.007  13.804  39.103  1.00  0.00     0.294 C 
HETATM   25  O   UNL     1      91.208  14.564  38.162  1.00  0.00    -0.259 OA
BRANCH  24  26
HETATM   26  C   UNL     1      90.251  14.303  40.274  1.00  0.00     0.045 A 
HETATM   27  C   UNL     1      90.618  15.465  40.968  1.00  0.00     0.057 A 
HETATM   28  C   UNL     1      89.886  15.855  42.084  1.00  0.00     0.102 A 
HETATM   29  C   UNL     1      88.750  15.147  42.456  1.00  0.00     0.132 A 
HETATM   30  C   UNL     1      88.340  14.044  41.720  1.00  0.00     0.102 A 
HETATM   31  C   UNL     1      89.080  13.615  40.627  1.00  0.00     0.057 A 
BRANCH  28  32
HETATM   32  O   UNL     1      90.247  16.926  42.851  1.00  0.00    -0.358 OA
HETATM   33  H   UNL     1      89.962  16.771  43.770  1.00  0.00     0.217 HD
ENDBRANCH  28  32
BRANCH  29  34
HETATM   34  O   UNL     1      88.018  15.530  43.548  1.00  0.00    -0.356 OA
HETATM   35  H   UNL     1      87.274  16.042  43.171  1.00  0.00     0.218 HD
ENDBRANCH  29  34
BRANCH  30  36
HETATM   36  O   UNL     1      87.208  13.370  42.069  1.00  0.00    -0.358 OA
HETATM   37  H   UNL     1      87.459  12.425  42.046  1.00  0.00     0.217 HD
ENDBRANCH  30  36
ENDBRANCH  24  26
ENDBRANCH  23  24
ENDBRANCH   2  23
BRANCH   6  38
HETATM   38  O   UNL     1      95.188   9.131  36.743  1.00  0.00    -0.283 OA
BRANCH  38  39
HETATM   39  C   UNL     1      95.080   7.955  36.085  1.00  0.00     0.295 C 
HETATM   40  O   UNL     1      95.468   6.901  36.573  1.00  0.00    -0.259 OA
BRANCH  39  41
HETATM   41  C   UNL     1      94.619   7.964  34.684  1.00  0.00     0.045 A 
HETATM   42  C   UNL     1      95.484   8.314  33.637  1.00  0.00     0.057 A 
HETATM   43  C   UNL     1      95.011   8.271  32.330  1.00  0.00     0.102 A 
HETATM   44  C   UNL     1      93.679   7.962  32.079  1.00  0.00     0.132 A 
HETATM   45  C   UNL     1      92.809   7.691  33.128  1.00  0.00     0.102 A 
HETATM   46  C   UNL     1      93.268   7.681  34.437  1.00  0.00     0.057 A 
BRANCH  43  47
HETATM   47  O   UNL     1      95.824   8.515  31.260  1.00  0.00    -0.358 OA
HETATM   48  H   UNL     1      95.473   9.279  30.768  1.00  0.00     0.217 HD
ENDBRANCH  43  47
BRANCH  44  49
HETATM   49  O   UNL     1      93.205   7.926  30.796  1.00  0.00    -0.356 OA
HETATM   50  H   UNL     1      92.942   8.851  30.607  1.00  0.00     0.218 HD
ENDBRANCH  44  49
BRANCH  45  51
HETATM   51  O   UNL     1      91.494   7.432  32.876  1.00  0.00    -0.358 OA
HETATM   52  H   UNL     1      91.426   7.393  31.901  1.00  0.00     0.217 HD
ENDBRANCH  45  51
ENDBRANCH  39  41
ENDBRANCH  38  39
ENDBRANCH   6  38
BRANCH   3  53
HETATM   53  O   UNL     1      94.301  13.115  39.415  1.00  0.00    -0.306 OA
BRANCH  53  54
HETATM   54  C   UNL     1      94.978  13.206  40.583  1.00  0.00     0.294 C 
HETATM   55  O   UNL     1      96.148  12.917  40.758  1.00  0.00    -0.259 OA
BRANCH  54  56
HETATM   56  C   UNL     1      94.077  13.648  41.667  1.00  0.00     0.045 A 
HETATM   57  C   UNL     1      93.097  12.750  42.124  1.00  0.00     0.057 A 
HETATM   58  C   UNL     1      92.268  13.128  43.174  1.00  0.00     0.102 A 
HETATM   59  C   UNL     1      92.432  14.370  43.781  1.00  0.00     0.132 A 
HETATM   60  C   UNL     1      93.407  15.250  43.329  1.00  0.00     0.102 A 
HETATM   61  C   UNL     1      94.226  14.909  42.262  1.00  0.00     0.057 A 
BRANCH  58  62
HETATM   62  O   UNL     1      91.281  12.313  43.651  1.00  0.00    -0.358 OA
HETATM   63  H   UNL     1      90.688  12.837  44.217  1.00  0.00     0.217 HD
ENDBRANCH  58  62
BRANCH  59  64
HETATM   64  O   UNL     1      91.638  14.740  44.833  1.00  0.00    -0.356 OA
HETATM   65  H   UNL     1      92.267  14.926  45.559  1.00  0.00     0.218 HD
ENDBRANCH  59  64
BRANCH  60  66
HETATM   66  O   UNL     1      93.578  16.456  43.941  1.00  0.00    -0.358 OA
HETATM   67  H   UNL     1      94.324  16.319  44.560  1.00  0.00     0.217 HD
ENDBRANCH  60  66
ENDBRANCH  54  56
ENDBRANCH  53  54
ENDBRANCH   3  53
BRANCH   5  68
HETATM   68  O   UNL     1      95.908  10.667  39.144  1.00  0.00    -0.388 OA
HETATM   69  H   UNL     1      95.964  11.409  39.775  1.00  0.00     0.210 HD
ENDBRANCH   5  68
TORSDOF 26
ENDMDL
MODEL 8
REMARK VINA RESULT:    -9.988      3.114      6.719
REMARK INTER + INTRA:         -23.734
REMARK INTER:                 -21.373
REMARK INTRA:                  -2.361
REMARK UNBOUND:                -2.361
REMARK  26 active torsions:
REMARK  status: ('A' for Active; 'I' for Inactive)
REMARK    1  A    between atoms: O_2  and  C_29 
REMARK    2  A    between atoms: O_2  and  C_23 
REMARK    3  A    between atoms: O_3  and  C_24 
REMARK    4  A    between atoms: O_3  and  C_30 
REMARK    5  A    between atoms: O_4  and  C_26 
REMARK    6  A    between atoms: O_5  and  C_31 
REMARK    7  A    between atoms: O_5  and  C_27 
REMARK    8  A    between atoms: O_6  and  C_28 
REMARK    9  A    between atoms: O_6  and  C_34 
REMARK   10  A    between atoms: O_11  and  C_43 
REMARK   11  A    between atoms: O_12  and  C_44 
REMARK   12  A    between atoms: O_13  and  C_45 
REMARK   13  A    between atoms: O_14  and  C_46 
REMARK   14  A    between atoms: O_15  and  C_49 
REMARK   15  A    between atoms: O_16  and  C_50 
REMARK   16  A    between atoms: O_17  and  C_51 
REMARK   17  A    between atoms: O_18  and  C_52 
REMARK   18  A    between atoms: O_19  and  C_53 
REMARK   19  A    between atoms: O_20  and  C_54 
REMARK   20  A    between atoms: O_21  and  C_55 
REMARK   21  A    between atoms: O_22  and  C_56 
REMARK   22  A    between atoms: C_25  and  C_28 
REMARK   23  A    between atoms: C_29  and  C_32 
REMARK   24  A    between atoms: C_30  and  C_33 
REMARK   25  A    between atoms: C_31  and  C_35 
REMARK   26  A    between atoms: C_34  and  C_36 
ROOT
HETATM    1  O   UNL     1      79.122  22.074  36.346  1.00  0.00    -0.348 OA
HETATM    2  C   UNL     1      80.086  23.741  34.888  1.00  0.00     0.195 C 
HETATM    3  C   UNL     1      80.510  24.575  36.106  1.00  0.00     0.198 C 
HETATM    4  C   UNL     1      78.817  22.953  35.257  1.00  0.00     0.181 C 
HETATM    5  C   UNL     1      80.612  23.724  37.389  1.00  0.00     0.206 C 
HETATM    6  C   UNL     1      79.388  22.791  37.554  1.00  0.00     0.301 C 
ENDROOT
BRANCH   4   7
HETATM    7  C   UNL     1      78.288  22.157  34.053  1.00  0.00     0.213 C 
BRANCH   7   8
HETATM    8  O   UNL     1      79.139  21.039  33.761  1.00  0.00    -0.315 OA
BRANCH   8   9
HETATM    9  C   UNL     1      78.820  20.373  32.620  1.00  0.00     0.293 C 
HETATM   10  O   UNL     1      77.975  19.502  32.497  1.00  0.00    -0.259 OA
BRANCH   9  11
HETATM   11  C   UNL     1      79.660  20.864  31.507  1.00  0.00     0.045 A 
HETATM   12  C   UNL     1      79.662  20.219  30.257  1.00  0.00     0.057 A 
HETATM   13  C   UNL     1      80.426  20.752  29.225  1.00  0.00     0.102 A 
HETATM   14  C   UNL     1      81.185  21.900  29.436  1.00  0.00     0.132 A 
HETATM   15  C   UNL     1      81.181  22.527  30.675  1.00  0.00     0.102 A 
HETATM   16  C   UNL     1      80.417  22.024  31.716  1.00  0.00     0.057 A 
BRANCH  13  17
HETATM   17  O   UNL     1      80.458  20.191  27.979  1.00  0.00    -0.358 OA
HETATM   18  H   UNL     1      81.198  19.561  27.938  1.00  0.00     0.217 HD
ENDBRANCH  13  17
BRANCH  14  19
HETATM   19  O   UNL     1      81.936  22.432  28.423  1.00  0.00    -0.356 OA
HETATM   20  H   UNL     1      82.816  22.581  28.825  1.00  0.00     0.218 HD
ENDBRANCH  14  19
BRANCH  15  21
HETATM   21  O   UNL     1      81.927  23.652  30.876  1.00  0.00    -0.358 OA
HETATM   22  H   UNL     1      82.622  23.381  31.510  1.00  0.00     0.217 HD
ENDBRANCH  15  21
ENDBRANCH   9  11
ENDBRANCH   8   9
ENDBRANCH   7   8
ENDBRANCH   4   7
BRANCH   2  23
HETATM   23  O   UNL     1      79.763  24.608  33.774  1.00  0.00    -0.307 OA
BRANCH  23  24
HETATM   24  C   UNL     1      80.180  25.873  33.532  1.00  0.00     0.294 C 
HETATM   25  O   UNL     1      81.237  26.073  32.944  1.00  0.00    -0.259 OA
BRANCH  24  26
HETATM   26  C   UNL     1      79.355  27.037  33.930  1.00  0.00     0.045 A 
HETATM   27  C   UNL     1      79.789  27.981  34.872  1.00  0.00     0.057 A 
HETATM   28  C   UNL     1      78.946  29.029  35.228  1.00  0.00     0.102 A 
HETATM   29  C   UNL     1      77.720  29.185  34.592  1.00  0.00     0.132 A 
HETATM   30  C   UNL     1      77.327  28.296  33.602  1.00  0.00     0.102 A 
HETATM   31  C   UNL     1      78.135  27.221  33.261  1.00  0.00     0.057 A 
BRANCH  28  32
HETATM   32  O   UNL     1      79.277  29.927  36.201  1.00  0.00    -0.358 OA
HETATM   33  H   UNL     1      78.542  30.557  36.318  1.00  0.00     0.217 HD
ENDBRANCH  28  32
BRANCH  29  34
HETATM   34  O   UNL     1      76.889  30.219  34.930  1.00  0.00    -0.356 OA
HETATM   35  H   UNL     1      77.215  30.974  34.398  1.00  0.00     0.218 HD
ENDBRANCH  29  34
BRANCH  30  36
HETATM   36  O   UNL     1      76.138  28.471  32.959  1.00  0.00    -0.358 OA
HETATM   37  H   UNL     1      75.974  27.625  32.497  1.00  0.00     0.217 HD
ENDBRANCH  30  36
ENDBRANCH  24  26
ENDBRANCH  23  24
ENDBRANCH   2  23
BRANCH   6  38
HETATM   38  O   UNL     1      79.721  21.843  38.593  1.00  0.00    -0.283 OA
BRANCH  38  39
HETATM   39  C   UNL     1      79.162  21.783  39.822  1.00  0.00     0.295 C 
HETATM   40  O   UNL     1      77.980  22.045  40.009  1.00  0.00    -0.259 OA
BRANCH  39  41
HETATM   41  C   UNL     1      80.031  21.540  40.988  1.00  0.00     0.045 A 
HETATM   42  C   UNL     1      80.740  20.337  41.127  1.00  0.00     0.057 A 
HETATM   43  C   UNL     1      81.575  20.172  42.226  1.00  0.00     0.102 A 
HETATM   44  C   UNL     1      81.640  21.153  43.209  1.00  0.00     0.132 A 
HETATM   45  C   UNL     1      80.876  22.308  43.101  1.00  0.00     0.102 A 
HETATM   46  C   UNL     1      80.071  22.518  41.991  1.00  0.00     0.057 A 
BRANCH  43  47
HETATM   47  O   UNL     1      82.359  19.063  42.376  1.00  0.00    -0.358 OA
HETATM   48  H   UNL     1      82.638  19.002  43.308  1.00  0.00     0.217 HD
ENDBRANCH  43  47
BRANCH  44  49
HETATM   49  O   UNL     1      82.453  20.993  44.297  1.00  0.00    -0.356 OA
HETATM   50  H   UNL     1      81.841  21.006  45.063  1.00  0.00     0.218 HD
ENDBRANCH  44  49
BRANCH  45  51
HETATM   51  O   UNL     1      80.911  23.247  44.091  1.00  0.00    -0.358 OA
HETATM   52  H   UNL     1      81.743  23.071  44.575  1.00  0.00     0.217 HD
ENDBRANCH  45  51
ENDBRANCH  39  41
ENDBRANCH  38  39
ENDBRANCH   6  38
BRANCH   3  53
HETATM   53  O   UNL     1      81.714  25.355  35.856  1.00  0.00    -0.306 OA
BRANCH  53  54
HETATM   54  C   UNL     1      82.907  24.722  35.765  1.00  0.00     0.294 C 
HETATM   55  O   UNL     1      83.218  23.897  34.925  1.00  0.00    -0.259 OA
BRANCH  54  56
HETATM   56  C   UNL     1      83.786  25.117  36.885  1.00  0.00     0.045 A 
HETATM   57  C   UNL     1      83.457  26.273  37.612  1.00  0.00     0.057 A 
HETATM   58  C   UNL     1      84.244  26.638  38.698  1.00  0.00     0.102 A 
HETATM   59  C   UNL     1      85.325  25.847  39.074  1.00  0.00     0.132 A 
HETATM   60  C   UNL     1      85.640  24.701  38.355  1.00  0.00     0.102 A 
HETATM   61  C   UNL     1      84.889  24.332  37.247  1.00  0.00     0.057 A 
BRANCH  58  62
HETATM   62  O   UNL     1      83.993  27.762  39.433  1.00  0.00    -0.358 OA
HETATM   63  H   UNL     1      83.917  28.521  38.828  1.00  0.00     0.217 HD
ENDBRANCH  58  62
BRANCH  59  64
HETATM   64  O   UNL     1      86.089  26.183  40.158  1.00  0.00    -0.356 OA
HETATM   65  H   UNL     1      85.561  26.860  40.628  1.00  0.00     0.218 HD
ENDBRANCH  59  64
BRANCH  60  66
HETATM   66  O   UNL     1      86.688  23.917  38.740  1.00  0.00    -0.358 OA
HETATM   67  H   UNL     1      86.503  23.695  39.676  1.00  0.00     0.217 HD
ENDBRANCH  60  66
ENDBRANCH  54  56
ENDBRANCH  53  54
ENDBRANCH   3  53
BRANCH   5  68
HETATM   68  O   UNL     1      80.720  24.608  38.520  1.00  0.00    -0.388 OA
HETATM   69  H   UNL     1      80.076  24.292  39.181  1.00  0.00     0.210 HD
ENDBRANCH   5  68
TORSDOF 26
ENDMDL
MODEL 9
REMARK VINA RESULT:    -9.932     15.140     19.674
REMARK INTER + INTRA:         -23.616
REMARK INTER:                 -19.457
REMARK INTRA:                  -4.159
REMARK UNBOUND:                -2.361
REMARK  26 active torsions:
REMARK  status: ('A' for Active; 'I' for Inactive)
REMARK    1  A    between atoms: O_2  and  C_29 
REMARK    2  A    between atoms: O_2  and  C_23 
REMARK    3  A    between atoms: O_3  and  C_24 
REMARK    4  A    between atoms: O_3  and  C_30 
REMARK    5  A    between atoms: O_4  and  C_26 
REMARK    6  A    between atoms: O_5  and  C_31 
REMARK    7  A    between atoms: O_5  and  C_27 
REMARK    8  A    between atoms: O_6  and  C_28 
REMARK    9  A    between atoms: O_6  and  C_34 
REMARK   10  A    between atoms: O_11  and  C_43 
REMARK   11  A    between atoms: O_12  and  C_44 
REMARK   12  A    between atoms: O_13  and  C_45 
REMARK   13  A    between atoms: O_14  and  C_46 
REMARK   14  A    between atoms: O_15  and  C_49 
REMARK   15  A    between atoms: O_16  and  C_50 
REMARK   16  A    between atoms: O_17  and  C_51 
REMARK   17  A    between atoms: O_18  and  C_52 
REMARK   18  A    between atoms: O_19  and  C_53 
REMARK   19  A    between atoms: O_20  and  C_54 
REMARK   20  A    between atoms: O_21  and  C_55 
REMARK   21  A    between atoms: O_22  and  C_56 
REMARK   22  A    between atoms: C_25  and  C_28 
REMARK   23  A    between atoms: C_29  and  C_32 
REMARK   24  A    between atoms: C_30  and  C_33 
REMARK   25  A    between atoms: C_31  and  C_35 
REMARK   26  A    between atoms: C_34  and  C_36 
ROOT
HETATM    1  O   UNL     1      91.067  10.511  36.048  1.00  0.00    -0.348 OA
HETATM    2  C   UNL     1      91.343  11.453  38.254  1.00  0.00     0.195 C 
HETATM    3  C   UNL     1      90.589  12.719  37.818  1.00  0.00     0.198 C 
HETATM    4  C   UNL     1      92.054  10.864  37.023  1.00  0.00     0.181 C 
HETATM    5  C   UNL     1      89.685  12.467  36.593  1.00  0.00     0.206 C 
HETATM    6  C   UNL     1      90.423  11.662  35.496  1.00  0.00     0.301 C 
ENDROOT
BRANCH   4   7
HETATM    7  C   UNL     1      92.899   9.638  37.404  1.00  0.00     0.213 C 
BRANCH   7   8
HETATM    8  O   UNL     1      92.608   8.525  36.545  1.00  0.00    -0.315 OA
BRANCH   8   9
HETATM    9  C   UNL     1      93.697   7.801  36.175  1.00  0.00     0.293 C 
HETATM   10  O   UNL     1      94.416   7.141  36.907  1.00  0.00    -0.259 OA
BRANCH   9  11
HETATM   11  C   UNL     1      93.901   7.920  34.716  1.00  0.00     0.045 A 
HETATM   12  C   UNL     1      92.811   8.042  33.836  1.00  0.00     0.057 A 
HETATM   13  C   UNL     1      93.057   8.208  32.478  1.00  0.00     0.102 A 
HETATM   14  C   UNL     1      94.364   8.240  32.002  1.00  0.00     0.132 A 
HETATM   15  C   UNL     1      95.435   8.114  32.877  1.00  0.00     0.102 A 
HETATM   16  C   UNL     1      95.218   7.962  34.238  1.00  0.00     0.057 A 
BRANCH  13  17
HETATM   17  O   UNL     1      92.047   8.355  31.568  1.00  0.00    -0.358 OA
HETATM   18  H   UNL     1      91.500   9.117  31.829  1.00  0.00     0.217 HD
ENDBRANCH  13  17
BRANCH  14  19
HETATM   19  O   UNL     1      94.614   8.408  30.667  1.00  0.00    -0.356 OA
HETATM   20  H   UNL     1      95.042   9.286  30.607  1.00  0.00     0.218 HD
ENDBRANCH  14  19
BRANCH  15  21
HETATM   21  O   UNL     1      96.714   8.147  32.405  1.00  0.00    -0.358 OA
HETATM   22  H   UNL     1      96.996   9.079  32.511  1.00  0.00     0.217 HD
ENDBRANCH  15  21
ENDBRANCH   9  11
ENDBRANCH   8   9
ENDBRANCH   7   8
ENDBRANCH   4   7
BRANCH   2  23
HETATM   23  O   UNL     1      92.355  11.786  39.235  1.00  0.00    -0.307 OA
BRANCH  23  24
HETATM   24  C   UNL     1      92.340  11.584  40.574  1.00  0.00     0.294 C 
HETATM   25  O   UNL     1      91.964  10.511  41.032  1.00  0.00    -0.259 OA
BRANCH  24  26
HETATM   26  C   UNL     1      92.815  12.631  41.508  1.00  0.00     0.045 A 
HETATM   27  C   UNL     1      92.353  12.728  42.829  1.00  0.00     0.057 A 
HETATM   28  C   UNL     1      92.813  13.760  43.639  1.00  0.00     0.102 A 
HETATM   29  C   UNL     1      93.786  14.635  43.172  1.00  0.00     0.132 A 
HETATM   30  C   UNL     1      94.303  14.487  41.893  1.00  0.00     0.102 A 
HETATM   31  C   UNL     1      93.828  13.489  41.054  1.00  0.00     0.057 A 
BRANCH  28  32
HETATM   32  O   UNL     1      92.334  13.958  44.903  1.00  0.00    -0.358 OA
HETATM   33  H   UNL     1      92.314  13.105  45.374  1.00  0.00     0.217 HD
ENDBRANCH  28  32
BRANCH  29  34
HETATM   34  O   UNL     1      94.251  15.647  43.967  1.00  0.00    -0.356 OA
HETATM   35  H   UNL     1      95.205  15.704  43.752  1.00  0.00     0.218 HD
ENDBRANCH  29  34
BRANCH  30  36
HETATM   36  O   UNL     1      95.280  15.327  41.449  1.00  0.00    -0.358 OA
HETATM   37  H   UNL     1      96.114  14.828  41.564  1.00  0.00     0.217 HD
ENDBRANCH  30  36
ENDBRANCH  24  26
ENDBRANCH  23  24
ENDBRANCH   2  23
BRANCH   6  38
HETATM   38  O   UNL     1      89.420  11.226  34.551  1.00  0.00    -0.283 OA
BRANCH  38  39
HETATM   39  C   UNL     1      89.620  10.982  33.237  1.00  0.00     0.295 C 
HETATM   40  O   UNL     1      90.732  10.730  32.787  1.00  0.00    -0.259 OA
BRANCH  39  41
HETATM   41  C   UNL     1      88.498  11.170  32.300  1.00  0.00     0.045 A 
HETATM   42  C   UNL     1      87.427  12.022  32.610  1.00  0.00     0.057 A 
HETATM   43  C   UNL     1      86.412  12.194  31.676  1.00  0.00     0.102 A 
HETATM   44  C   UNL     1      86.422  11.469  30.490  1.00  0.00     0.132 A 
HETATM   45  C   UNL     1      87.447  10.569  30.224  1.00  0.00     0.102 A 
HETATM   46  C   UNL     1      88.497  10.415  31.119  1.00  0.00     0.057 A 
BRANCH  43  47
HETATM   47  O   UNL     1      85.387  13.074  31.878  1.00  0.00    -0.358 OA
HETATM   48  H   UNL     1      85.587  13.901  31.403  1.00  0.00     0.217 HD
ENDBRANCH  43  47
BRANCH  44  49
HETATM   49  O   UNL     1      85.421  11.626  29.571  1.00  0.00    -0.356 OA
HETATM   50  H   UNL     1      85.241  12.589  29.569  1.00  0.00     0.218 HD
ENDBRANCH  44  49
BRANCH  45  51
HETATM   51  O   UNL     1      87.428   9.829  29.079  1.00  0.00    -0.358 OA
HETATM   52  H   UNL     1      87.933   9.018  29.294  1.00  0.00     0.217 HD
ENDBRANCH  45  51
ENDBRANCH  39  41
ENDBRANCH  38  39
ENDBRANCH   6  38
BRANCH   3  53
HETATM   53  O   UNL     1      89.874  13.349  38.921  1.00  0.00    -0.306 OA
BRANCH  53  54
HETATM   54  C   UNL     1      90.362  14.490  39.460  1.00  0.00     0.294 C 
HETATM   55  O   UNL     1      91.117  15.274  38.914  1.00  0.00    -0.259 OA
BRANCH  54  56
HETATM   56  C   UNL     1      89.904  14.636  40.857  1.00  0.00     0.045 A 
HETATM   57  C   UNL     1      90.402  15.714  41.609  1.00  0.00     0.057 A 
HETATM   58  C   UNL     1      89.950  15.897  42.911  1.00  0.00     0.102 A 
HETATM   59  C   UNL     1      88.995  15.038  43.446  1.00  0.00     0.132 A 
HETATM   60  C   UNL     1      88.502  13.979  42.695  1.00  0.00     0.102 A 
HETATM   61  C   UNL     1      88.961  13.756  41.403  1.00  0.00     0.057 A 
BRANCH  58  62
HETATM   62  O   UNL     1      90.410  16.910  43.704  1.00  0.00    -0.358 OA
HETATM   63  H   UNL     1      91.375  16.979  43.596  1.00  0.00     0.217 HD
ENDBRANCH  58  62
BRANCH  59  64
HETATM   64  O   UNL     1      88.525  15.227  44.718  1.00  0.00    -0.356 OA
HETATM   65  H   UNL     1      87.565  15.047  44.652  1.00  0.00     0.218 HD
ENDBRANCH  59  64
BRANCH  60  66
HETATM   66  O   UNL     1      87.551  13.153  43.216  1.00  0.00    -0.358 OA
HETATM   67  H   UNL     1      87.448  12.441  42.552  1.00  0.00     0.217 HD
ENDBRANCH  60  66
ENDBRANCH  54  56
ENDBRANCH  53  54
ENDBRANCH   3  53
BRANCH   5  68
HETATM   68  O   UNL     1      89.251  13.736  36.073  1.00  0.00    -0.388 OA
HETATM   69  H   UNL     1      89.177  14.338  36.837  1.00  0.00     0.210 HD
ENDBRANCH   5  68
TORSDOF 26
ENDMDL
MODEL 10
REMARK VINA RESULT:    -9.918     14.920     19.788
REMARK INTER + INTRA:         -23.585
REMARK INTER:                 -19.879
REMARK INTRA:                  -3.707
REMARK UNBOUND:                -2.361
REMARK  26 active torsions:
REMARK  status: ('A' for Active; 'I' for Inactive)
REMARK    1  A    between atoms: O_2  and  C_29 
REMARK    2  A    between atoms: O_2  and  C_23 
REMARK    3  A    between atoms: O_3  and  C_24 
REMARK    4  A    between atoms: O_3  and  C_30 
REMARK    5  A    between atoms: O_4  and  C_26 
REMARK    6  A    between atoms: O_5  and  C_31 
REMARK    7  A    between atoms: O_5  and  C_27 
REMARK    8  A    between atoms: O_6  and  C_28 
REMARK    9  A    between atoms: O_6  and  C_34 
REMARK   10  A    between atoms: O_11  and  C_43 
REMARK   11  A    between atoms: O_12  and  C_44 
REMARK   12  A    between atoms: O_13  and  C_45 
REMARK   13  A    between atoms: O_14  and  C_46 
REMARK   14  A    between atoms: O_15  and  C_49 
REMARK   15  A    between atoms: O_16  and  C_50 
REMARK   16  A    between atoms: O_17  and  C_51 
REMARK   17  A    between atoms: O_18  and  C_52 
REMARK   18  A    between atoms: O_19  and  C_53 
REMARK   19  A    between atoms: O_20  and  C_54 
REMARK   20  A    between atoms: O_21  and  C_55 
REMARK   21  A    between atoms: O_22  and  C_56 
REMARK   22  A    between atoms: C_25  and  C_28 
REMARK   23  A    between atoms: C_29  and  C_32 
REMARK   24  A    between atoms: C_30  and  C_33 
REMARK   25  A    between atoms: C_31  and  C_35 
REMARK   26  A    between atoms: C_34  and  C_36 
ROOT
HETATM    1  O   UNL     1      90.882  10.216  35.684  1.00  0.00    -0.348 OA
HETATM    2  C   UNL     1      91.339  10.891  37.957  1.00  0.00     0.195 C 
HETATM    3  C   UNL     1      90.767  12.287  37.668  1.00  0.00     0.198 C 
HETATM    4  C   UNL     1      91.931  10.329  36.653  1.00  0.00     0.181 C 
HETATM    5  C   UNL     1      89.810  12.286  36.457  1.00  0.00     0.206 C 
HETATM    6  C   UNL     1      90.399  11.495  35.265  1.00  0.00     0.301 C 
ENDROOT
BRANCH   4   7
HETATM    7  C   UNL     1      92.597   8.965  36.888  1.00  0.00     0.213 C 
BRANCH   7   8
HETATM    8  O   UNL     1      92.066   7.972  35.998  1.00  0.00    -0.315 OA
BRANCH   8   9
HETATM    9  C   UNL     1      92.992   7.112  35.498  1.00  0.00     0.293 C 
HETATM   10  O   UNL     1      93.388   6.083  36.020  1.00  0.00    -0.259 OA
BRANCH   9  11
HETATM   11  C   UNL     1      93.473   7.604  34.189  1.00  0.00     0.045 A 
HETATM   12  C   UNL     1      94.842   7.609  33.871  1.00  0.00     0.057 A 
HETATM   13  C   UNL     1      95.238   8.029  32.607  1.00  0.00     0.102 A 
HETATM   14  C   UNL     1      94.291   8.448  31.679  1.00  0.00     0.132 A 
HETATM   15  C   UNL     1      92.940   8.446  32.003  1.00  0.00     0.102 A 
HETATM   16  C   UNL     1      92.517   8.019  33.252  1.00  0.00     0.057 A 
BRANCH  13  17
HETATM   17  O   UNL     1      96.550   8.038  32.221  1.00  0.00    -0.358 OA
HETATM   18  H   UNL     1      96.703   7.292  31.614  1.00  0.00     0.217 HD
ENDBRANCH  13  17
BRANCH  14  19
HETATM   19  O   UNL     1      94.673   8.859  30.431  1.00  0.00    -0.356 OA
HETATM   20  H   UNL     1      95.116   8.078  30.042  1.00  0.00     0.218 HD
ENDBRANCH  14  19
BRANCH  15  21
HETATM   21  O   UNL     1      92.015   8.858  31.089  1.00  0.00    -0.358 OA
HETATM   22  H   UNL     1      92.491   9.499  30.522  1.00  0.00     0.217 HD
ENDBRANCH  15  21
ENDBRANCH   9  11
ENDBRANCH   8   9
ENDBRANCH   7   8
ENDBRANCH   4   7
BRANCH   2  23
HETATM   23  O   UNL     1      92.410  10.980  38.929  1.00  0.00    -0.307 OA
BRANCH  23  24
HETATM   24  C   UNL     1      93.499  11.783  38.923  1.00  0.00     0.294 C 
HETATM   25  O   UNL     1      94.270  11.770  37.969  1.00  0.00    -0.259 OA
BRANCH  24  26
HETATM   26  C   UNL     1      93.760  12.722  40.038  1.00  0.00     0.045 A 
HETATM   27  C   UNL     1      94.656  13.796  39.924  1.00  0.00     0.057 A 
HETATM   28  C   UNL     1      94.882  14.616  41.024  1.00  0.00     0.102 A 
HETATM   29  C   UNL     1      94.164  14.425  42.198  1.00  0.00     0.132 A 
HETATM   30  C   UNL     1      93.219  13.413  42.282  1.00  0.00     0.102 A 
HETATM   31  C   UNL     1      93.006  12.558  41.210  1.00  0.00     0.057 A 
BRANCH  28  32
HETATM   32  O   UNL     1      95.806  15.622  41.000  1.00  0.00    -0.358 OA
HETATM   33  H   UNL     1      95.533  16.322  41.621  1.00  0.00     0.217 HD
ENDBRANCH  28  32
BRANCH  29  34
HETATM   34  O   UNL     1      94.375  15.234  43.281  1.00  0.00    -0.356 OA
HETATM   35  H   UNL     1      94.546  16.117  42.892  1.00  0.00     0.218 HD
ENDBRANCH  29  34
BRANCH  30  36
HETATM   36  O   UNL     1      92.493  13.248  43.424  1.00  0.00    -0.358 OA
HETATM   37  H   UNL     1      91.751  13.880  43.345  1.00  0.00     0.217 HD
ENDBRANCH  30  36
ENDBRANCH  24  26
ENDBRANCH  23  24
ENDBRANCH   2  23
BRANCH   6  38
HETATM   38  O   UNL     1      89.324  11.300  34.320  1.00  0.00    -0.283 OA
BRANCH  38  39
HETATM   39  C   UNL     1      89.462  11.102  32.990  1.00  0.00     0.295 C 
HETATM   40  O   UNL     1      90.550  10.867  32.479  1.00  0.00    -0.259 OA
BRANCH  39  41
HETATM   41  C   UNL     1      88.296  11.323  32.113  1.00  0.00     0.045 A 
HETATM   42  C   UNL     1      88.304  10.901  30.775  1.00  0.00     0.057 A 
HETATM   43  C   UNL     1      87.167  11.099  30.001  1.00  0.00     0.102 A 
HETATM   44  C   UNL     1      86.072  11.776  30.527  1.00  0.00     0.132 A 
HETATM   45  C   UNL     1      86.102  12.257  31.830  1.00  0.00     0.102 A 
HETATM   46  C   UNL     1      87.207  12.031  32.637  1.00  0.00     0.057 A 
BRANCH  43  47
HETATM   47  O   UNL     1      87.076  10.635  28.719  1.00  0.00    -0.358 OA
HETATM   48  H   UNL     1      87.166   9.665  28.731  1.00  0.00     0.217 HD
ENDBRANCH  43  47
BRANCH  44  49
HETATM   49  O   UNL     1      84.953  11.982  29.768  1.00  0.00    -0.356 OA
HETATM   50  H   UNL     1      84.819  12.952  29.787  1.00  0.00     0.218 HD
ENDBRANCH  44  49
BRANCH  45  51
HETATM   51  O   UNL     1      85.042  12.959  32.324  1.00  0.00    -0.358 OA
HETATM   52  H   UNL     1      85.314  13.225  33.226  1.00  0.00     0.217 HD
ENDBRANCH  45  51
ENDBRANCH  39  41
ENDBRANCH  38  39
ENDBRANCH   6  38
BRANCH   3  53
HETATM   53  O   UNL     1      90.174  12.902  38.848  1.00  0.00    -0.306 OA
BRANCH  53  54
HETATM   54  C   UNL     1      90.543  14.156  39.197  1.00  0.00     0.294 C 
HETATM   55  O   UNL     1      91.268  14.895  38.555  1.00  0.00    -0.259 OA
BRANCH  54  56
HETATM   56  C   UNL     1      89.997  14.504  40.525  1.00  0.00     0.045 A 
HETATM   57  C   UNL     1      90.531  15.620  41.192  1.00  0.00     0.057 A 
HETATM   58  C   UNL     1      90.000  15.992  42.421  1.00  0.00     0.102 A 
HETATM   59  C   UNL     1      88.934  15.282  42.966  1.00  0.00     0.132 A 
HETATM   60  C   UNL     1      88.407  14.184  42.299  1.00  0.00     0.102 A 
HETATM   61  C   UNL     1      88.940  13.773  41.084  1.00  0.00     0.057 A 
BRANCH  58  62
HETATM   62  O   UNL     1      90.487  17.052  43.133  1.00  0.00    -0.358 OA
HETATM   63  H   UNL     1      89.787  17.383  43.722  1.00  0.00     0.217 HD
ENDBRANCH  58  62
BRANCH  59  64
HETATM   64  O   UNL     1      88.388  15.657  44.164  1.00  0.00    -0.356 OA
HETATM   65  H   UNL     1      88.620  16.605  44.251  1.00  0.00     0.218 HD
ENDBRANCH  59  64
BRANCH  60  66
HETATM   66  O   UNL     1      87.349  13.505  42.826  1.00  0.00    -0.358 OA
HETATM   67  H   UNL     1      86.894  14.156  43.399  1.00  0.00     0.217 HD
ENDBRANCH  60  66
ENDBRANCH  54  56
ENDBRANCH  53  54
ENDBRANCH   3  53
BRANCH   5  68
HETATM   68  O   UNL     1      89.552  13.649  36.073  1.00  0.00    -0.388 OA
HETATM   69  H   UNL     1      90.006  13.787  35.220  1.00  0.00     0.210 HD
ENDBRANCH   5  68
TORSDOF 26
ENDMDL
