MODEL 1
REMARK VINA RESULT:      -9.2      0.000      0.000
REMARK  13 active torsions:
REMARK  status: ('A' for Active; 'I' for Inactive)
REMARK    1  A    between atoms: C_2  and  O_12 
REMARK    2  A    between atoms: C_3  and  O_10 
REMARK    3  A    between atoms: C_4  and  O_8 
REMARK    4  A    between atoms: C_5  and  O_6 
REMARK    5  A    between atoms: C_22  and  C_23 
REMARK    6  A    between atoms: O_12  and  C_13 
REMARK    7  A    between atoms: C_13  and  C_14 
REMARK    8  A    between atoms: C_15  and  C_16 
REMARK    9  A    between atoms: C_23  and  O_24 
REMARK   10  A    between atoms: O_24  and  C_25 
REMARK   11  A    between atoms: C_26  and  O_34 
REMARK   12  A    between atoms: C_27  and  O_32 
REMARK   13  A    between atoms: C_28  and  O_30 
ROOT
ATOM      1  O   LIG     1     -26.765   5.500   5.256  0.00  0.00    -0.341 OA
ATOM      2  C   LIG     1     -26.637   6.865   5.647  0.00  0.00     0.282 C 
ATOM      3  C   LIG     1     -26.963   7.029   7.132  0.00  0.00     0.201 C 
ATOM      4  C   LIG     1     -26.125   6.086   7.993  0.00  0.00     0.179 C 
ATOM      5  C   LIG     1     -26.160   4.659   7.448  0.00  0.00     0.177 C 
ATOM      6  C   LIG     1     -25.854   4.644   5.948  0.00  0.00     0.178 C 
ENDROOT
BRANCH   6   7
ATOM      7  C   LIG     1     -25.997   3.245   5.356  0.00  0.00     0.197 C 
BRANCH   7   8
ATOM      8  O   LIG     1     -26.592   2.404   6.328  0.00  0.00    -0.346 OA
BRANCH   8   9
ATOM      9  C   LIG     1     -27.789   1.804   5.844  0.00  0.00     0.281 C 
ATOM     10  O   LIG     1     -28.959   2.459   6.347  0.00  0.00    -0.346 OA
ATOM     11  C   LIG     1     -29.142   2.310   7.753  0.00  0.00     0.197 C 
ATOM     12  C   LIG     1     -29.287   0.839   8.123  0.00  0.00     0.171 C 
ATOM     13  C   LIG     1     -28.064   0.044   7.664  0.00  0.00     0.178 C 
ATOM     14  C   LIG     1     -27.794   0.304   6.178  0.00  0.00     0.201 C 
BRANCH  12  15
ATOM     15  O   LIG     1     -29.457   0.696   9.526  0.00  0.00    -0.387 OA
ATOM     16  H   LIG     1     -28.581   0.792   9.940  0.00  0.00     0.210 HD
ENDBRANCH  12  15
BRANCH  13  17
ATOM     17  O   LIG     1     -26.929   0.440   8.432  0.00  0.00    -0.386 OA
ATOM     18  H   LIG     1     -26.609  -0.345   8.908  0.00  0.00     0.210 HD
ENDBRANCH  13  17
BRANCH  14  19
ATOM     19  O   LIG     1     -28.812  -0.318   5.397  0.00  0.00    -0.384 OA
ATOM     20  H   LIG     1     -28.414  -0.636   4.570  0.00  0.00     0.210 HD
ENDBRANCH  14  19
ENDBRANCH   8   9
ENDBRANCH   7   8
ENDBRANCH   6   7
BRANCH   5  21
ATOM     21  O   LIG     1     -25.193   3.868   8.134  0.00  0.00    -0.386 OA
ATOM     22  H   LIG     1     -25.477   2.938   8.084  0.00  0.00     0.210 HD
ENDBRANCH   5  21
BRANCH   2  23
ATOM     23  O   LIG     1     -27.553   7.667   4.903  0.00  0.00    -0.345 OA
BRANCH  23  24
ATOM     24  C   LIG     1     -28.880   7.181   5.022  0.00  0.00     0.190 C 
BRANCH  24  25
ATOM     25  C   LIG     1     -29.828   8.269   4.632  0.00  0.00     0.001 C 
ATOM     26  C   LIG     1     -30.643   8.191   3.569  0.00  0.00     0.006 C 
BRANCH  26  27
ATOM     27  C   LIG     1     -31.602   9.230   3.155  0.00  0.00    -0.025 A 
ATOM     28  C   LIG     1     -31.395   9.911   1.966  0.00  0.00     0.008 A 
ATOM     29  C   LIG     1     -32.304  10.894   1.576  0.00  0.00     0.001 A 
ATOM     30  C   LIG     1     -33.406  11.185   2.379  0.00  0.00     0.000 A 
ATOM     31  C   LIG     1     -33.601  10.492   3.573  0.00  0.00     0.001 A 
ATOM     32  C   LIG     1     -32.692   9.508   3.964  0.00  0.00     0.008 A 
ENDBRANCH  26  27
ENDBRANCH  24  25
ENDBRANCH  23  24
ENDBRANCH   2  23
BRANCH   4  33
ATOM     33  O   LIG     1     -26.649   6.064   9.322  0.00  0.00    -0.386 OA
ATOM     34  H   LIG     1     -25.909   5.880   9.924  0.00  0.00     0.210 HD
ENDBRANCH   4  33
BRANCH   3  35
ATOM     35  O   LIG     1     -26.690   8.380   7.502  0.00  0.00    -0.384 OA
ATOM     36  H   LIG     1     -27.055   8.961   6.814  0.00  0.00     0.210 HD
ENDBRANCH   3  35
TORSDOF 13
ENDMDL
MODEL 2
REMARK VINA RESULT:      -8.5      1.422      1.995
REMARK  13 active torsions:
REMARK  status: ('A' for Active; 'I' for Inactive)
REMARK    1  A    between atoms: C_2  and  O_12 
REMARK    2  A    between atoms: C_3  and  O_10 
REMARK    3  A    between atoms: C_4  and  O_8 
REMARK    4  A    between atoms: C_5  and  O_6 
REMARK    5  A    between atoms: C_22  and  C_23 
REMARK    6  A    between atoms: O_12  and  C_13 
REMARK    7  A    between atoms: C_13  and  C_14 
REMARK    8  A    between atoms: C_15  and  C_16 
REMARK    9  A    between atoms: C_23  and  O_24 
REMARK   10  A    between atoms: O_24  and  C_25 
REMARK   11  A    between atoms: C_26  and  O_34 
REMARK   12  A    between atoms: C_27  and  O_32 
REMARK   13  A    between atoms: C_28  and  O_30 
ROOT
ATOM      1  O   LIG     1     -28.394   5.883   4.629  0.00  0.00    -0.341 OA
ATOM      2  C   LIG     1     -28.301   7.305   4.661  0.00  0.00     0.282 C 
ATOM      3  C   LIG     1     -28.045   7.792   6.088  0.00  0.00     0.201 C 
ATOM      4  C   LIG     1     -26.826   7.105   6.701  0.00  0.00     0.179 C 
ATOM      5  C   LIG     1     -26.886   5.591   6.505  0.00  0.00     0.177 C 
ATOM      6  C   LIG     1     -27.185   5.244   5.044  0.00  0.00     0.178 C 
ENDROOT
BRANCH   6   7
ATOM      7  C   LIG     1     -27.366   3.742   4.845  0.00  0.00     0.197 C 
BRANCH   7   8
ATOM      8  O   LIG     1     -27.880   3.188   6.042  0.00  0.00    -0.346 OA
BRANCH   8   9
ATOM      9  C   LIG     1     -28.794   2.128   5.783  0.00  0.00     0.281 C 
ATOM     10  O   LIG     1     -29.990   2.248   6.562  0.00  0.00    -0.346 OA
ATOM     11  C   LIG     1     -29.784   2.079   7.962  0.00  0.00     0.197 C 
ATOM     12  C   LIG     1     -29.222   0.694   8.259  0.00  0.00     0.171 C 
ATOM     13  C   LIG     1     -27.912   0.470   7.502  0.00  0.00     0.178 C 
ATOM     14  C   LIG     1     -28.104   0.774   6.013  0.00  0.00     0.201 C 
BRANCH  12  15
ATOM     15  O   LIG     1     -29.007   0.535   9.654  0.00  0.00    -0.387 OA
ATOM     16  H   LIG     1     -29.878   0.520  10.086  0.00  0.00     0.210 HD
ENDBRANCH  12  15
BRANCH  13  17
ATOM     17  O   LIG     1     -26.906   1.328   8.039  0.00  0.00    -0.386 OA
ATOM     18  H   LIG     1     -27.006   2.198   7.615  0.00  0.00     0.210 HD
ENDBRANCH  13  17
BRANCH  14  19
ATOM     19  O   LIG     1     -28.915  -0.240   5.425  0.00  0.00    -0.384 OA
ATOM     20  H   LIG     1     -29.102  -0.914   6.099  0.00  0.00     0.210 HD
ENDBRANCH  14  19
ENDBRANCH   8   9
ENDBRANCH   7   8
ENDBRANCH   6   7
BRANCH   5  21
ATOM     21  O   LIG     1     -25.637   5.016   6.880  0.00  0.00    -0.386 OA
ATOM     22  H   LIG     1     -25.157   5.668   7.419  0.00  0.00     0.210 HD
ENDBRANCH   5  21
BRANCH   2  23
ATOM     23  O   LIG     1     -29.527   7.879   4.213  0.00  0.00    -0.345 OA
BRANCH  23  24
ATOM     24  C   LIG     1     -29.675   7.749   2.808  0.00  0.00     0.190 C 
BRANCH  24  25
ATOM     25  C   LIG     1     -30.854   8.556   2.370  0.00  0.00     0.001 C 
ATOM     26  C   LIG     1     -30.854   9.327   1.272  0.00  0.00     0.006 C 
BRANCH  26  27
ATOM     27  C   LIG     1     -31.995  10.127   0.795  0.00  0.00    -0.025 A 
ATOM     28  C   LIG     1     -32.457  11.180   1.569  0.00  0.00     0.008 A 
ATOM     29  C   LIG     1     -33.537  11.937   1.117  0.00  0.00     0.001 A 
ATOM     30  C   LIG     1     -34.143  11.631  -0.102  0.00  0.00     0.000 A 
ATOM     31  C   LIG     1     -33.667  10.568  -0.870  0.00  0.00     0.001 A 
ATOM     32  C   LIG     1     -32.586   9.811  -0.418  0.00  0.00     0.008 A 
ENDBRANCH  26  27
ENDBRANCH  24  25
ENDBRANCH  23  24
ENDBRANCH   2  23
BRANCH   4  33
ATOM     33  O   LIG     1     -26.788   7.367   8.106  0.00  0.00    -0.386 OA
ATOM     34  H   LIG     1     -25.942   7.026   8.442  0.00  0.00     0.210 HD
ENDBRANCH   4  33
BRANCH   3  35
ATOM     35  O   LIG     1     -27.825   9.202   6.046  0.00  0.00    -0.384 OA
ATOM     36  H   LIG     1     -28.690   9.643   6.052  0.00  0.00     0.210 HD
ENDBRANCH   3  35
TORSDOF 13
ENDMDL
MODEL 3
REMARK VINA RESULT:      -8.3      2.320      3.892
REMARK  13 active torsions:
REMARK  status: ('A' for Active; 'I' for Inactive)
REMARK    1  A    between atoms: C_2  and  O_12 
REMARK    2  A    between atoms: C_3  and  O_10 
REMARK    3  A    between atoms: C_4  and  O_8 
REMARK    4  A    between atoms: C_5  and  O_6 
REMARK    5  A    between atoms: C_22  and  C_23 
REMARK    6  A    between atoms: O_12  and  C_13 
REMARK    7  A    between atoms: C_13  and  C_14 
REMARK    8  A    between atoms: C_15  and  C_16 
REMARK    9  A    between atoms: C_23  and  O_24 
REMARK   10  A    between atoms: O_24  and  C_25 
REMARK   11  A    between atoms: C_26  and  O_34 
REMARK   12  A    between atoms: C_27  and  O_32 
REMARK   13  A    between atoms: C_28  and  O_30 
ROOT
ATOM      1  O   LIG     1     -29.643   6.204   3.008  0.00  0.00    -0.341 OA
ATOM      2  C   LIG     1     -29.081   7.030   1.991  0.00  0.00     0.282 C 
ATOM      3  C   LIG     1     -28.036   7.975   2.585  0.00  0.00     0.201 C 
ATOM      4  C   LIG     1     -26.978   7.207   3.377  0.00  0.00     0.179 C 
ATOM      5  C   LIG     1     -27.622   6.216   4.345  0.00  0.00     0.177 C 
ATOM      6  C   LIG     1     -28.672   5.362   3.630  0.00  0.00     0.178 C 
ENDROOT
BRANCH   6   7
ATOM      7  C   LIG     1     -29.411   4.445   4.600  0.00  0.00     0.197 C 
BRANCH   7   8
ATOM      8  O   LIG     1     -28.642   3.271   4.785  0.00  0.00    -0.346 OA
BRANCH   8   9
ATOM      9  C   LIG     1     -28.172   3.152   6.123  0.00  0.00     0.281 C 
ATOM     10  O   LIG     1     -26.917   2.465   6.192  0.00  0.00    -0.346 OA
ATOM     11  C   LIG     1     -26.992   1.092   5.819  0.00  0.00     0.197 C 
ATOM     12  C   LIG     1     -27.940   0.335   6.741  0.00  0.00     0.171 C 
ATOM     13  C   LIG     1     -29.334   0.965   6.714  0.00  0.00     0.178 C 
ATOM     14  C   LIG     1     -29.239   2.469   6.993  0.00  0.00     0.201 C 
BRANCH  12  15
ATOM     15  O   LIG     1     -28.020  -1.030   6.357  0.00  0.00    -0.387 OA
ATOM     16  H   LIG     1     -27.112  -1.356   6.237  0.00  0.00     0.210 HD
ENDBRANCH  12  15
BRANCH  13  17
ATOM     17  O   LIG     1     -29.922   0.754   5.432  0.00  0.00    -0.386 OA
ATOM     18  H   LIG     1     -30.731   0.230   5.564  0.00  0.00     0.210 HD
ENDBRANCH  13  17
BRANCH  14  19
ATOM     19  O   LIG     1     -28.890   2.674   8.360  0.00  0.00    -0.384 OA
ATOM     20  H   LIG     1     -28.038   3.140   8.394  0.00  0.00     0.210 HD
ENDBRANCH  14  19
ENDBRANCH   8   9
ENDBRANCH   7   8
ENDBRANCH   6   7
BRANCH   5  21
ATOM     21  O   LIG     1     -26.615   5.367   4.890  0.00  0.00    -0.386 OA
ATOM     22  H   LIG     1     -25.843   5.918   5.106  0.00  0.00     0.210 HD
ENDBRANCH   5  21
BRANCH   2  23
ATOM     23  O   LIG     1     -30.104   7.824   1.393  0.00  0.00    -0.345 OA
BRANCH  23  24
ATOM     24  C   LIG     1     -30.744   8.650   2.353  0.00  0.00     0.190 C 
BRANCH  24  25
ATOM     25  C   LIG     1     -31.723   9.534   1.652  0.00  0.00     0.001 C 
ATOM     26  C   LIG     1     -31.459  10.151   0.489  0.00  0.00     0.006 C 
BRANCH  26  27
ATOM     27  C   LIG     1     -32.396  11.018  -0.245  0.00  0.00    -0.025 A 
ATOM     28  C   LIG     1     -32.101  11.390  -1.547  0.00  0.00     0.008 A 
ATOM     29  C   LIG     1     -32.989  12.211  -2.241  0.00  0.00     0.001 A 
ATOM     30  C   LIG     1     -34.160  12.651  -1.625  0.00  0.00     0.000 A 
ATOM     31  C   LIG     1     -34.445  12.269  -0.314  0.00  0.00     0.001 A 
ATOM     32  C   LIG     1     -33.556  11.447   0.381  0.00  0.00     0.008 A 
ENDBRANCH  26  27
ENDBRANCH  24  25
ENDBRANCH  23  24
ENDBRANCH   2  23
BRANCH   4  33
ATOM     33  O   LIG     1     -26.196   8.126   4.141  0.00  0.00    -0.386 OA
ATOM     34  H   LIG     1     -26.644   8.989   4.107  0.00  0.00     0.210 HD
ENDBRANCH   4  33
BRANCH   3  35
ATOM     35  O   LIG     1     -27.408   8.678   1.513  0.00  0.00    -0.384 OA
ATOM     36  H   LIG     1     -27.513   9.631   1.676  0.00  0.00     0.210 HD
ENDBRANCH   3  35
TORSDOF 13
ENDMDL
MODEL 4
REMARK VINA RESULT:      -8.2      7.336     11.412
REMARK  13 active torsions:
REMARK  status: ('A' for Active; 'I' for Inactive)
REMARK    1  A    between atoms: C_2  and  O_12 
REMARK    2  A    between atoms: C_3  and  O_10 
REMARK    3  A    between atoms: C_4  and  O_8 
REMARK    4  A    between atoms: C_5  and  O_6 
REMARK    5  A    between atoms: C_22  and  C_23 
REMARK    6  A    between atoms: O_12  and  C_13 
REMARK    7  A    between atoms: C_13  and  C_14 
REMARK    8  A    between atoms: C_15  and  C_16 
REMARK    9  A    between atoms: C_23  and  O_24 
REMARK   10  A    between atoms: O_24  and  C_25 
REMARK   11  A    between atoms: C_26  and  O_34 
REMARK   12  A    between atoms: C_27  and  O_32 
REMARK   13  A    between atoms: C_28  and  O_30 
ROOT
ATOM      1  O   LIG     1     -31.133  10.957  -2.152  0.00  0.00    -0.341 OA
ATOM      2  C   LIG     1     -31.956  11.189  -3.293  0.00  0.00     0.282 C 
ATOM      3  C   LIG     1     -33.246  10.373  -3.198  0.00  0.00     0.201 C 
ATOM      4  C   LIG     1     -33.974  10.634  -1.880  0.00  0.00     0.179 C 
ATOM      5  C   LIG     1     -33.020  10.532  -0.691  0.00  0.00     0.177 C 
ATOM      6  C   LIG     1     -31.758  11.364  -0.933  0.00  0.00     0.178 C 
ENDROOT
BRANCH   6   7
ATOM      7  C   LIG     1     -30.739  11.186   0.189  0.00  0.00     0.197 C 
BRANCH   7   8
ATOM      8  O   LIG     1     -29.646  10.437  -0.310  0.00  0.00    -0.346 OA
BRANCH   8   9
ATOM      9  C   LIG     1     -29.242   9.421   0.602  0.00  0.00     0.281 C 
ATOM     10  O   LIG     1     -27.912   8.960   0.337  0.00  0.00    -0.346 OA
ATOM     11  C   LIG     1     -27.780   8.266  -0.902  0.00  0.00     0.197 C 
ATOM     12  C   LIG     1     -28.670   7.030  -0.922  0.00  0.00     0.171 C 
ATOM     13  C   LIG     1     -30.132   7.413  -0.686  0.00  0.00     0.178 C 
ATOM     14  C   LIG     1     -30.255   8.266   0.581  0.00  0.00     0.201 C 
BRANCH  12  15
ATOM     15  O   LIG     1     -28.544   6.349  -2.162  0.00  0.00    -0.387 OA
ATOM     16  H   LIG     1     -29.260   5.693  -2.211  0.00  0.00     0.210 HD
ENDBRANCH  12  15
BRANCH  13  17
ATOM     17  O   LIG     1     -30.612   8.152  -1.808  0.00  0.00    -0.386 OA
ATOM     18  H   LIG     1     -30.992   7.515  -2.437  0.00  0.00     0.210 HD
ENDBRANCH  13  17
BRANCH  14  19
ATOM     19  O   LIG     1     -30.016   7.450   1.725  0.00  0.00    -0.384 OA
ATOM     20  H   LIG     1     -29.102   7.122   1.684  0.00  0.00     0.210 HD
ENDBRANCH  14  19
ENDBRANCH   8   9
ENDBRANCH   7   8
ENDBRANCH   6   7
BRANCH   5  21
ATOM     21  O   LIG     1     -33.677  11.004   0.483  0.00  0.00    -0.386 OA
ATOM     22  H   LIG     1     -33.093  11.653   0.913  0.00  0.00     0.210 HD
ENDBRANCH   5  21
BRANCH   2  23
ATOM     23  O   LIG     1     -31.266  10.787  -4.475  0.00  0.00    -0.345 OA
BRANCH  23  24
ATOM     24  C   LIG     1     -29.860  10.863  -4.303  0.00  0.00     0.190 C 
BRANCH  24  25
ATOM     25  C   LIG     1     -29.230   9.672  -4.952  0.00  0.00     0.001 C 
ATOM     26  C   LIG     1     -29.840   8.940  -5.897  0.00  0.00     0.006 C 
BRANCH  26  27
ATOM     27  C   LIG     1     -29.254   7.769  -6.573  0.00  0.00    -0.025 A 
ATOM     28  C   LIG     1     -29.267   6.539  -5.935  0.00  0.00     0.008 A 
ATOM     29  C   LIG     1     -28.712   5.432  -6.575  0.00  0.00     0.001 A 
ATOM     30  C   LIG     1     -28.152   5.568  -7.845  0.00  0.00     0.000 A 
ATOM     31  C   LIG     1     -28.146   6.812  -8.475  0.00  0.00     0.001 A 
ATOM     32  C   LIG     1     -28.701   7.920  -7.835  0.00  0.00     0.008 A 
ENDBRANCH  26  27
ENDBRANCH  24  25
ENDBRANCH  23  24
ENDBRANCH   2  23
BRANCH   4  33
ATOM     33  O   LIG     1     -35.004   9.660  -1.705  0.00  0.00    -0.386 OA
ATOM     34  H   LIG     1     -34.779   9.137  -0.917  0.00  0.00     0.210 HD
ENDBRANCH   4  33
BRANCH   3  35
ATOM     35  O   LIG     1     -34.090  10.743  -4.288  0.00  0.00    -0.384 OA
ATOM     36  H   LIG     1     -33.539  10.814  -5.085  0.00  0.00     0.210 HD
ENDBRANCH   3  35
TORSDOF 13
ENDMDL
MODEL 5
REMARK VINA RESULT:      -8.2      2.254      3.650
REMARK  13 active torsions:
REMARK  status: ('A' for Active; 'I' for Inactive)
REMARK    1  A    between atoms: C_2  and  O_12 
REMARK    2  A    between atoms: C_3  and  O_10 
REMARK    3  A    between atoms: C_4  and  O_8 
REMARK    4  A    between atoms: C_5  and  O_6 
REMARK    5  A    between atoms: C_22  and  C_23 
REMARK    6  A    between atoms: O_12  and  C_13 
REMARK    7  A    between atoms: C_13  and  C_14 
REMARK    8  A    between atoms: C_15  and  C_16 
REMARK    9  A    between atoms: C_23  and  O_24 
REMARK   10  A    between atoms: O_24  and  C_25 
REMARK   11  A    between atoms: C_26  and  O_34 
REMARK   12  A    between atoms: C_27  and  O_32 
REMARK   13  A    between atoms: C_28  and  O_30 
ROOT
ATOM      1  O   LIG     1     -28.684   8.244   3.879  0.00  0.00    -0.341 OA
ATOM      2  C   LIG     1     -27.790   9.331   3.655  0.00  0.00     0.282 C 
ATOM      3  C   LIG     1     -27.547  10.101   4.954  0.00  0.00     0.201 C 
ATOM      4  C   LIG     1     -27.080   9.170   6.073  0.00  0.00     0.179 C 
ATOM      5  C   LIG     1     -27.974   7.935   6.176  0.00  0.00     0.177 C 
ATOM      6  C   LIG     1     -28.164   7.287   4.802  0.00  0.00     0.178 C 
ENDROOT
BRANCH   6   7
ATOM      7  C   LIG     1     -29.146   6.120   4.859  0.00  0.00     0.197 C 
BRANCH   7   8
ATOM      8  O   LIG     1     -28.548   5.062   5.585  0.00  0.00    -0.346 OA
BRANCH   8   9
ATOM      9  C   LIG     1     -28.245   3.952   4.748  0.00  0.00     0.281 C 
ATOM     10  O   LIG     1     -29.426   3.259   4.327  0.00  0.00    -0.346 OA
ATOM     11  C   LIG     1     -30.118   2.605   5.388  0.00  0.00     0.197 C 
ATOM     12  C   LIG     1     -29.226   1.561   6.047  0.00  0.00     0.171 C 
ATOM     13  C   LIG     1     -27.941   2.203   6.572  0.00  0.00     0.178 C 
ATOM     14  C   LIG     1     -27.262   3.011   5.461  0.00  0.00     0.201 C 
BRANCH  12  15
ATOM     15  O   LIG     1     -29.915   0.920   7.111  0.00  0.00    -0.387 OA
ATOM     16  H   LIG     1     -30.680   0.457   6.729  0.00  0.00     0.210 HD
ENDBRANCH  12  15
BRANCH  13  17
ATOM     17  O   LIG     1     -28.257   3.065   7.664  0.00  0.00    -0.386 OA
ATOM     18  H   LIG     1     -27.749   3.886   7.546  0.00  0.00     0.210 HD
ENDBRANCH  13  17
BRANCH  14  19
ATOM     19  O   LIG     1     -26.724   2.117   4.489  0.00  0.00    -0.384 OA
ATOM     20  H   LIG     1     -26.452   2.634   3.713  0.00  0.00     0.210 HD
ENDBRANCH  14  19
ENDBRANCH   8   9
ENDBRANCH   7   8
ENDBRANCH   6   7
BRANCH   5  21
ATOM     21  O   LIG     1     -27.378   6.993   7.064  0.00  0.00    -0.386 OA
ATOM     22  H   LIG     1     -27.785   6.125   6.897  0.00  0.00     0.210 HD
ENDBRANCH   5  21
BRANCH   2  23
ATOM     23  O   LIG     1     -28.355  10.234   2.707  0.00  0.00    -0.345 OA
BRANCH  23  24
ATOM     24  C   LIG     1     -29.718  10.500   2.997  0.00  0.00     0.190 C 
BRANCH  24  25
ATOM     25  C   LIG     1     -30.410  10.899   1.733  0.00  0.00     0.001 C 
ATOM     26  C   LIG     1     -31.720  11.184   1.668  0.00  0.00     0.006 C 
BRANCH  26  27
ATOM     27  C   LIG     1     -32.441  11.594   0.451  0.00  0.00    -0.025 A 
ATOM     28  C   LIG     1     -33.778  11.946   0.539  0.00  0.00     0.008 A 
ATOM     29  C   LIG     1     -34.459  12.335  -0.614  0.00  0.00     0.001 A 
ATOM     30  C   LIG     1     -33.796  12.365  -1.840  0.00  0.00     0.000 A 
ATOM     31  C   LIG     1     -32.450  12.008  -1.914  0.00  0.00     0.001 A 
ATOM     32  C   LIG     1     -31.768  11.620  -0.761  0.00  0.00     0.008 A 
ENDBRANCH  26  27
ENDBRANCH  24  25
ENDBRANCH  23  24
ENDBRANCH   2  23
BRANCH   4  33
ATOM     33  O   LIG     1     -27.138   9.862   7.322  0.00  0.00    -0.386 OA
ATOM     34  H   LIG     1     -27.522  10.739   7.151  0.00  0.00     0.210 HD
ENDBRANCH   4  33
BRANCH   3  35
ATOM     35  O   LIG     1     -26.545  11.087   4.709  0.00  0.00    -0.384 OA
ATOM     36  H   LIG     1     -26.225  11.412   5.567  0.00  0.00     0.210 HD
ENDBRANCH   3  35
TORSDOF 13
ENDMDL
MODEL 6
REMARK VINA RESULT:      -8.0      3.553      5.788
REMARK  13 active torsions:
REMARK  status: ('A' for Active; 'I' for Inactive)
REMARK    1  A    between atoms: C_2  and  O_12 
REMARK    2  A    between atoms: C_3  and  O_10 
REMARK    3  A    between atoms: C_4  and  O_8 
REMARK    4  A    between atoms: C_5  and  O_6 
REMARK    5  A    between atoms: C_22  and  C_23 
REMARK    6  A    between atoms: O_12  and  C_13 
REMARK    7  A    between atoms: C_13  and  C_14 
REMARK    8  A    between atoms: C_15  and  C_16 
REMARK    9  A    between atoms: C_23  and  O_24 
REMARK   10  A    between atoms: O_24  and  C_25 
REMARK   11  A    between atoms: C_26  and  O_34 
REMARK   12  A    between atoms: C_27  and  O_32 
REMARK   13  A    between atoms: C_28  and  O_30 
ROOT
ATOM      1  O   LIG     1     -29.603   8.587   4.478  0.00  0.00    -0.341 OA
ATOM      2  C   LIG     1     -30.278   8.064   3.336  0.00  0.00     0.282 C 
ATOM      3  C   LIG     1     -29.306   7.907   2.165  0.00  0.00     0.201 C 
ATOM      4  C   LIG     1     -28.085   7.079   2.562  0.00  0.00     0.179 C 
ATOM      5  C   LIG     1     -27.484   7.573   3.877  0.00  0.00     0.177 C 
ATOM      6  C   LIG     1     -28.569   7.721   4.948  0.00  0.00     0.178 C 
ENDROOT
BRANCH   6   7
ATOM      7  C   LIG     1     -28.013   8.323   6.235  0.00  0.00     0.197 C 
BRANCH   7   8
ATOM      8  O   LIG     1     -27.284   7.323   6.923  0.00  0.00    -0.346 OA
BRANCH   8   9
ATOM      9  C   LIG     1     -26.046   7.819   7.420  0.00  0.00     0.281 C 
ATOM     10  O   LIG     1     -24.926   7.127   6.857  0.00  0.00    -0.346 OA
ATOM     11  C   LIG     1     -24.837   5.760   7.253  0.00  0.00     0.197 C 
ATOM     12  C   LIG     1     -24.690   5.647   8.764  0.00  0.00     0.171 C 
ATOM     13  C   LIG     1     -25.863   6.325   9.473  0.00  0.00     0.178 C 
ATOM     14  C   LIG     1     -26.036   7.757   8.955  0.00  0.00     0.201 C 
BRANCH  12  15
ATOM     15  O   LIG     1     -24.614   4.283   9.155  0.00  0.00    -0.387 OA
ATOM     16  H   LIG     1     -24.723   3.742   8.354  0.00  0.00     0.210 HD
ENDBRANCH  12  15
BRANCH  13  17
ATOM     17  O   LIG     1     -27.056   5.581   9.227  0.00  0.00    -0.386 OA
ATOM     18  H   LIG     1     -27.764   5.980   9.761  0.00  0.00     0.210 HD
ENDBRANCH  13  17
BRANCH  14  19
ATOM     19  O   LIG     1     -24.955   8.561   9.421  0.00  0.00    -0.384 OA
ATOM     20  H   LIG     1     -25.292   9.160  10.109  0.00  0.00     0.210 HD
ENDBRANCH  14  19
ENDBRANCH   8   9
ENDBRANCH   7   8
ENDBRANCH   6   7
BRANCH   5  21
ATOM     21  O   LIG     1     -26.502   6.643   4.326  0.00  0.00    -0.386 OA
ATOM     22  H   LIG     1     -25.647   6.900   3.939  0.00  0.00     0.210 HD
ENDBRANCH   5  21
BRANCH   2  23
ATOM     23  O   LIG     1     -31.311   8.960   2.934  0.00  0.00    -0.345 OA
BRANCH  23  24
ATOM     24  C   LIG     1     -30.870  10.308   2.968  0.00  0.00     0.190 C 
BRANCH  24  25
ATOM     25  C   LIG     1     -31.207  10.959   1.666  0.00  0.00     0.001 C 
ATOM     26  C   LIG     1     -32.423  10.894   1.103  0.00  0.00     0.006 C 
BRANCH  26  27
ATOM     27  C   LIG     1     -32.805  11.531  -0.170  0.00  0.00    -0.025 A 
ATOM     28  C   LIG     1     -34.091  12.025  -0.323  0.00  0.00     0.008 A 
ATOM     29  C   LIG     1     -34.452  12.628  -1.527  0.00  0.00     0.001 A 
ATOM     30  C   LIG     1     -33.524  12.728  -2.563  0.00  0.00     0.000 A 
ATOM     31  C   LIG     1     -32.234  12.226  -2.395  0.00  0.00     0.001 A 
ATOM     32  C   LIG     1     -31.872  11.623  -1.190  0.00  0.00     0.008 A 
ENDBRANCH  26  27
ENDBRANCH  24  25
ENDBRANCH  23  24
ENDBRANCH   2  23
BRANCH   4  33
ATOM     33  O   LIG     1     -27.084   7.193   1.549  0.00  0.00    -0.386 OA
ATOM     34  H   LIG     1     -27.540   7.360   0.707  0.00  0.00     0.210 HD
ENDBRANCH   4  33
BRANCH   3  35
ATOM     35  O   LIG     1     -29.995   7.256   1.097  0.00  0.00    -0.384 OA
ATOM     36  H   LIG     1     -30.105   6.321   1.336  0.00  0.00     0.210 HD
ENDBRANCH   3  35
TORSDOF 13
ENDMDL
MODEL 7
REMARK VINA RESULT:      -7.9      1.332      2.229
REMARK  13 active torsions:
REMARK  status: ('A' for Active; 'I' for Inactive)
REMARK    1  A    between atoms: C_2  and  O_12 
REMARK    2  A    between atoms: C_3  and  O_10 
REMARK    3  A    between atoms: C_4  and  O_8 
REMARK    4  A    between atoms: C_5  and  O_6 
REMARK    5  A    between atoms: C_22  and  C_23 
REMARK    6  A    between atoms: O_12  and  C_13 
REMARK    7  A    between atoms: C_13  and  C_14 
REMARK    8  A    between atoms: C_15  and  C_16 
REMARK    9  A    between atoms: C_23  and  O_24 
REMARK   10  A    between atoms: O_24  and  C_25 
REMARK   11  A    between atoms: C_26  and  O_34 
REMARK   12  A    between atoms: C_27  and  O_32 
REMARK   13  A    between atoms: C_28  and  O_30 
ROOT
ATOM      1  O   LIG     1     -27.712   6.380   5.561  0.00  0.00    -0.341 OA
ATOM      2  C   LIG     1     -27.636   7.801   5.632  0.00  0.00     0.282 C 
ATOM      3  C   LIG     1     -26.967   8.237   6.937  0.00  0.00     0.201 C 
ATOM      4  C   LIG     1     -25.609   7.561   7.119  0.00  0.00     0.179 C 
ATOM      5  C   LIG     1     -25.702   6.056   6.877  0.00  0.00     0.177 C 
ATOM      6  C   LIG     1     -26.424   5.761   5.560  0.00  0.00     0.178 C 
ENDROOT
BRANCH   6   7
ATOM      7  C   LIG     1     -26.633   4.263   5.353  0.00  0.00     0.197 C 
BRANCH   7   8
ATOM      8  O   LIG     1     -27.915   3.915   5.842  0.00  0.00    -0.346 OA
BRANCH   8   9
ATOM      9  C   LIG     1     -27.833   3.062   6.978  0.00  0.00     0.281 C 
ATOM     10  O   LIG     1     -26.876   2.013   6.795  0.00  0.00    -0.346 OA
ATOM     11  C   LIG     1     -27.240   1.072   5.787  0.00  0.00     0.197 C 
ATOM     12  C   LIG     1     -28.555   0.389   6.141  0.00  0.00     0.171 C 
ATOM     13  C   LIG     1     -29.667   1.422   6.324  0.00  0.00     0.178 C 
ATOM     14  C   LIG     1     -29.225   2.504   7.315  0.00  0.00     0.201 C 
BRANCH  12  15
ATOM     15  O   LIG     1     -28.919  -0.539   5.129  0.00  0.00    -0.387 OA
ATOM     16  H   LIG     1     -29.622  -0.130   4.595  0.00  0.00     0.210 HD
ENDBRANCH  12  15
BRANCH  13  17
ATOM     17  O   LIG     1     -29.966   2.022   5.064  0.00  0.00    -0.386 OA
ATOM     18  H   LIG     1     -29.163   2.479   4.760  0.00  0.00     0.210 HD
ENDBRANCH  13  17
BRANCH  14  19
ATOM     19  O   LIG     1     -29.172   1.950   8.627  0.00  0.00    -0.384 OA
ATOM     20  H   LIG     1     -29.146   2.679   9.269  0.00  0.00     0.210 HD
ENDBRANCH  14  19
ENDBRANCH   8   9
ENDBRANCH   7   8
ENDBRANCH   6   7
BRANCH   5  21
ATOM     21  O   LIG     1     -24.389   5.503   6.829  0.00  0.00    -0.386 OA
ATOM     22  H   LIG     1     -24.472   4.545   6.677  0.00  0.00     0.210 HD
ENDBRANCH   5  21
BRANCH   2  23
ATOM     23  O   LIG     1     -28.949   8.357   5.603  0.00  0.00    -0.345 OA
BRANCH  23  24
ATOM     24  C   LIG     1     -29.769   7.695   4.653  0.00  0.00     0.190 C 
BRANCH  24  25
ATOM     25  C   LIG     1     -30.258   8.698   3.659  0.00  0.00     0.001 C 
ATOM     26  C   LIG     1     -31.556   8.865   3.358  0.00  0.00     0.006 C 
BRANCH  26  27
ATOM     27  C   LIG     1     -32.085   9.849   2.397  0.00  0.00    -0.025 A 
ATOM     28  C   LIG     1     -31.763   9.728   1.055  0.00  0.00     0.008 A 
ATOM     29  C   LIG     1     -32.264  10.659   0.146  0.00  0.00     0.001 A 
ATOM     30  C   LIG     1     -33.080  11.699   0.590  0.00  0.00     0.000 A 
ATOM     31  C   LIG     1     -33.395  11.809   1.944  0.00  0.00     0.001 A 
ATOM     32  C   LIG     1     -32.894  10.877   2.854  0.00  0.00     0.008 A 
ENDBRANCH  26  27
ENDBRANCH  24  25
ENDBRANCH  23  24
ENDBRANCH   2  23
BRANCH   4  33
ATOM     33  O   LIG     1     -25.151   7.766   8.457  0.00  0.00    -0.386 OA
ATOM     34  H   LIG     1     -25.540   7.066   9.008  0.00  0.00     0.210 HD
ENDBRANCH   4  33
BRANCH   3  35
ATOM     35  O   LIG     1     -26.792   9.653   6.898  0.00  0.00    -0.384 OA
ATOM     36  H   LIG     1     -26.331   9.922   7.711  0.00  0.00     0.210 HD
ENDBRANCH   3  35
TORSDOF 13
ENDMDL
MODEL 8
REMARK VINA RESULT:      -7.9      2.771      5.339
REMARK  13 active torsions:
REMARK  status: ('A' for Active; 'I' for Inactive)
REMARK    1  A    between atoms: C_2  and  O_12 
REMARK    2  A    between atoms: C_3  and  O_10 
REMARK    3  A    between atoms: C_4  and  O_8 
REMARK    4  A    between atoms: C_5  and  O_6 
REMARK    5  A    between atoms: C_22  and  C_23 
REMARK    6  A    between atoms: O_12  and  C_13 
REMARK    7  A    between atoms: C_13  and  C_14 
REMARK    8  A    between atoms: C_15  and  C_16 
REMARK    9  A    between atoms: C_23  and  O_24 
REMARK   10  A    between atoms: O_24  and  C_25 
REMARK   11  A    between atoms: C_26  and  O_34 
REMARK   12  A    between atoms: C_27  and  O_32 
REMARK   13  A    between atoms: C_28  and  O_30 
ROOT
ATOM      1  O   LIG     1     -31.081   8.440   3.582  0.00  0.00    -0.341 OA
ATOM      2  C   LIG     1     -31.578   9.756   3.810  0.00  0.00     0.282 C 
ATOM      3  C   LIG     1     -30.866  10.398   5.002  0.00  0.00     0.201 C 
ATOM      4  C   LIG     1     -29.348  10.360   4.829  0.00  0.00     0.179 C 
ATOM      5  C   LIG     1     -28.871   8.964   4.429  0.00  0.00     0.177 C 
ATOM      6  C   LIG     1     -29.691   8.427   3.253  0.00  0.00     0.178 C 
ENDROOT
BRANCH   6   7
ATOM      7  C   LIG     1     -29.312   6.989   2.909  0.00  0.00     0.197 C 
BRANCH   7   8
ATOM      8  O   LIG     1     -28.905   6.335   4.097  0.00  0.00    -0.346 OA
BRANCH   8   9
ATOM      9  C   LIG     1     -27.961   5.302   3.835  0.00  0.00     0.281 C 
ATOM     10  O   LIG     1     -28.515   4.000   4.052  0.00  0.00    -0.346 OA
ATOM     11  C   LIG     1     -28.826   3.728   5.417  0.00  0.00     0.197 C 
ATOM     12  C   LIG     1     -27.572   3.805   6.279  0.00  0.00     0.171 C 
ATOM     13  C   LIG     1     -26.914   5.180   6.152  0.00  0.00     0.178 C 
ATOM     14  C   LIG     1     -26.695   5.526   4.675  0.00  0.00     0.201 C 
BRANCH  12  15
ATOM     15  O   LIG     1     -27.889   3.546   7.639  0.00  0.00    -0.387 OA
ATOM     16  H   LIG     1     -27.209   2.946   7.990  0.00  0.00     0.210 HD
ENDBRANCH  12  15
BRANCH  13  17
ATOM     17  O   LIG     1     -27.757   6.163   6.752  0.00  0.00    -0.386 OA
ATOM     18  H   LIG     1     -28.621   5.747   6.916  0.00  0.00     0.210 HD
ENDBRANCH  13  17
BRANCH  14  19
ATOM     19  O   LIG     1     -25.662   4.697   4.145  0.00  0.00    -0.384 OA
ATOM     20  H   LIG     1     -25.987   3.782   4.114  0.00  0.00     0.210 HD
ENDBRANCH  14  19
ENDBRANCH   8   9
ENDBRANCH   7   8
ENDBRANCH   6   7
BRANCH   5  21
ATOM     21  O   LIG     1     -27.497   9.024   4.056  0.00  0.00    -0.386 OA
ATOM     22  H   LIG     1     -27.141   8.119   4.078  0.00  0.00     0.210 HD
ENDBRANCH   5  21
BRANCH   2  23
ATOM     23  O   LIG     1     -32.972   9.701   4.108  0.00  0.00    -0.345 OA
BRANCH  23  24
ATOM     24  C   LIG     1     -33.676  10.762   3.483  0.00  0.00     0.190 C 
BRANCH  24  25
ATOM     25  C   LIG     1     -33.091  10.996   2.127  0.00  0.00     0.001 C 
ATOM     26  C   LIG     1     -33.772  11.561   1.118  0.00  0.00     0.006 C 
BRANCH  26  27
ATOM     27  C   LIG     1     -33.233  11.824  -0.228  0.00  0.00    -0.025 A 
ATOM     28  C   LIG     1     -31.905  11.532  -0.497  0.00  0.00     0.008 A 
ATOM     29  C   LIG     1     -31.396  11.781  -1.771  0.00  0.00     0.001 A 
ATOM     30  C   LIG     1     -32.219  12.321  -2.759  0.00  0.00     0.000 A 
ATOM     31  C   LIG     1     -33.553  12.610  -2.473  0.00  0.00     0.001 A 
ATOM     32  C   LIG     1     -34.063  12.360  -1.199  0.00  0.00     0.008 A 
ENDBRANCH  26  27
ENDBRANCH  24  25
ENDBRANCH  23  24
ENDBRANCH   2  23
BRANCH   4  33
ATOM     33  O   LIG     1     -28.720  10.702   6.066  0.00  0.00    -0.386 OA
ATOM     34  H   LIG     1     -28.038  10.032   6.242  0.00  0.00     0.210 HD
ENDBRANCH   4  33
BRANCH   3  35
ATOM     35  O   LIG     1     -31.298  11.755   5.102  0.00  0.00    -0.384 OA
ATOM     36  H   LIG     1     -32.189  11.817   4.720  0.00  0.00     0.210 HD
ENDBRANCH   3  35
TORSDOF 13
ENDMDL
MODEL 9
REMARK VINA RESULT:      -7.8      5.735      9.308
REMARK  13 active torsions:
REMARK  status: ('A' for Active; 'I' for Inactive)
REMARK    1  A    between atoms: C_2  and  O_12 
REMARK    2  A    between atoms: C_3  and  O_10 
REMARK    3  A    between atoms: C_4  and  O_8 
REMARK    4  A    between atoms: C_5  and  O_6 
REMARK    5  A    between atoms: C_22  and  C_23 
REMARK    6  A    between atoms: O_12  and  C_13 
REMARK    7  A    between atoms: C_13  and  C_14 
REMARK    8  A    between atoms: C_15  and  C_16 
REMARK    9  A    between atoms: C_23  and  O_24 
REMARK   10  A    between atoms: O_24  and  C_25 
REMARK   11  A    between atoms: C_26  and  O_34 
REMARK   12  A    between atoms: C_27  and  O_32 
REMARK   13  A    between atoms: C_28  and  O_30 
ROOT
ATOM      1  O   LIG     1     -28.759   8.764  -2.950  0.00  0.00    -0.341 OA
ATOM      2  C   LIG     1     -29.417   9.109  -4.166  0.00  0.00     0.282 C 
ATOM      3  C   LIG     1     -29.174   8.036  -5.229  0.00  0.00     0.201 C 
ATOM      4  C   LIG     1     -29.561   6.649  -4.719  0.00  0.00     0.179 C 
ATOM      5  C   LIG     1     -28.964   6.380  -3.338  0.00  0.00     0.177 C 
ATOM      6  C   LIG     1     -29.247   7.545  -2.387  0.00  0.00     0.178 C 
ENDROOT
BRANCH   6   7
ATOM      7  C   LIG     1     -28.562   7.353  -1.037  0.00  0.00     0.197 C 
BRANCH   7   8
ATOM      8  O   LIG     1     -29.136   8.255  -0.108  0.00  0.00    -0.346 OA
BRANCH   8   9
ATOM      9  C   LIG     1     -29.807   7.571   0.945  0.00  0.00     0.281 C 
ATOM     10  O   LIG     1     -30.604   8.457   1.738  0.00  0.00    -0.346 OA
ATOM     11  C   LIG     1     -29.843   9.404   2.484  0.00  0.00     0.197 C 
ATOM     12  C   LIG     1     -28.906   8.695   3.454  0.00  0.00     0.171 C 
ATOM     13  C   LIG     1     -27.973   7.743   2.703  0.00  0.00     0.178 C 
ATOM     14  C   LIG     1     -28.788   6.806   1.804  0.00  0.00     0.201 C 
BRANCH  12  15
ATOM     15  O   LIG     1     -28.141   9.642   4.186  0.00  0.00    -0.387 OA
ATOM     16  H   LIG     1     -28.759  10.166   4.725  0.00  0.00     0.210 HD
ENDBRANCH  12  15
BRANCH  13  17
ATOM     17  O   LIG     1     -27.067   8.503   1.905  0.00  0.00    -0.386 OA
ATOM     18  H   LIG     1     -26.234   8.579   2.400  0.00  0.00     0.210 HD
ENDBRANCH  13  17
BRANCH  14  19
ATOM     19  O   LIG     1     -29.504   5.878   2.615  0.00  0.00    -0.384 OA
ATOM     20  H   LIG     1     -30.214   6.355   3.076  0.00  0.00     0.210 HD
ENDBRANCH  14  19
ENDBRANCH   8   9
ENDBRANCH   7   8
ENDBRANCH   6   7
BRANCH   5  21
ATOM     21  O   LIG     1     -29.529   5.186  -2.803  0.00  0.00    -0.386 OA
ATOM     22  H   LIG     1     -30.382   5.034  -3.246  0.00  0.00     0.210 HD
ENDBRANCH   5  21
BRANCH   2  23
ATOM     23  O   LIG     1     -28.903  10.344  -4.660  0.00  0.00    -0.345 OA
BRANCH  23  24
ATOM     24  C   LIG     1     -29.879  11.371  -4.600  0.00  0.00     0.190 C 
BRANCH  24  25
ATOM     25  C   LIG     1     -30.529  11.340  -3.254  0.00  0.00     0.001 C 
ATOM     26  C   LIG     1     -31.702  11.935  -2.988  0.00  0.00     0.006 C 
BRANCH  26  27
ATOM     27  C   LIG     1     -32.386  11.919  -1.684  0.00  0.00    -0.025 A 
ATOM     28  C   LIG     1     -31.674  11.570  -0.547  0.00  0.00     0.008 A 
ATOM     29  C   LIG     1     -32.322  11.555   0.687  0.00  0.00     0.001 A 
ATOM     30  C   LIG     1     -33.674  11.887   0.770  0.00  0.00     0.000 A 
ATOM     31  C   LIG     1     -34.379  12.236  -0.382  0.00  0.00     0.001 A 
ATOM     32  C   LIG     1     -33.730  12.251  -1.618  0.00  0.00     0.008 A 
ENDBRANCH  26  27
ENDBRANCH  24  25
ENDBRANCH  23  24
ENDBRANCH   2  23
BRANCH   4  33
ATOM     33  O   LIG     1     -29.062   5.656  -5.617  0.00  0.00    -0.386 OA
ATOM     34  H   LIG     1     -28.637   4.966  -5.080  0.00  0.00     0.210 HD
ENDBRANCH   4  33
BRANCH   3  35
ATOM     35  O   LIG     1     -29.962   8.357  -6.375  0.00  0.00    -0.384 OA
ATOM     36  H   LIG     1     -29.434   8.934  -6.952  0.00  0.00     0.210 HD
ENDBRANCH   3  35
TORSDOF 13
ENDMDL
