MODEL 1
REMARK VINA RESULT:      -5.5      0.000      0.000
REMARK  4 active torsions:
REMARK  status: ('A' for Active; 'I' for Inactive)
REMARK    1  A    between atoms: O_1  and  C_10 
REMARK    2  A    between atoms: O_1  and  C_11 
REMARK    3  A    between atoms: N_3  and  C_7 
REMARK    4  A    between atoms: C_4  and  C_10 
ROOT
HETATM    1  O   UNK     0     164.234 160.275 142.597  0.00  0.00    -0.318 OA
ENDROOT
BRANCH   1   2
HETATM    2  C   UNK     0     162.899 160.439 142.853  0.00  0.00     0.293 C 
HETATM    3  O   UNK     0     162.450 160.950 143.887  0.00  0.00    -0.259 OA
BRANCH   2   4
HETATM    4  C   UNK     0     162.081 159.938 141.760  0.00  0.00     0.039 A 
HETATM    5  C   UNK     0     162.589 158.966 140.898  0.00  0.00     0.020 A 
HETATM    6  C   UNK     0     161.804 158.486 139.849  0.00  0.00     0.030 A 
HETATM    7  C   UNK     0     160.511 158.976 139.663  0.00  0.00     0.025 A 
HETATM    8  C   UNK     0     160.004 159.948 140.525  0.00  0.00     0.030 A 
HETATM    9  C   UNK     0     160.788 160.429 141.574  0.00  0.00     0.020 A 
BRANCH   7  10
HETATM   10  N   UNK     0     159.718 158.491 138.603  0.00  0.00    -0.399 N 
HETATM   11  H   UNK     0     160.134 158.320 137.697  0.00  0.00     0.156 HD
HETATM   12  H   UNK     0     158.732 158.315 138.748  0.00  0.00     0.156 HD
ENDBRANCH   7  10
ENDBRANCH   2   4
ENDBRANCH   1   2
BRANCH   1  13
HETATM   13  C   UNK     0     164.998 161.463 142.366  0.00  0.00     0.174 C 
HETATM   14  C   UNK     0     166.402 161.256 142.892  0.00  0.00     0.034 C 
ENDBRANCH   1  13
TORSDOF 4
ENDMDL
MODEL 2
REMARK VINA RESULT:      -5.5      3.786      5.741
REMARK  4 active torsions:
REMARK  status: ('A' for Active; 'I' for Inactive)
REMARK    1  A    between atoms: O_1  and  C_10 
REMARK    2  A    between atoms: O_1  and  C_11 
REMARK    3  A    between atoms: N_3  and  C_7 
REMARK    4  A    between atoms: C_4  and  C_10 
ROOT
HETATM    1  O   UNK     0     160.144 157.107 138.022  0.00  0.00    -0.318 OA
ENDROOT
BRANCH   1   2
HETATM    2  C   UNK     0     159.950 158.455 138.158  0.00  0.00     0.293 C 
HETATM    3  O   UNK     0     159.316 159.148 137.352  0.00  0.00    -0.259 OA
BRANCH   2   4
HETATM    4  C   UNK     0     160.582 158.966 139.364  0.00  0.00     0.039 A 
HETATM    5  C   UNK     0     159.893 159.859 140.187  0.00  0.00     0.020 A 
HETATM    6  C   UNK     0     160.500 160.350 141.343  0.00  0.00     0.030 A 
HETATM    7  C   UNK     0     161.793 159.949 141.678  0.00  0.00     0.025 A 
HETATM    8  C   UNK     0     162.481 159.057 140.855  0.00  0.00     0.030 A 
HETATM    9  C   UNK     0     161.875 158.566 139.698  0.00  0.00     0.020 A 
BRANCH   7  10
HETATM   10  N   UNK     0     162.406 160.445 142.846  0.00  0.00    -0.399 N 
HETATM   11  H   UNK     0     163.014 159.850 143.392  0.00  0.00     0.156 HD
HETATM   12  H   UNK     0     162.235 161.398 143.142  0.00  0.00     0.156 HD
ENDBRANCH   7  10
ENDBRANCH   2   4
ENDBRANCH   1   2
BRANCH   1  13
HETATM   13  C   UNK     0     159.940 156.552 136.718  0.00  0.00     0.174 C 
HETATM   14  C   UNK     0     161.206 155.853 136.276  0.00  0.00     0.034 C 
ENDBRANCH   1  13
TORSDOF 4
ENDMDL
MODEL 3
REMARK VINA RESULT:      -5.4      3.763      5.552
REMARK  4 active torsions:
REMARK  status: ('A' for Active; 'I' for Inactive)
REMARK    1  A    between atoms: O_1  and  C_10 
REMARK    2  A    between atoms: O_1  and  C_11 
REMARK    3  A    between atoms: N_3  and  C_7 
REMARK    4  A    between atoms: C_4  and  C_10 
ROOT
HETATM    1  O   UNK     0     160.240 157.119 138.036  0.00  0.00    -0.318 OA
ENDROOT
BRANCH   1   2
HETATM    2  C   UNK     0     159.980 158.452 138.198  0.00  0.00     0.293 C 
HETATM    3  O   UNK     0     159.296 159.125 137.415  0.00  0.00    -0.259 OA
BRANCH   2   4
HETATM    4  C   UNK     0     160.606 158.976 139.401  0.00  0.00     0.039 A 
HETATM    5  C   UNK     0     161.898 158.577 139.745  0.00  0.00     0.020 A 
HETATM    6  C   UNK     0     162.499 159.079 140.900  0.00  0.00     0.030 A 
HETATM    7  C   UNK     0     161.809 159.980 141.711  0.00  0.00     0.025 A 
HETATM    8  C   UNK     0     160.518 160.379 141.367  0.00  0.00     0.030 A 
HETATM    9  C   UNK     0     159.916 159.877 140.213  0.00  0.00     0.020 A 
BRANCH   7  10
HETATM   10  N   UNK     0     162.416 160.487 142.877  0.00  0.00    -0.399 N 
HETATM   11  H   UNK     0     163.416 160.406 143.003  0.00  0.00     0.156 HD
HETATM   12  H   UNK     0     161.852 160.930 143.591  0.00  0.00     0.156 HD
ENDBRANCH   7  10
ENDBRANCH   2   4
ENDBRANCH   1   2
BRANCH   1  13
HETATM   13  C   UNK     0     159.984 156.563 136.741  0.00  0.00     0.174 C 
HETATM   14  C   UNK     0     161.225 155.842 136.260  0.00  0.00     0.034 C 
ENDBRANCH   1  13
TORSDOF 4
ENDMDL
MODEL 4
REMARK VINA RESULT:      -5.3     17.433     18.432
REMARK  4 active torsions:
REMARK  status: ('A' for Active; 'I' for Inactive)
REMARK    1  A    between atoms: O_1  and  C_10 
REMARK    2  A    between atoms: O_1  and  C_11 
REMARK    3  A    between atoms: N_3  and  C_7 
REMARK    4  A    between atoms: C_4  and  C_10 
ROOT
HETATM    1  O   UNK     0     146.872 153.914 148.751  0.00  0.00    -0.318 OA
ENDROOT
BRANCH   1   2
HETATM    2  C   UNK     0     146.971 154.531 149.969  0.00  0.00     0.293 C 
HETATM    3  O   UNK     0     147.327 153.960 151.007  0.00  0.00    -0.259 OA
BRANCH   2   4
HETATM    4  C   UNK     0     146.606 155.937 149.886  0.00  0.00     0.039 A 
HETATM    5  C   UNK     0     147.466 156.911 150.392  0.00  0.00     0.020 A 
HETATM    6  C   UNK     0     147.115 158.260 150.314  0.00  0.00     0.030 A 
HETATM    7  C   UNK     0     145.904 158.633 149.730  0.00  0.00     0.025 A 
HETATM    8  C   UNK     0     145.044 157.658 149.225  0.00  0.00     0.030 A 
HETATM    9  C   UNK     0     145.394 156.310 149.304  0.00  0.00     0.020 A 
BRANCH   7  10
HETATM   10  N   UNK     0     145.549 159.995 149.652  0.00  0.00    -0.399 N 
HETATM   11  H   UNK     0     145.631 160.490 148.774  0.00  0.00     0.156 HD
HETATM   12  H   UNK     0     145.214 160.479 150.474  0.00  0.00     0.156 HD
ENDBRANCH   7  10
ENDBRANCH   2   4
ENDBRANCH   1   2
BRANCH   1  13
HETATM   13  C   UNK     0     147.925 154.162 147.813  0.00  0.00     0.174 C 
HETATM   14  C   UNK     0     147.648 153.383 146.545  0.00  0.00     0.034 C 
ENDBRANCH   1  13
TORSDOF 4
ENDMDL
MODEL 5
REMARK VINA RESULT:      -5.1     19.687     21.456
REMARK  4 active torsions:
REMARK  status: ('A' for Active; 'I' for Inactive)
REMARK    1  A    between atoms: O_1  and  C_10 
REMARK    2  A    between atoms: O_1  and  C_11 
REMARK    3  A    between atoms: N_3  and  C_7 
REMARK    4  A    between atoms: C_4  and  C_10 
ROOT
HETATM    1  O   UNK     0     144.472 146.173 140.149  0.00  0.00    -0.318 OA
ENDROOT
BRANCH   1   2
HETATM    2  C   UNK     0     145.824 146.381 140.196  0.00  0.00     0.293 C 
HETATM    3  O   UNK     0     146.627 145.899 139.386  0.00  0.00    -0.259 OA
BRANCH   2   4
HETATM    4  C   UNK     0     146.195 147.235 141.313  0.00  0.00     0.039 A 
HETATM    5  C   UNK     0     146.103 148.622 141.191  0.00  0.00     0.020 A 
HETATM    6  C   UNK     0     146.460 149.440 142.263  0.00  0.00     0.030 A 
HETATM    7  C   UNK     0     146.909 148.873 143.456  0.00  0.00     0.025 A 
HETATM    8  C   UNK     0     147.001 147.487 143.577  0.00  0.00     0.030 A 
HETATM    9  C   UNK     0     146.645 146.668 142.505  0.00  0.00     0.020 A 
BRANCH   7  10
HETATM   10  N   UNK     0     147.269 149.701 144.538  0.00  0.00    -0.399 N 
HETATM   11  H   UNK     0     147.864 150.505 144.385  0.00  0.00     0.156 HD
HETATM   12  H   UNK     0     146.935 149.491 145.470  0.00  0.00     0.156 HD
ENDBRANCH   7  10
ENDBRANCH   2   4
ENDBRANCH   1   2
BRANCH   1  13
HETATM   13  C   UNK     0     144.021 144.821 140.281  0.00  0.00     0.174 C 
HETATM   14  C   UNK     0     143.430 144.631 141.661  0.00  0.00     0.034 C 
ENDBRANCH   1  13
TORSDOF 4
ENDMDL
MODEL 6
REMARK VINA RESULT:      -5.1     19.287     20.236
REMARK  4 active torsions:
REMARK  status: ('A' for Active; 'I' for Inactive)
REMARK    1  A    between atoms: O_1  and  C_10 
REMARK    2  A    between atoms: O_1  and  C_11 
REMARK    3  A    between atoms: N_3  and  C_7 
REMARK    4  A    between atoms: C_4  and  C_10 
ROOT
HETATM    1  O   UNK     0     147.242 145.858 140.110  0.00  0.00    -0.318 OA
ENDROOT
BRANCH   1   2
HETATM    2  C   UNK     0     146.091 146.468 140.528  0.00  0.00     0.293 C 
HETATM    3  O   UNK     0     144.970 146.226 140.061  0.00  0.00    -0.259 OA
BRANCH   2   4
HETATM    4  C   UNK     0     146.351 147.432 141.585  0.00  0.00     0.039 A 
HETATM    5  C   UNK     0     146.069 148.783 141.381  0.00  0.00     0.020 A 
HETATM    6  C   UNK     0     146.320 149.708 142.395  0.00  0.00     0.030 A 
HETATM    7  C   UNK     0     146.850 149.282 143.613  0.00  0.00     0.025 A 
HETATM    8  C   UNK     0     147.131 147.932 143.817  0.00  0.00     0.030 A 
HETATM    9  C   UNK     0     146.882 147.006 142.803  0.00  0.00     0.020 A 
BRANCH   7  10
HETATM   10  N   UNK     0     147.103 150.217 144.637  0.00  0.00    -0.399 N 
HETATM   11  H   UNK     0     146.736 150.062 145.567  0.00  0.00     0.156 HD
HETATM   12  H   UNK     0     147.652 151.045 144.443  0.00  0.00     0.156 HD
ENDBRANCH   7  10
ENDBRANCH   2   4
ENDBRANCH   1   2
BRANCH   1  13
HETATM   13  C   UNK     0     148.074 146.596 139.209  0.00  0.00     0.174 C 
HETATM   14  C   UNK     0     149.511 146.499 139.674  0.00  0.00     0.034 C 
ENDBRANCH   1  13
TORSDOF 4
ENDMDL
MODEL 7
REMARK VINA RESULT:      -5.0     21.059     22.240
REMARK  4 active torsions:
REMARK  status: ('A' for Active; 'I' for Inactive)
REMARK    1  A    between atoms: O_1  and  C_10 
REMARK    2  A    between atoms: O_1  and  C_11 
REMARK    3  A    between atoms: N_3  and  C_7 
REMARK    4  A    between atoms: C_4  and  C_10 
ROOT
HETATM    1  O   UNK     0     152.733 141.500 143.702  0.00  0.00    -0.318 OA
ENDROOT
BRANCH   1   2
HETATM    2  C   UNK     0     153.411 140.388 143.280  0.00  0.00     0.293 C 
HETATM    3  O   UNK     0     153.404 139.974 142.114  0.00  0.00    -0.259 OA
BRANCH   2   4
HETATM    4  C   UNK     0     154.136 139.758 144.372  0.00  0.00     0.039 A 
HETATM    5  C   UNK     0     155.441 139.306 144.174  0.00  0.00     0.020 A 
HETATM    6  C   UNK     0     156.136 138.701 145.221  0.00  0.00     0.030 A 
HETATM    7  C   UNK     0     155.526 138.548 146.467  0.00  0.00     0.025 A 
HETATM    8  C   UNK     0     154.222 139.000 146.665  0.00  0.00     0.030 A 
HETATM    9  C   UNK     0     153.526 139.604 145.618  0.00  0.00     0.020 A 
BRANCH   7  10
HETATM   10  N   UNK     0     156.229 137.936 147.525  0.00  0.00    -0.399 N 
HETATM   11  H   UNK     0     157.179 138.214 147.729  0.00  0.00     0.156 HD
HETATM   12  H   UNK     0     155.783 137.217 148.080  0.00  0.00     0.156 HD
ENDBRANCH   7  10
ENDBRANCH   2   4
ENDBRANCH   1   2
BRANCH   1  13
HETATM   13  C   UNK     0     152.173 142.340 142.687  0.00  0.00     0.174 C 
HETATM   14  C   UNK     0     152.172 143.771 143.178  0.00  0.00     0.034 C 
ENDBRANCH   1  13
TORSDOF 4
ENDMDL
MODEL 8
REMARK VINA RESULT:      -5.0      4.048      6.139
REMARK  4 active torsions:
REMARK  status: ('A' for Active; 'I' for Inactive)
REMARK    1  A    between atoms: O_1  and  C_10 
REMARK    2  A    between atoms: O_1  and  C_11 
REMARK    3  A    between atoms: N_3  and  C_7 
REMARK    4  A    between atoms: C_4  and  C_10 
ROOT
HETATM    1  O   UNK     0     163.891 160.283 142.513  0.00  0.00    -0.318 OA
ENDROOT
BRANCH   1   2
HETATM    2  C   UNK     0     164.340 161.176 141.578  0.00  0.00     0.293 C 
HETATM    3  O   UNK     0     163.680 161.540 140.596  0.00  0.00    -0.259 OA
BRANCH   2   4
HETATM    4  C   UNK     0     165.684 161.639 141.883  0.00  0.00     0.039 A 
HETATM    5  C   UNK     0     166.450 160.973 142.840  0.00  0.00     0.020 A 
HETATM    6  C   UNK     0     167.740 161.418 143.134  0.00  0.00     0.030 A 
HETATM    7  C   UNK     0     168.263 162.528 142.470  0.00  0.00     0.025 A 
HETATM    8  C   UNK     0     167.496 163.194 141.514  0.00  0.00     0.030 A 
HETATM    9  C   UNK     0     166.207 162.750 141.221  0.00  0.00     0.020 A 
BRANCH   7  10
HETATM   10  N   UNK     0     169.566 162.978 142.768  0.00  0.00    -0.399 N 
HETATM   11  H   UNK     0     170.109 162.517 143.485  0.00  0.00     0.156 HD
HETATM   12  H   UNK     0     169.957 163.763 142.264  0.00  0.00     0.156 HD
ENDBRANCH   7  10
ENDBRANCH   2   4
ENDBRANCH   1   2
BRANCH   1  13
HETATM   13  C   UNK     0     162.536 160.431 142.951  0.00  0.00     0.174 C 
HETATM   14  C   UNK     0     162.518 161.240 144.229  0.00  0.00     0.034 C 
ENDBRANCH   1  13
TORSDOF 4
ENDMDL
MODEL 9
REMARK VINA RESULT:      -5.0      5.183      6.660
REMARK  4 active torsions:
REMARK  status: ('A' for Active; 'I' for Inactive)
REMARK    1  A    between atoms: O_1  and  C_10 
REMARK    2  A    between atoms: O_1  and  C_11 
REMARK    3  A    between atoms: N_3  and  C_7 
REMARK    4  A    between atoms: C_4  and  C_10 
ROOT
HETATM    1  O   UNK     0     160.426 158.725 137.940  0.00  0.00    -0.318 OA
ENDROOT
BRANCH   1   2
HETATM    2  C   UNK     0     160.381 157.459 137.423  0.00  0.00     0.293 C 
HETATM    3  O   UNK     0     159.912 156.482 138.022  0.00  0.00    -0.259 OA
BRANCH   2   4
HETATM    4  C   UNK     0     160.952 157.407 136.086  0.00  0.00     0.039 A 
HETATM    5  C   UNK     0     160.650 156.340 135.240  0.00  0.00     0.020 A 
HETATM    6  C   UNK     0     161.199 156.290 133.958  0.00  0.00     0.030 A 
HETATM    7  C   UNK     0     162.048 157.307 133.522  0.00  0.00     0.025 A 
HETATM    8  C   UNK     0     162.349 158.374 134.368  0.00  0.00     0.030 A 
HETATM    9  C   UNK     0     161.801 158.424 135.651  0.00  0.00     0.020 A 
BRANCH   7  10
HETATM   10  N   UNK     0     162.602 157.256 132.227  0.00  0.00    -0.399 N 
HETATM   11  H   UNK     0     162.207 156.638 131.531  0.00  0.00     0.156 HD
HETATM   12  H   UNK     0     163.397 157.837 131.993  0.00  0.00     0.156 HD
ENDBRANCH   7  10
ENDBRANCH   2   4
ENDBRANCH   1   2
BRANCH   1  13
HETATM   13  C   UNK     0     160.902 158.857 139.284  0.00  0.00     0.174 C 
HETATM   14  C   UNK     0     159.864 159.593 140.103  0.00  0.00     0.034 C 
ENDBRANCH   1  13
TORSDOF 4
ENDMDL
MODEL 10
REMARK VINA RESULT:      -5.0     20.149     21.731
REMARK  4 active torsions:
REMARK  status: ('A' for Active; 'I' for Inactive)
REMARK    1  A    between atoms: O_1  and  C_10 
REMARK    2  A    between atoms: O_1  and  C_11 
REMARK    3  A    between atoms: N_3  and  C_7 
REMARK    4  A    between atoms: C_4  and  C_10 
ROOT
HETATM    1  O   UNK     0     146.460 148.620 140.908  0.00  0.00    -0.318 OA
ENDROOT
BRANCH   1   2
HETATM    2  C   UNK     0     146.640 147.367 140.386  0.00  0.00     0.293 C 
HETATM    3  O   UNK     0     147.528 147.077 139.573  0.00  0.00    -0.259 OA
BRANCH   2   4
HETATM    4  C   UNK     0     145.661 146.426 140.905  0.00  0.00     0.039 A 
HETATM    5  C   UNK     0     145.823 145.883 142.180  0.00  0.00     0.020 A 
HETATM    6  C   UNK     0     144.883 144.980 142.677  0.00  0.00     0.030 A 
HETATM    7  C   UNK     0     143.782 144.619 141.901  0.00  0.00     0.025 A 
HETATM    8  C   UNK     0     143.620 145.162 140.627  0.00  0.00     0.030 A 
HETATM    9  C   UNK     0     144.560 146.065 140.128  0.00  0.00     0.020 A 
BRANCH   7  10
HETATM   10  N   UNK     0     142.833 143.706 142.404  0.00  0.00    -0.399 N 
HETATM   11  H   UNK     0     142.441 143.840 143.327  0.00  0.00     0.156 HD
HETATM   12  H   UNK     0     142.545 142.915 141.843  0.00  0.00     0.156 HD
ENDBRANCH   7  10
ENDBRANCH   2   4
ENDBRANCH   1   2
BRANCH   1  13
HETATM   13  C   UNK     0     147.430 149.069 141.861  0.00  0.00     0.174 C 
HETATM   14  C   UNK     0     146.710 149.614 143.075  0.00  0.00     0.034 C 
ENDBRANCH   1  13
TORSDOF 4
ENDMDL
