REMARK VINA RESULT:      -7.8      1.643      2.187
REMARK  16 active torsions:
REMARK  status: ('A' for Active; 'I' for Inactive)
REMARK    1  A    between atoms: O_2  and  C_22 
REMARK    2  A    between atoms: O_2  and  C_26 
REMARK    3  A    between atoms: O_4  and  C_18 
REMARK    4  A    between atoms: O_5  and  C_19 
REMARK    5  A    between atoms: O_6  and  C_25 
REMARK    6  A    between atoms: O_6  and  C_29 
REMARK    7  A    between atoms: O_7  and  C_20 
REMARK    8  A    between atoms: O_8  and  C_21 
REMARK    9  A    between atoms: O_9  and  C_23 
REMARK   10  A    between atoms: O_10  and  C_24 
REMARK   11  A    between atoms: O_13  and  C_35 
REMARK   12  A    between atoms: O_14  and  C_40 
REMARK   13  A    between atoms: O_15  and  C_41 
REMARK   14  A    between atoms: O_16  and  C_43 
REMARK   15  A    between atoms: C_17  and  C_26 
REMARK   16  A    between atoms: C_30  and  C_33 
ROOT
HETATM    1  O   UNK     0     183.676 186.704 169.707  0.00  0.00    -0.348 OA
HETATM    2  C   UNK     0     184.970 186.102 169.765  0.00  0.00     0.180 C 
HETATM    3  C   UNK     0     185.993 187.113 170.289  0.00  0.00     0.180 C 
HETATM    4  C   UNK     0     185.994 188.378 169.431  0.00  0.00     0.183 C 
HETATM    5  C   UNK     0     184.575 188.910 169.227  0.00  0.00     0.205 C 
HETATM    6  C   UNK     0     183.622 187.796 168.791  0.00  0.00     0.298 C 
ENDROOT
BRANCH   2   7
HETATM    7  C   UNK     0     184.868 184.880 170.673  0.00  0.00     0.205 C 
BRANCH   7   8
HETATM    8  O   UNK     0     185.594 185.129 171.867  0.00  0.00    -0.356 OA
BRANCH   8   9
HETATM    9  C   UNK     0     185.990 183.915 172.499  0.00  0.00     0.291 C 
HETATM   10  O   UNK     0     184.903 183.270 173.169  0.00  0.00    -0.351 OA
HETATM   11  C   UNK     0     184.362 184.016 174.264  0.00  0.00     0.152 C 
HETATM   12  C   UNK     0     185.435 184.291 175.326  0.00  0.00     0.178 C 
HETATM   13  C   UNK     0     183.197 183.205 174.825  0.00  0.00     0.042 C 
HETATM   14  C   UNK     0     186.645 184.973 174.687  0.00  0.00     0.183 C 
HETATM   15  C   UNK     0     187.137 184.189 173.470  0.00  0.00     0.204 C 
BRANCH  12  16
HETATM   16  O   UNK     0     184.920 185.156 176.336  0.00  0.00    -0.390 OA
HETATM   17  H   UNK     0     185.123 184.759 177.201  0.00  0.00     0.210 HD
ENDBRANCH  12  16
BRANCH  14  18
HETATM   18  O   UNK     0     187.690 185.078 175.652  0.00  0.00    -0.390 OA
HETATM   19  H   UNK     0     187.478 185.824 176.240  0.00  0.00     0.210 HD
ENDBRANCH  14  18
BRANCH  15  20
HETATM   20  O   UNK     0     187.666 182.928 173.884  0.00  0.00    -0.388 OA
HETATM   21  H   UNK     0     188.483 183.088 174.386  0.00  0.00     0.210 HD
ENDBRANCH  15  20
ENDBRANCH   8   9
ENDBRANCH   7   8
ENDBRANCH   2   7
BRANCH   6  22
HETATM   22  O   UNK     0     182.300 188.334 168.761  0.00  0.00    -0.311 OA
BRANCH  22  23
HETATM   23  C   UNK     0     181.535 187.746 167.779  0.00  0.00     0.157 A 
HETATM   24  C   UNK     0     180.487 186.946 168.044  0.00  0.00     0.124 A 
HETATM   25  O   UNK     0     179.716 186.313 167.081  0.00  0.00    -0.306 OA
HETATM   26  C   UNK     0     180.020 186.522 165.760  0.00  0.00     0.096 A 
HETATM   27  C   UNK     0     181.074 187.333 165.347  0.00  0.00     0.084 A 
HETATM   28  C   UNK     0     179.221 185.879 164.814  0.00  0.00     0.075 A 
HETATM   29  C   UNK     0     181.903 187.997 166.365  0.00  0.00     0.223 A 
HETATM   30  C   UNK     0     181.338 187.508 163.985  0.00  0.00     0.085 A 
HETATM   31  O   UNK     0     182.845 188.716 166.061  0.00  0.00    -0.284 OA
HETATM   32  C   UNK     0     180.536 186.864 163.041  0.00  0.00     0.074 A 
HETATM   33  C   UNK     0     179.480 186.052 163.454  0.00  0.00     0.071 A 
BRANCH  24  34
HETATM   34  C   UNK     0     180.055 186.637 169.419  0.00  0.00     0.004 A 
HETATM   35  C   UNK     0     180.201 185.344 169.922  0.00  0.00     0.053 A 
HETATM   36  C   UNK     0     179.794 185.051 171.223  0.00  0.00     0.099 A 
HETATM   37  C   UNK     0     179.239 186.050 172.022  0.00  0.00     0.098 A 
HETATM   38  C   UNK     0     179.092 187.343 171.520  0.00  0.00     0.040 A 
HETATM   39  C   UNK     0     179.500 187.636 170.219  0.00  0.00     0.017 A 
BRANCH  36  40
HETATM   40  O   UNK     0     179.941 183.783 171.703  0.00  0.00    -0.358 OA
HETATM   41  H   UNK     0     179.806 183.780 172.664  0.00  0.00     0.217 HD
ENDBRANCH  36  40
BRANCH  37  42
HETATM   42  O   UNK     0     178.838 185.776 173.295  0.00  0.00    -0.358 OA
HETATM   43  H   UNK     0     179.364 186.297 173.923  0.00  0.00     0.217 HD
ENDBRANCH  37  42
ENDBRANCH  24  34
BRANCH  30  44
HETATM   44  O   UNK     0     182.355 188.289 163.529  0.00  0.00    -0.360 OA
HETATM   45  H   UNK     0     182.006 188.939 162.894  0.00  0.00     0.217 HD
ENDBRANCH  30  44
BRANCH  33  46
HETATM   46  O   UNK     0     178.702 185.425 162.530  0.00  0.00    -0.361 OA
HETATM   47  H   UNK     0     179.188 185.377 161.689  0.00  0.00     0.217 HD
ENDBRANCH  33  46
ENDBRANCH  22  23
ENDBRANCH   6  22
BRANCH   3  48
HETATM   48  O   UNK     0     187.292 186.526 170.263  0.00  0.00    -0.390 OA
HETATM   49  H   UNK     0     187.900 187.161 169.849  0.00  0.00     0.210 HD
ENDBRANCH   3  48
BRANCH   5  50
HETATM   50  O   UNK     0     184.585 189.912 168.211  0.00  0.00    -0.388 OA
HETATM   51  H   UNK     0     184.517 190.780 168.644  0.00  0.00     0.210 HD
ENDBRANCH   5  50
BRANCH   4  52
HETATM   52  O   UNK     0     186.779 189.366 170.101  0.00  0.00    -0.390 OA
HETATM   53  H   UNK     0     187.496 189.626 169.498  0.00  0.00     0.210 HD
ENDBRANCH   4  52
TORSDOF 16
