MODEL 1
REMARK VINA RESULT:      -7.8      0.000      0.000
REMARK  6 active torsions:
REMARK  status: ('A' for Active; 'I' for Inactive)
REMARK    1  A    between atoms: O_2  and  C_12 
REMARK    2  A    between atoms: O_3  and  C_14 
REMARK    3  A    between atoms: O_5  and  C_16 
REMARK    4  A    between atoms: O_6  and  C_20 
REMARK    5  A    between atoms: O_7  and  C_22 
REMARK    6  A    between atoms: C_10  and  C_11 
ROOT
HETATM    1  O   UNK     0     150.699 156.986 151.191  0.00  0.00    -0.306 OA
HETATM    2  O   UNK     0     148.079 154.018 150.224  0.00  0.00    -0.284 OA
HETATM    3  C   UNK     0     148.516 156.332 150.355  0.00  0.00     0.084 A 
HETATM    4  C   UNK     0     149.457 157.299 150.705  0.00  0.00     0.096 A 
HETATM    5  C   UNK     0     151.039 155.649 151.327  0.00  0.00     0.123 A 
HETATM    6  C   UNK     0     150.221 154.621 151.034  0.00  0.00     0.152 A 
HETATM    7  C   UNK     0     148.865 154.911 150.510  0.00  0.00     0.223 A 
HETATM    8  C   UNK     0     147.264 156.711 149.866  0.00  0.00     0.085 A 
HETATM    9  C   UNK     0     149.148 158.653 150.569  0.00  0.00     0.075 A 
HETATM   10  C   UNK     0     147.899 159.035 150.080  0.00  0.00     0.071 A 
HETATM   11  C   UNK     0     146.959 158.065 149.730  0.00  0.00     0.074 A 
ENDROOT
BRANCH   5  12
HETATM   12  C   UNK     0     152.399 155.452 151.858  0.00  0.00     0.004 A 
HETATM   13  C   UNK     0     152.588 155.195 153.216  0.00  0.00     0.053 A 
HETATM   14  C   UNK     0     153.876 155.008 153.718  0.00  0.00     0.099 A 
HETATM   15  C   UNK     0     154.976 155.079 152.861  0.00  0.00     0.098 A 
HETATM   16  C   UNK     0     154.786 155.335 151.503  0.00  0.00     0.040 A 
HETATM   17  C   UNK     0     153.498 155.522 151.001  0.00  0.00     0.017 A 
BRANCH  14  18
HETATM   18  O   UNK     0     154.050 154.760 155.045  0.00  0.00    -0.358 OA
HETATM   19  H   UNK     0     153.563 153.958 155.296  0.00  0.00     0.217 HD
ENDBRANCH  14  18
BRANCH  15  20
HETATM   20  O   UNK     0     156.238 154.896 153.339  0.00  0.00    -0.358 OA
HETATM   21  H   UNK     0     156.588 154.048 153.024  0.00  0.00     0.217 HD
ENDBRANCH  15  20
ENDBRANCH   5  12
BRANCH   6  22
HETATM   22  O   UNK     0     150.578 153.301 151.212  0.00  0.00    -0.355 OA
HETATM   23  H   UNK     0     150.527 152.828 150.366  0.00  0.00     0.218 HD
ENDBRANCH   6  22
BRANCH   8  24
HETATM   24  O   UNK     0     146.309 155.806 149.510  0.00  0.00    -0.360 OA
HETATM   25  H   UNK     0     145.885 156.068 148.679  0.00  0.00     0.217 HD
ENDBRANCH   8  24
BRANCH  10  26
HETATM   26  O   UNK     0     147.597 160.356 149.947  0.00  0.00    -0.361 OA
HETATM   27  H   UNK     0     147.898 160.829 150.741  0.00  0.00     0.217 HD
ENDBRANCH  10  26
TORSDOF 6
ENDMDL
MODEL 2
REMARK VINA RESULT:      -7.6      2.178      6.811
REMARK  6 active torsions:
REMARK  status: ('A' for Active; 'I' for Inactive)
REMARK    1  A    between atoms: O_2  and  C_12 
REMARK    2  A    between atoms: O_3  and  C_14 
REMARK    3  A    between atoms: O_5  and  C_16 
REMARK    4  A    between atoms: O_6  and  C_20 
REMARK    5  A    between atoms: O_7  and  C_22 
REMARK    6  A    between atoms: C_10  and  C_11 
ROOT
HETATM    1  O   UNK     0     151.776 155.754 151.321  0.00  0.00    -0.306 OA
HETATM    2  O   UNK     0     153.367 152.005 151.186  0.00  0.00    -0.284 OA
HETATM    3  C   UNK     0     153.686 154.295 151.653  0.00  0.00     0.084 A 
HETATM    4  C   UNK     0     153.083 155.551 151.676  0.00  0.00     0.096 A 
HETATM    5  C   UNK     0     151.017 154.660 150.934  0.00  0.00     0.123 A 
HETATM    6  C   UNK     0     151.480 153.399 150.861  0.00  0.00     0.152 A 
HETATM    7  C   UNK     0     152.891 153.132 151.231  0.00  0.00     0.223 A 
HETATM    8  C   UNK     0     155.024 154.148 152.025  0.00  0.00     0.085 A 
HETATM    9  C   UNK     0     153.818 156.670 152.071  0.00  0.00     0.075 A 
HETATM   10  C   UNK     0     155.154 156.527 152.443  0.00  0.00     0.071 A 
HETATM   11  C   UNK     0     155.756 155.268 152.420  0.00  0.00     0.074 A 
ENDROOT
BRANCH   5  12
HETATM   12  C   UNK     0     149.632 155.017 150.579  0.00  0.00     0.004 A 
HETATM   13  C   UNK     0     149.354 155.586 149.337  0.00  0.00     0.053 A 
HETATM   14  C   UNK     0     148.043 155.923 149.001  0.00  0.00     0.099 A 
HETATM   15  C   UNK     0     147.009 155.690 149.909  0.00  0.00     0.098 A 
HETATM   16  C   UNK     0     147.287 155.120 151.151  0.00  0.00     0.040 A 
HETATM   17  C   UNK     0     148.598 154.783 151.486  0.00  0.00     0.017 A 
BRANCH  14  18
HETATM   18  O   UNK     0     147.783 156.481 147.786  0.00  0.00    -0.358 OA
HETATM   19  H   UNK     0     147.249 155.871 147.252  0.00  0.00     0.217 HD
ENDBRANCH  14  18
BRANCH  15  20
HETATM   20  O   UNK     0     145.724 156.013 149.591  0.00  0.00    -0.358 OA
HETATM   21  H   UNK     0     145.718 156.727 148.934  0.00  0.00     0.217 HD
ENDBRANCH  15  20
ENDBRANCH   5  12
BRANCH   6  22
HETATM   22  O   UNK     0     150.708 152.337 150.440  0.00  0.00    -0.355 OA
HETATM   23  H   UNK     0     150.201 152.589 149.652  0.00  0.00     0.218 HD
ENDBRANCH   6  22
BRANCH   8  24
HETATM   24  O   UNK     0     155.661 152.943 152.020  0.00  0.00    -0.360 OA
HETATM   25  H   UNK     0     155.196 152.315 151.447  0.00  0.00     0.217 HD
ENDBRANCH   8  24
BRANCH  10  26
HETATM   26  O   UNK     0     155.872 157.618 152.829  0.00  0.00    -0.361 OA
HETATM   27  H   UNK     0     156.140 158.114 152.036  0.00  0.00     0.217 HD
ENDBRANCH  10  26
TORSDOF 6
ENDMDL
MODEL 3
REMARK VINA RESULT:      -7.5      2.261      3.836
REMARK  6 active torsions:
REMARK  status: ('A' for Active; 'I' for Inactive)
REMARK    1  A    between atoms: O_2  and  C_12 
REMARK    2  A    between atoms: O_3  and  C_14 
REMARK    3  A    between atoms: O_5  and  C_16 
REMARK    4  A    between atoms: O_6  and  C_20 
REMARK    5  A    between atoms: O_7  and  C_22 
REMARK    6  A    between atoms: C_10  and  C_11 
ROOT
HETATM    1  O   UNK     0     151.181 157.487 151.018  0.00  0.00    -0.306 OA
HETATM    2  O   UNK     0     152.295 161.202 152.270  0.00  0.00    -0.284 OA
HETATM    3  C   UNK     0     150.636 159.836 151.298  0.00  0.00     0.084 A 
HETATM    4  C   UNK     0     150.317 158.542 150.889  0.00  0.00     0.096 A 
HETATM    5  C   UNK     0     152.422 157.715 151.593  0.00  0.00     0.123 A 
HETATM    6  C   UNK     0     152.856 158.914 152.021  0.00  0.00     0.152 A 
HETATM    7  C   UNK     0     151.956 160.087 151.897  0.00  0.00     0.223 A 
HETATM    8  C   UNK     0     149.714 160.873 151.140  0.00  0.00     0.085 A 
HETATM    9  C   UNK     0     149.072 158.280 150.315  0.00  0.00     0.075 A 
HETATM   10  C   UNK     0     148.149 159.314 150.157  0.00  0.00     0.071 A 
HETATM   11  C   UNK     0     148.470 160.608 150.568  0.00  0.00     0.074 A 
ENDROOT
BRANCH   5  12
HETATM   12  C   UNK     0     153.251 156.499 151.672  0.00  0.00     0.004 A 
HETATM   13  C   UNK     0     153.094 155.615 152.739  0.00  0.00     0.053 A 
HETATM   14  C   UNK     0     153.878 154.464 152.814  0.00  0.00     0.099 A 
HETATM   15  C   UNK     0     154.821 154.197 151.820  0.00  0.00     0.098 A 
HETATM   16  C   UNK     0     154.977 155.081 150.752  0.00  0.00     0.040 A 
HETATM   17  C   UNK     0     154.193 156.232 150.678  0.00  0.00     0.017 A 
BRANCH  14  18
HETATM   18  O   UNK     0     153.718 153.609 153.862  0.00  0.00    -0.358 OA
HETATM   19  H   UNK     0     153.436 154.104 154.648  0.00  0.00     0.217 HD
ENDBRANCH  14  18
BRANCH  15  20
HETATM   20  O   UNK     0     155.591 153.075 151.881  0.00  0.00    -0.358 OA
HETATM   21  H   UNK     0     155.512 152.578 151.051  0.00  0.00     0.217 HD
ENDBRANCH  15  20
ENDBRANCH   5  12
BRANCH   6  22
HETATM   22  O   UNK     0     154.109 159.114 152.559  0.00  0.00    -0.355 OA
HETATM   23  H   UNK     0     154.323 160.061 152.555  0.00  0.00     0.218 HD
ENDBRANCH   6  22
BRANCH   8  24
HETATM   24  O   UNK     0     149.977 162.154 151.523  0.00  0.00    -0.360 OA
HETATM   25  H   UNK     0     150.134 162.198 152.479  0.00  0.00     0.217 HD
ENDBRANCH   8  24
BRANCH  10  26
HETATM   26  O   UNK     0     146.934 159.059 149.598  0.00  0.00    -0.361 OA
HETATM   27  H   UNK     0     146.982 158.219 149.109  0.00  0.00     0.217 HD
ENDBRANCH  10  26
TORSDOF 6
ENDMDL
MODEL 4
REMARK VINA RESULT:      -7.5      4.813      6.886
REMARK  6 active torsions:
REMARK  status: ('A' for Active; 'I' for Inactive)
REMARK    1  A    between atoms: O_2  and  C_12 
REMARK    2  A    between atoms: O_3  and  C_14 
REMARK    3  A    between atoms: O_5  and  C_16 
REMARK    4  A    between atoms: O_6  and  C_20 
REMARK    5  A    between atoms: O_7  and  C_22 
REMARK    6  A    between atoms: C_10  and  C_11 
ROOT
HETATM    1  O   UNK     0     154.670 157.419 148.706  0.00  0.00    -0.306 OA
HETATM    2  O   UNK     0     156.484 160.780 150.124  0.00  0.00    -0.284 OA
HETATM    3  C   UNK     0     155.631 159.604 148.267  0.00  0.00     0.084 A 
HETATM    4  C   UNK     0     155.010 158.429 147.845  0.00  0.00     0.096 A 
HETATM    5  C   UNK     0     154.943 157.578 150.055  0.00  0.00     0.123 A 
HETATM    6  C   UNK     0     155.545 158.657 150.589  0.00  0.00     0.152 A 
HETATM    7  C   UNK     0     155.936 159.774 149.696  0.00  0.00     0.223 A 
HETATM    8  C   UNK     0     155.957 160.600 147.343  0.00  0.00     0.085 A 
HETATM    9  C   UNK     0     154.713 158.243 146.494  0.00  0.00     0.075 A 
HETATM   10  C   UNK     0     155.037 159.237 145.570  0.00  0.00     0.071 A 
HETATM   11  C   UNK     0     155.658 160.412 145.994  0.00  0.00     0.074 A 
ENDROOT
BRANCH   5  12
HETATM   12  C   UNK     0     154.527 156.421 150.867  0.00  0.00     0.004 A 
HETATM   13  C   UNK     0     155.347 155.297 150.953  0.00  0.00     0.053 A 
HETATM   14  C   UNK     0     154.953 154.202 151.722  0.00  0.00     0.099 A 
HETATM   15  C   UNK     0     153.737 154.232 152.406  0.00  0.00     0.098 A 
HETATM   16  C   UNK     0     152.917 155.357 152.321  0.00  0.00     0.040 A 
HETATM   17  C   UNK     0     153.311 156.452 151.552  0.00  0.00     0.017 A 
BRANCH  14  18
HETATM   18  O   UNK     0     155.761 153.108 151.796  0.00  0.00    -0.358 OA
HETATM   19  H   UNK     0     155.220 152.304 151.850  0.00  0.00     0.217 HD
ENDBRANCH  14  18
BRANCH  15  20
HETATM   20  O   UNK     0     153.342 153.170 153.162  0.00  0.00    -0.358 OA
HETATM   21  H   UNK     0     154.015 152.473 153.124  0.00  0.00     0.217 HD
ENDBRANCH  15  20
ENDBRANCH   5  12
BRANCH   6  22
HETATM   22  O   UNK     0     155.832 158.771 151.932  0.00  0.00    -0.355 OA
HETATM   23  H   UNK     0     156.534 159.428 152.065  0.00  0.00     0.218 HD
ENDBRANCH   6  22
BRANCH   8  24
HETATM   24  O   UNK     0     156.564 161.766 147.703  0.00  0.00    -0.360 OA
HETATM   25  H   UNK     0     156.027 162.241 148.355  0.00  0.00     0.217 HD
ENDBRANCH   8  24
BRANCH  10  26
HETATM   26  O   UNK     0     154.747 159.057 144.251  0.00  0.00    -0.361 OA
HETATM   27  H   UNK     0     155.314 159.644 143.722  0.00  0.00     0.217 HD
ENDBRANCH  10  26
TORSDOF 6
ENDMDL
MODEL 5
REMARK VINA RESULT:      -7.4      4.500      7.085
REMARK  6 active torsions:
REMARK  status: ('A' for Active; 'I' for Inactive)
REMARK    1  A    between atoms: O_2  and  C_12 
REMARK    2  A    between atoms: O_3  and  C_14 
REMARK    3  A    between atoms: O_5  and  C_16 
REMARK    4  A    between atoms: O_6  and  C_20 
REMARK    5  A    between atoms: O_7  and  C_22 
REMARK    6  A    between atoms: C_10  and  C_11 
ROOT
HETATM    1  O   UNK     0     154.303 153.535 149.151  0.00  0.00    -0.306 OA
HETATM    2  O   UNK     0     150.659 153.993 150.917  0.00  0.00    -0.284 OA
HETATM    3  C   UNK     0     152.994 154.298 151.047  0.00  0.00     0.084 A 
HETATM    4  C   UNK     0     154.209 154.112 150.390  0.00  0.00     0.096 A 
HETATM    5  C   UNK     0     153.137 153.132 148.518  0.00  0.00     0.123 A 
HETATM    6  C   UNK     0     151.904 153.247 149.046  0.00  0.00     0.152 A 
HETATM    7  C   UNK     0     151.755 153.860 150.387  0.00  0.00     0.223 A 
HETATM    8  C   UNK     0     152.960 154.891 152.311  0.00  0.00     0.085 A 
HETATM    9  C   UNK     0     155.399 154.517 150.996  0.00  0.00     0.075 A 
HETATM   10  C   UNK     0     155.368 155.109 152.259  0.00  0.00     0.071 A 
HETATM   11  C   UNK     0     154.151 155.296 152.914  0.00  0.00     0.074 A 
ENDROOT
BRANCH   5  12
HETATM   12  C   UNK     0     153.379 152.530 147.195  0.00  0.00     0.004 A 
HETATM   13  C   UNK     0     153.589 151.156 147.081  0.00  0.00     0.053 A 
HETATM   14  C   UNK     0     153.818 150.586 145.829  0.00  0.00     0.099 A 
HETATM   15  C   UNK     0     153.836 151.392 144.689  0.00  0.00     0.098 A 
HETATM   16  C   UNK     0     153.624 152.765 144.803  0.00  0.00     0.040 A 
HETATM   17  C   UNK     0     153.396 153.335 146.056  0.00  0.00     0.017 A 
BRANCH  14  18
HETATM   18  O   UNK     0     154.024 149.244 145.730  0.00  0.00    -0.358 OA
HETATM   19  H   UNK     0     154.765 149.069 145.127  0.00  0.00     0.217 HD
ENDBRANCH  14  18
BRANCH  15  20
HETATM   20  O   UNK     0     154.055 150.846 143.460  0.00  0.00    -0.358 OA
HETATM   21  H   UNK     0     154.271 151.547 142.825  0.00  0.00     0.217 HD
ENDBRANCH  15  20
ENDBRANCH   5  12
BRANCH   6  22
HETATM   22  O   UNK     0     150.767 152.806 148.404  0.00  0.00    -0.355 OA
HETATM   23  H   UNK     0     150.462 151.976 148.806  0.00  0.00     0.218 HD
ENDBRANCH   6  22
BRANCH   8  24
HETATM   24  O   UNK     0     151.799 155.096 152.995  0.00  0.00    -0.360 OA
HETATM   25  H   UNK     0     151.178 155.616 152.464  0.00  0.00     0.217 HD
ENDBRANCH   8  24
BRANCH  10  26
HETATM   26  O   UNK     0     156.529 155.505 152.851  0.00  0.00    -0.361 OA
HETATM   27  H   UNK     0     156.351 155.708 153.786  0.00  0.00     0.217 HD
ENDBRANCH  10  26
TORSDOF 6
ENDMDL
MODEL 6
REMARK VINA RESULT:      -7.4      9.253     12.317
REMARK  6 active torsions:
REMARK  status: ('A' for Active; 'I' for Inactive)
REMARK    1  A    between atoms: O_2  and  C_12 
REMARK    2  A    between atoms: O_3  and  C_14 
REMARK    3  A    between atoms: O_5  and  C_16 
REMARK    4  A    between atoms: O_6  and  C_20 
REMARK    5  A    between atoms: O_7  and  C_22 
REMARK    6  A    between atoms: C_10  and  C_11 
ROOT
HETATM    1  O   UNK     0     149.888 148.343 143.853  0.00  0.00    -0.306 OA
HETATM    2  O   UNK     0     148.944 151.328 146.462  0.00  0.00    -0.284 OA
HETATM    3  C   UNK     0     150.590 149.876 145.598  0.00  0.00     0.084 A 
HETATM    4  C   UNK     0     150.848 148.855 144.685  0.00  0.00     0.096 A 
HETATM    5  C   UNK     0     148.608 148.873 143.913  0.00  0.00     0.123 A 
HETATM    6  C   UNK     0     148.227 149.853 144.754  0.00  0.00     0.152 A 
HETATM    7  C   UNK     0     149.232 150.434 145.677  0.00  0.00     0.223 A 
HETATM    8  C   UNK     0     151.610 150.358 146.423  0.00  0.00     0.085 A 
HETATM    9  C   UNK     0     152.128 148.308 144.594  0.00  0.00     0.075 A 
HETATM   10  C   UNK     0     153.148 148.787 145.416  0.00  0.00     0.071 A 
HETATM   11  C   UNK     0     152.889 149.810 146.329  0.00  0.00     0.074 A 
ENDROOT
BRANCH   5  12
HETATM   12  C   UNK     0     147.676 148.235 142.968  0.00  0.00     0.004 A 
HETATM   13  C   UNK     0     147.001 147.069 143.331  0.00  0.00     0.053 A 
HETATM   14  C   UNK     0     146.118 146.466 142.436  0.00  0.00     0.099 A 
HETATM   15  C   UNK     0     145.910 147.028 141.176  0.00  0.00     0.098 A 
HETATM   16  C   UNK     0     146.583 148.194 140.813  0.00  0.00     0.040 A 
HETATM   17  C   UNK     0     147.466 148.797 141.708  0.00  0.00     0.017 A 
BRANCH  14  18
HETATM   18  O   UNK     0     145.467 145.327 142.801  0.00  0.00    -0.358 OA
HETATM   19  H   UNK     0     145.989 144.551 142.537  0.00  0.00     0.217 HD
ENDBRANCH  14  18
BRANCH  15  20
HETATM   20  O   UNK     0     145.048 146.448 140.294  0.00  0.00    -0.358 OA
HETATM   21  H   UNK     0     144.450 147.121 139.931  0.00  0.00     0.217 HD
ENDBRANCH  15  20
ENDBRANCH   5  12
BRANCH   6  22
HETATM   22  O   UNK     0     146.938 150.336 144.812  0.00  0.00    -0.355 OA
HETATM   23  H   UNK     0     146.900 151.105 145.403  0.00  0.00     0.218 HD
ENDBRANCH   6  22
BRANCH   8  24
HETATM   24  O   UNK     0     151.411 151.354 147.332  0.00  0.00    -0.360 OA
HETATM   25  H   UNK     0     152.085 152.043 147.234  0.00  0.00     0.217 HD
ENDBRANCH   8  24
BRANCH  10  26
HETATM   26  O   UNK     0     154.398 148.254 145.327  0.00  0.00    -0.361 OA
HETATM   27  H   UNK     0     154.353 147.429 144.814  0.00  0.00     0.217 HD
ENDBRANCH  10  26
TORSDOF 6
ENDMDL
MODEL 7
REMARK VINA RESULT:      -7.2      9.495     10.997
REMARK  6 active torsions:
REMARK  status: ('A' for Active; 'I' for Inactive)
REMARK    1  A    between atoms: O_2  and  C_12 
REMARK    2  A    between atoms: O_3  and  C_14 
REMARK    3  A    between atoms: O_5  and  C_16 
REMARK    4  A    between atoms: O_6  and  C_20 
REMARK    5  A    between atoms: O_7  and  C_22 
REMARK    6  A    between atoms: C_10  and  C_11 
ROOT
HETATM    1  O   UNK     0     150.638 148.896 142.690  0.00  0.00    -0.306 OA
HETATM    2  O   UNK     0     146.835 149.984 143.668  0.00  0.00    -0.284 OA
HETATM    3  C   UNK     0     148.257 148.749 142.248  0.00  0.00     0.084 A 
HETATM    4  C   UNK     0     149.580 148.416 141.964  0.00  0.00     0.096 A 
HETATM    5  C   UNK     0     150.380 149.737 143.761  0.00  0.00     0.123 A 
HETATM    6  C   UNK     0     149.152 150.141 144.134  0.00  0.00     0.152 A 
HETATM    7  C   UNK     0     147.976 149.652 143.374  0.00  0.00     0.223 A 
HETATM    8  C   UNK     0     147.217 148.231 141.471  0.00  0.00     0.085 A 
HETATM    9  C   UNK     0     149.871 147.564 140.899  0.00  0.00     0.075 A 
HETATM   10  C   UNK     0     148.836 147.044 140.122  0.00  0.00     0.071 A 
HETATM   11  C   UNK     0     147.512 147.378 140.408  0.00  0.00     0.074 A 
ENDROOT
BRANCH   5  12
HETATM   12  C   UNK     0     151.603 150.178 144.454  0.00  0.00     0.004 A 
HETATM   13  C   UNK     0     152.358 151.231 143.937  0.00  0.00     0.053 A 
HETATM   14  C   UNK     0     153.515 151.648 144.594  0.00  0.00     0.099 A 
HETATM   15  C   UNK     0     153.918 151.013 145.769  0.00  0.00     0.098 A 
HETATM   16  C   UNK     0     153.163 149.961 146.287  0.00  0.00     0.040 A 
HETATM   17  C   UNK     0     152.005 149.543 145.630  0.00  0.00     0.017 A 
BRANCH  14  18
HETATM   18  O   UNK     0     154.246 152.676 144.079  0.00  0.00    -0.358 OA
HETATM   19  H   UNK     0     153.705 153.180 143.450  0.00  0.00     0.217 HD
ENDBRANCH  14  18
BRANCH  15  20
HETATM   20  O   UNK     0     155.045 151.413 146.421  0.00  0.00    -0.358 OA
HETATM   21  H   UNK     0     154.960 152.344 146.681  0.00  0.00     0.217 HD
ENDBRANCH  15  20
ENDBRANCH   5  12
BRANCH   6  22
HETATM   22  O   UNK     0     148.931 151.006 145.184  0.00  0.00    -0.355 OA
HETATM   23  H   UNK     0     148.932 150.514 146.022  0.00  0.00     0.218 HD
ENDBRANCH   6  22
BRANCH   8  24
HETATM   24  O   UNK     0     145.907 148.524 141.707  0.00  0.00    -0.360 OA
HETATM   25  H   UNK     0     145.591 148.058 142.495  0.00  0.00     0.217 HD
ENDBRANCH   8  24
BRANCH  10  26
HETATM   26  O   UNK     0     149.119 146.211 139.082  0.00  0.00    -0.361 OA
HETATM   27  H   UNK     0     148.805 145.317 139.301  0.00  0.00     0.217 HD
ENDBRANCH  10  26
TORSDOF 6
ENDMDL
MODEL 8
REMARK VINA RESULT:      -7.2     10.375     13.224
REMARK  6 active torsions:
REMARK  status: ('A' for Active; 'I' for Inactive)
REMARK    1  A    between atoms: O_2  and  C_12 
REMARK    2  A    between atoms: O_3  and  C_14 
REMARK    3  A    between atoms: O_5  and  C_16 
REMARK    4  A    between atoms: O_6  and  C_20 
REMARK    5  A    between atoms: O_7  and  C_22 
REMARK    6  A    between atoms: C_10  and  C_11 
ROOT
HETATM    1  O   UNK     0     149.343 147.814 143.197  0.00  0.00    -0.306 OA
HETATM    2  O   UNK     0     147.468 150.983 144.944  0.00  0.00    -0.284 OA
HETATM    3  C   UNK     0     149.395 149.630 144.807  0.00  0.00     0.084 A 
HETATM    4  C   UNK     0     149.980 148.536 144.172  0.00  0.00     0.096 A 
HETATM    5  C   UNK     0     148.066 148.197 142.818  0.00  0.00     0.123 A 
HETATM    6  C   UNK     0     147.387 149.227 143.357  0.00  0.00     0.152 A 
HETATM    7  C   UNK     0     148.035 150.034 144.418  0.00  0.00     0.223 A 
HETATM    8  C   UNK     0     150.093 150.328 145.795  0.00  0.00     0.085 A 
HETATM    9  C   UNK     0     151.269 148.132 144.525  0.00  0.00     0.075 A 
HETATM   10  C   UNK     0     151.968 148.827 145.511  0.00  0.00     0.071 A 
HETATM   11  C   UNK     0     151.381 149.923 146.145  0.00  0.00     0.074 A 
ENDROOT
BRANCH   5  12
HETATM   12  C   UNK     0     147.497 147.340 141.764  0.00  0.00     0.004 A 
HETATM   13  C   UNK     0     148.063 147.332 140.489  0.00  0.00     0.053 A 
HETATM   14  C   UNK     0     147.524 146.520 139.491  0.00  0.00     0.099 A 
HETATM   15  C   UNK     0     146.419 145.714 139.769  0.00  0.00     0.098 A 
HETATM   16  C   UNK     0     145.854 145.721 141.043  0.00  0.00     0.040 A 
HETATM   17  C   UNK     0     146.392 146.533 142.041  0.00  0.00     0.017 A 
BRANCH  14  18
HETATM   18  O   UNK     0     148.084 146.522 138.249  0.00  0.00    -0.358 OA
HETATM   19  H   UNK     0     147.386 146.485 137.575  0.00  0.00     0.217 HD
ENDBRANCH  14  18
BRANCH  15  20
HETATM   20  O   UNK     0     145.886 144.915 138.803  0.00  0.00    -0.358 OA
HETATM   21  H   UNK     0     144.997 144.630 139.067  0.00  0.00     0.217 HD
ENDBRANCH  15  20
ENDBRANCH   5  12
BRANCH   6  22
HETATM   22  O   UNK     0     146.105 149.562 142.980  0.00  0.00    -0.355 OA
HETATM   23  H   UNK     0     145.578 149.786 143.764  0.00  0.00     0.218 HD
ENDBRANCH   6  22
BRANCH   8  24
HETATM   24  O   UNK     0     149.567 151.404 146.446  0.00  0.00    -0.360 OA
HETATM   25  H   UNK     0     149.944 152.227 146.102  0.00  0.00     0.217 HD
ENDBRANCH   8  24
BRANCH  10  26
HETATM   26  O   UNK     0     153.226 148.434 145.856  0.00  0.00    -0.361 OA
HETATM   27  H   UNK     0     153.742 148.284 145.045  0.00  0.00     0.217 HD
ENDBRANCH  10  26
TORSDOF 6
ENDMDL
MODEL 9
REMARK VINA RESULT:      -7.1      9.869     11.119
REMARK  6 active torsions:
REMARK  status: ('A' for Active; 'I' for Inactive)
REMARK    1  A    between atoms: O_2  and  C_12 
REMARK    2  A    between atoms: O_3  and  C_14 
REMARK    3  A    between atoms: O_5  and  C_16 
REMARK    4  A    between atoms: O_6  and  C_20 
REMARK    5  A    between atoms: O_7  and  C_22 
REMARK    6  A    between atoms: C_10  and  C_11 
ROOT
HETATM    1  O   UNK     0     149.748 149.697 143.279  0.00  0.00    -0.306 OA
HETATM    2  O   UNK     0     150.323 146.583 140.713  0.00  0.00    -0.284 OA
HETATM    3  C   UNK     0     148.834 148.164 141.634  0.00  0.00     0.084 A 
HETATM    4  C   UNK     0     148.703 149.224 142.529  0.00  0.00     0.096 A 
HETATM    5  C   UNK     0     150.992 149.103 143.129  0.00  0.00     0.123 A 
HETATM    6  C   UNK     0     151.250 148.070 142.307  0.00  0.00     0.152 A 
HETATM    7  C   UNK     0     150.148 147.521 141.480  0.00  0.00     0.223 A 
HETATM    8  C   UNK     0     147.732 147.724 140.896  0.00  0.00     0.085 A 
HETATM    9  C   UNK     0     147.466 149.849 142.694  0.00  0.00     0.075 A 
HETATM   10  C   UNK     0     146.364 149.411 141.959  0.00  0.00     0.071 A 
HETATM   11  C   UNK     0     146.497 148.351 141.063  0.00  0.00     0.074 A 
ENDROOT
BRANCH   5  12
HETATM   12  C   UNK     0     152.024 149.706 143.990  0.00  0.00     0.004 A 
HETATM   13  C   UNK     0     152.689 150.861 143.579  0.00  0.00     0.053 A 
HETATM   14  C   UNK     0     153.667 151.431 144.395  0.00  0.00     0.099 A 
HETATM   15  C   UNK     0     153.978 150.846 145.623  0.00  0.00     0.098 A 
HETATM   16  C   UNK     0     153.312 149.692 146.035  0.00  0.00     0.040 A 
HETATM   17  C   UNK     0     152.335 149.122 145.219  0.00  0.00     0.017 A 
BRANCH  14  18
HETATM   18  O   UNK     0     154.312 152.557 143.982  0.00  0.00    -0.358 OA
HETATM   19  H   UNK     0     154.989 152.326 143.326  0.00  0.00     0.217 HD
ENDBRANCH  14  18
BRANCH  15  20
HETATM   20  O   UNK     0     154.929 151.396 146.430  0.00  0.00    -0.358 OA
HETATM   21  H   UNK     0     155.722 150.837 146.428  0.00  0.00     0.217 HD
ENDBRANCH  15  20
ENDBRANCH   5  12
BRANCH   6  22
HETATM   22  O   UNK     0     152.491 147.480 142.206  0.00  0.00    -0.355 OA
HETATM   23  H   UNK     0     153.033 147.717 142.976  0.00  0.00     0.218 HD
ENDBRANCH   6  22
BRANCH   8  24
HETATM   24  O   UNK     0     147.807 146.693 140.009  0.00  0.00    -0.360 OA
HETATM   25  H   UNK     0     147.086 146.747 139.363  0.00  0.00     0.217 HD
ENDBRANCH   8  24
BRANCH  10  26
HETATM   26  O   UNK     0     145.157 150.021 142.119  0.00  0.00    -0.361 OA
HETATM   27  H   UNK     0     144.677 149.584 142.844  0.00  0.00     0.217 HD
ENDBRANCH  10  26
TORSDOF 6
ENDMDL
MODEL 10
REMARK VINA RESULT:      -7.1     17.201     18.780
REMARK  6 active torsions:
REMARK  status: ('A' for Active; 'I' for Inactive)
REMARK    1  A    between atoms: O_2  and  C_12 
REMARK    2  A    between atoms: O_3  and  C_14 
REMARK    3  A    between atoms: O_5  and  C_16 
REMARK    4  A    between atoms: O_6  and  C_20 
REMARK    5  A    between atoms: O_7  and  C_22 
REMARK    6  A    between atoms: C_10  and  C_11 
ROOT
HETATM    1  O   UNK     0     161.972 158.997 136.408  0.00  0.00    -0.306 OA
HETATM    2  O   UNK     0     160.866 155.203 135.413  0.00  0.00    -0.284 OA
HETATM    3  C   UNK     0     161.808 157.254 134.727  0.00  0.00     0.084 A 
HETATM    4  C   UNK     0     162.163 158.540 135.130  0.00  0.00     0.096 A 
HETATM    5  C   UNK     0     161.414 158.138 137.342  0.00  0.00     0.123 A 
HETATM    6  C   UNK     0     161.021 156.878 137.080  0.00  0.00     0.152 A 
HETATM    7  C   UNK     0     161.203 156.342 135.710  0.00  0.00     0.223 A 
HETATM    8  C   UNK     0     162.025 156.843 133.409  0.00  0.00     0.085 A 
HETATM    9  C   UNK     0     162.736 159.425 134.216  0.00  0.00     0.075 A 
HETATM   10  C   UNK     0     162.954 159.017 132.899  0.00  0.00     0.071 A 
HETATM   11  C   UNK     0     162.598 157.729 132.498  0.00  0.00     0.074 A 
ENDROOT
BRANCH   5  12
HETATM   12  C   UNK     0     161.266 158.753 138.673  0.00  0.00     0.004 A 
HETATM   13  C   UNK     0     162.289 158.638 139.613  0.00  0.00     0.053 A 
HETATM   14  C   UNK     0     162.148 159.221 140.873  0.00  0.00     0.099 A 
HETATM   15  C   UNK     0     160.983 159.919 141.192  0.00  0.00     0.098 A 
HETATM   16  C   UNK     0     159.960 160.035 140.251  0.00  0.00     0.040 A 
HETATM   17  C   UNK     0     160.101 159.452 138.991  0.00  0.00     0.017 A 
BRANCH  14  18
HETATM   18  O   UNK     0     163.153 159.100 141.784  0.00  0.00    -0.358 OA
HETATM   19  H   UNK     0     164.012 159.142 141.334  0.00  0.00     0.217 HD
ENDBRANCH  14  18
BRANCH  15  20
HETATM   20  O   UNK     0     160.835 160.494 142.418  0.00  0.00    -0.358 OA
HETATM   21  H   UNK     0     161.468 160.105 143.041  0.00  0.00     0.217 HD
ENDBRANCH  15  20
ENDBRANCH   5  12
BRANCH   6  22
HETATM   22  O   UNK     0     160.439 156.060 138.024  0.00  0.00    -0.355 OA
HETATM   23  H   UNK     0     160.647 156.384 138.915  0.00  0.00     0.218 HD
ENDBRANCH   6  22
BRANCH   8  24
HETATM   24  O   UNK     0     161.696 155.598 132.965  0.00  0.00    -0.360 OA
HETATM   25  H   UNK     0     160.804 155.357 133.257  0.00  0.00     0.217 HD
ENDBRANCH   8  24
BRANCH  10  26
HETATM   26  O   UNK     0     163.513 159.879 132.006  0.00  0.00    -0.361 OA
HETATM   27  H   UNK     0     162.912 159.982 131.248  0.00  0.00     0.217 HD
ENDBRANCH  10  26
TORSDOF 6
ENDMDL
