MODEL 1
REMARK VINA RESULT:      -5.1      0.000      0.000
REMARK  12 active torsions:
REMARK  status: ('A' for Active; 'I' for Inactive)
REMARK    1  A    between atoms: C_4  and  O_25 
REMARK    2  A    between atoms: C_6  and  O_23 
REMARK    3  A    between atoms: C_9  and  O_27 
REMARK    4  A    between atoms: C_10  and  C_11 
REMARK    5  A    between atoms: C_13  and  O_21 
REMARK    6  A    between atoms: C_14  and  O_19 
REMARK    7  A    between atoms: C_15  and  O_17 
REMARK    8  A    between atoms: O_27  and  C_28 
REMARK    9  A    between atoms: C_28  and  C_30 
REMARK   10  A    between atoms: C_32  and  O_40 
REMARK   11  A    between atoms: C_33  and  O_38 
REMARK   12  A    between atoms: C_34  and  O_36 
ROOT
ATOM      1  O   UNL     1      -4.951  -5.075   8.845  0.00  0.00    -0.480 OA
ATOM      2  C   UNL     1      -6.095  -4.772   9.537  0.00  0.00     0.132 A 
ATOM      3  C   UNL     1      -6.190  -3.467  10.027  0.00  0.00     0.091 A 
ATOM      4  C   UNL     1      -7.320  -3.069  10.739  0.00  0.00     0.124 A 
ATOM      5  C   UNL     1      -8.360  -3.970  10.956  0.00  0.00     0.091 A 
ATOM      6  C   UNL     1      -8.273  -5.270  10.454  0.00  0.00     0.127 A 
ATOM      7  C   UNL     1      -7.146  -5.678   9.728  0.00  0.00     0.039 A 
ATOM      8  C   UNL     1      -7.076  -7.082   9.189  0.00  0.00     0.091 C 
ATOM      9  C   UNL     1      -5.956  -7.219   8.160  0.00  0.00     0.226 C 
ATOM     10  C   UNL     1      -4.708  -6.479   8.662  0.00  0.00     0.245 C 
ENDROOT
BRANCH   9  11
ATOM     11  O   UNL     1      -6.388  -6.662   6.918  0.00  0.00    -0.453 OA
BRANCH  11  12
ATOM     12  C   UNL     1      -6.791  -7.557   5.978  0.00  0.00     0.340 C 
ATOM     13  O   UNL     1      -7.412  -8.588   6.182  0.00  0.00    -0.245 OA
BRANCH  12  14
ATOM     14  C   UNL     1      -6.368  -7.114   4.625  0.00  0.00     0.066 A 
ATOM     15  C   UNL     1      -5.193  -7.610   4.098  0.00  0.00     0.064 A 
ATOM     16  C   UNL     1      -4.796  -7.195   2.827  0.00  0.00     0.163 A 
ATOM     17  C   UNL     1      -5.583  -6.293   2.111  0.00  0.00     0.201 A 
ATOM     18  C   UNL     1      -6.767  -5.807   2.665  0.00  0.00     0.163 A 
ATOM     19  C   UNL     1      -7.163  -6.222   3.936  0.00  0.00     0.064 A 
BRANCH  16  20
ATOM     20  O   UNL     1      -3.638  -7.678   2.295  0.00  0.00    -0.503 OA
ATOM     21  H   UNL     1      -3.317  -7.058   1.618  0.00  0.00     0.292 HD
ENDBRANCH  16  20
BRANCH  17  22
ATOM     22  O   UNL     1      -5.195  -5.888   0.868  0.00  0.00    -0.501 OA
ATOM     23  H   UNL     1      -4.469  -6.464   0.570  0.00  0.00     0.292 HD
ENDBRANCH  17  22
BRANCH  18  24
ATOM     24  O   UNL     1      -7.544  -4.926   1.975  0.00  0.00    -0.503 OA
ATOM     25  H   UNL     1      -7.630  -4.107   2.492  0.00  0.00     0.292 HD
ENDBRANCH  18  24
ENDBRANCH  12  14
ENDBRANCH  11  12
ENDBRANCH   9  11
BRANCH  10  26
ATOM     26  C   UNL     1      -3.526  -6.674   7.731  0.00  0.00     0.003 A 
ATOM     27  C   UNL     1      -3.258  -7.935   7.201  0.00  0.00     0.056 A 
ATOM     28  C   UNL     1      -2.170  -8.114   6.346  0.00  0.00     0.162 A 
ATOM     29  C   UNL     1      -1.351  -7.031   6.023  0.00  0.00     0.201 A 
ATOM     30  C   UNL     1      -1.621  -5.770   6.555  0.00  0.00     0.162 A 
ATOM     31  C   UNL     1      -2.708  -5.591   7.410  0.00  0.00     0.056 A 
BRANCH  28  32
ATOM     32  O   UNL     1      -1.918  -9.350   5.832  0.00  0.00    -0.503 OA
ATOM     33  H   UNL     1      -2.332  -9.419   4.955  0.00  0.00     0.292 HD
ENDBRANCH  28  32
BRANCH  29  34
ATOM     34  O   UNL     1      -0.290  -7.206   5.186  0.00  0.00    -0.501 OA
ATOM     35  H   UNL     1      -0.524  -6.847   4.312  0.00  0.00     0.292 HD
ENDBRANCH  29  34
BRANCH  30  36
ATOM     36  O   UNL     1      -0.828  -4.705   6.247  0.00  0.00    -0.503 OA
ATOM     37  H   UNL     1      -0.119  -4.999   5.651  0.00  0.00     0.292 HD
ENDBRANCH  30  36
ENDBRANCH  10  26
BRANCH   6  38
ATOM     38  O   UNL     1      -9.308  -6.129  10.684  0.00  0.00    -0.506 OA
ATOM     39  H   UNL     1      -8.953  -7.018  10.853  0.00  0.00     0.292 HD
ENDBRANCH   6  38
BRANCH   4  40
ATOM     40  O   UNL     1      -7.407  -1.800  11.224  0.00  0.00    -0.507 OA
ATOM     41  H   UNL     1      -7.462  -1.179  10.477  0.00  0.00     0.292 HD
ENDBRANCH   4  40
TORSDOF 12
ENDMDL
MODEL 2
REMARK VINA RESULT:      -5.1      0.121      1.453
REMARK  12 active torsions:
REMARK  status: ('A' for Active; 'I' for Inactive)
REMARK    1  A    between atoms: C_4  and  O_25 
REMARK    2  A    between atoms: C_6  and  O_23 
REMARK    3  A    between atoms: C_9  and  O_27 
REMARK    4  A    between atoms: C_10  and  C_11 
REMARK    5  A    between atoms: C_13  and  O_21 
REMARK    6  A    between atoms: C_14  and  O_19 
REMARK    7  A    between atoms: C_15  and  O_17 
REMARK    8  A    between atoms: O_27  and  C_28 
REMARK    9  A    between atoms: C_28  and  C_30 
REMARK   10  A    between atoms: C_32  and  O_40 
REMARK   11  A    between atoms: C_33  and  O_38 
REMARK   12  A    between atoms: C_34  and  O_36 
ROOT
ATOM      1  O   UNL     1      -4.959  -5.064   8.835  0.00  0.00    -0.480 OA
ATOM      2  C   UNL     1      -6.103  -4.747   9.520  0.00  0.00     0.132 A 
ATOM      3  C   UNL     1      -6.166  -3.455  10.049  0.00  0.00     0.091 A 
ATOM      4  C   UNL     1      -7.295  -3.044  10.756  0.00  0.00     0.124 A 
ATOM      5  C   UNL     1      -8.364  -3.919  10.931  0.00  0.00     0.091 A 
ATOM      6  C   UNL     1      -8.309  -5.204  10.390  0.00  0.00     0.127 A 
ATOM      7  C   UNL     1      -7.184  -5.626   9.669  0.00  0.00     0.039 A 
ATOM      8  C   UNL     1      -7.148  -7.014   9.088  0.00  0.00     0.091 C 
ATOM      9  C   UNL     1      -6.017  -7.155   8.072  0.00  0.00     0.226 C 
ATOM     10  C   UNL     1      -4.755  -6.469   8.613  0.00  0.00     0.245 C 
ENDROOT
BRANCH   9  11
ATOM     11  O   UNL     1      -6.414  -6.547   6.841  0.00  0.00    -0.453 OA
BRANCH  11  12
ATOM     12  C   UNL     1      -6.921  -7.390   5.904  0.00  0.00     0.340 C 
ATOM     13  O   UNL     1      -7.644  -8.351   6.113  0.00  0.00    -0.245 OA
BRANCH  12  14
ATOM     14  C   UNL     1      -6.473  -6.988   4.547  0.00  0.00     0.066 A 
ATOM     15  C   UNL     1      -7.253  -6.112   3.819  0.00  0.00     0.064 A 
ATOM     16  C   UNL     1      -6.831  -5.734   2.544  0.00  0.00     0.163 A 
ATOM     17  C   UNL     1      -5.638  -6.239   2.025  0.00  0.00     0.201 A 
ATOM     18  C   UNL     1      -4.867  -7.122   2.781  0.00  0.00     0.163 A 
ATOM     19  C   UNL     1      -5.290  -7.501   4.056  0.00  0.00     0.064 A 
BRANCH  16  20
ATOM     20  O   UNL     1      -7.591  -4.869   1.816  0.00  0.00    -0.503 OA
ATOM     21  H   UNL     1      -8.446  -5.288   1.616  0.00  0.00     0.292 HD
ENDBRANCH  16  20
BRANCH  17  22
ATOM     22  O   UNL     1      -5.226  -5.869   0.780  0.00  0.00    -0.501 OA
ATOM     23  H   UNL     1      -5.333  -6.630   0.182  0.00  0.00     0.292 HD
ENDBRANCH  17  22
BRANCH  18  24
ATOM     24  O   UNL     1      -3.701  -7.622   2.286  0.00  0.00    -0.503 OA
ATOM     25  H   UNL     1      -3.068  -7.733   3.016  0.00  0.00     0.292 HD
ENDBRANCH  18  24
ENDBRANCH  12  14
ENDBRANCH  11  12
ENDBRANCH   9  11
BRANCH  10  26
ATOM     26  C   UNL     1      -3.566  -6.671   7.694  0.00  0.00     0.003 A 
ATOM     27  C   UNL     1      -3.309  -7.931   7.156  0.00  0.00     0.056 A 
ATOM     28  C   UNL     1      -2.214  -8.118   6.312  0.00  0.00     0.162 A 
ATOM     29  C   UNL     1      -1.378  -7.044   6.006  0.00  0.00     0.201 A 
ATOM     30  C   UNL     1      -1.636  -5.783   6.546  0.00  0.00     0.162 A 
ATOM     31  C   UNL     1      -2.730  -5.597   7.390  0.00  0.00     0.056 A 
BRANCH  28  32
ATOM     32  O   UNL     1      -1.973  -9.353   5.791  0.00  0.00    -0.503 OA
ATOM     33  H   UNL     1      -2.811  -9.844   5.738  0.00  0.00     0.292 HD
ENDBRANCH  28  32
BRANCH  29  34
ATOM     34  O   UNL     1      -0.309  -7.226   5.180  0.00  0.00    -0.501 OA
ATOM     35  H   UNL     1      -0.629  -7.226   4.260  0.00  0.00     0.292 HD
ENDBRANCH  29  34
BRANCH  30  36
ATOM     36  O   UNL     1      -0.827  -4.727   6.256  0.00  0.00    -0.503 OA
ATOM     37  H   UNL     1      -0.643  -4.721   5.300  0.00  0.00     0.292 HD
ENDBRANCH  30  36
ENDBRANCH  10  26
BRANCH   6  38
ATOM     38  O   UNL     1      -9.372  -6.038  10.580  0.00  0.00    -0.506 OA
ATOM     39  H   UNL     1      -9.551  -6.117  11.533  0.00  0.00     0.292 HD
ENDBRANCH   6  38
BRANCH   4  40
ATOM     40  O   UNL     1      -7.350  -1.788  11.278  0.00  0.00    -0.507 OA
ATOM     41  H   UNL     1      -6.901  -1.784  12.141  0.00  0.00     0.292 HD
ENDBRANCH   4  40
TORSDOF 12
ENDMDL
MODEL 3
REMARK VINA RESULT:      -5.0      9.605     11.968
REMARK  12 active torsions:
REMARK  status: ('A' for Active; 'I' for Inactive)
REMARK    1  A    between atoms: C_4  and  O_25 
REMARK    2  A    between atoms: C_6  and  O_23 
REMARK    3  A    between atoms: C_9  and  O_27 
REMARK    4  A    between atoms: C_10  and  C_11 
REMARK    5  A    between atoms: C_13  and  O_21 
REMARK    6  A    between atoms: C_14  and  O_19 
REMARK    7  A    between atoms: C_15  and  O_17 
REMARK    8  A    between atoms: O_27  and  C_28 
REMARK    9  A    between atoms: C_28  and  C_30 
REMARK   10  A    between atoms: C_32  and  O_40 
REMARK   11  A    between atoms: C_33  and  O_38 
REMARK   12  A    between atoms: C_34  and  O_36 
ROOT
ATOM      1  O   UNL     1      -0.613   4.284   9.828  0.00  0.00    -0.480 OA
ATOM      2  C   UNL     1       0.172   3.620  10.733  0.00  0.00     0.132 A 
ATOM      3  C   UNL     1      -0.442   3.263  11.936  0.00  0.00     0.091 A 
ATOM      4  C   UNL     1       0.280   2.580  12.914  0.00  0.00     0.124 A 
ATOM      5  C   UNL     1       1.613   2.247  12.689  0.00  0.00     0.091 A 
ATOM      6  C   UNL     1       2.224   2.589  11.482  0.00  0.00     0.127 A 
ATOM      7  C   UNL     1       1.505   3.267  10.488  0.00  0.00     0.039 A 
ATOM      8  C   UNL     1       2.181   3.620   9.190  0.00  0.00     0.091 C 
ATOM      9  C   UNL     1       1.159   4.034   8.133  0.00  0.00     0.226 C 
ATOM     10  C   UNL     1       0.104   4.947   8.774  0.00  0.00     0.245 C 
ENDROOT
BRANCH   9  11
ATOM     11  O   UNL     1       0.535   2.865   7.601  0.00  0.00    -0.453 OA
BRANCH  11  12
ATOM     12  C   UNL     1       1.024   2.425   6.412  0.00  0.00     0.340 C 
ATOM     13  O   UNL     1       2.184   2.127   6.174  0.00  0.00    -0.245 OA
BRANCH  12  14
ATOM     14  C   UNL     1      -0.060   2.349   5.401  0.00  0.00     0.066 A 
ATOM     15  C   UNL     1      -0.945   1.290   5.450  0.00  0.00     0.064 A 
ATOM     16  C   UNL     1      -1.964   1.219   4.500  0.00  0.00     0.163 A 
ATOM     17  C   UNL     1      -2.077   2.208   3.522  0.00  0.00     0.201 A 
ATOM     18  C   UNL     1      -1.171   3.268   3.494  0.00  0.00     0.163 A 
ATOM     19  C   UNL     1      -0.151   3.338   4.444  0.00  0.00     0.064 A 
BRANCH  16  20
ATOM     20  O   UNL     1      -2.845   0.180   4.538  0.00  0.00    -0.503 OA
ATOM     21  H   UNL     1      -3.525   0.315   3.856  0.00  0.00     0.292 HD
ENDBRANCH  16  20
BRANCH  17  22
ATOM     22  O   UNL     1      -3.073   2.139   2.594  0.00  0.00    -0.501 OA
ATOM     23  H   UNL     1      -3.409   1.225   2.572  0.00  0.00     0.292 HD
ENDBRANCH  17  22
BRANCH  18  24
ATOM     24  O   UNL     1      -1.270   4.240   2.545  0.00  0.00    -0.503 OA
ATOM     25  H   UNL     1      -2.210   4.402   2.355  0.00  0.00     0.292 HD
ENDBRANCH  18  24
ENDBRANCH  12  14
ENDBRANCH  11  12
ENDBRANCH   9  11
BRANCH  10  26
ATOM     26  C   UNL     1      -0.877   5.480   7.747  0.00  0.00     0.003 A 
ATOM     27  C   UNL     1      -2.247   5.310   7.941  0.00  0.00     0.056 A 
ATOM     28  C   UNL     1      -3.150   5.799   6.997  0.00  0.00     0.162 A 
ATOM     29  C   UNL     1      -2.681   6.458   5.859  0.00  0.00     0.201 A 
ATOM     30  C   UNL     1      -1.310   6.627   5.667  0.00  0.00     0.162 A 
ATOM     31  C   UNL     1      -0.407   6.137   6.611  0.00  0.00     0.056 A 
BRANCH  28  32
ATOM     32  O   UNL     1      -4.486   5.629   7.196  0.00  0.00    -0.503 OA
ATOM     33  H   UNL     1      -4.954   5.784   6.358  0.00  0.00     0.292 HD
ENDBRANCH  28  32
BRANCH  29  34
ATOM     34  O   UNL     1      -3.563   6.937   4.938  0.00  0.00    -0.501 OA
ATOM     35  H   UNL     1      -4.430   6.523   5.098  0.00  0.00     0.292 HD
ENDBRANCH  29  34
BRANCH  30  36
ATOM     36  O   UNL     1      -0.839   7.267   4.560  0.00  0.00    -0.503 OA
ATOM     37  H   UNL     1       0.131   7.197   4.542  0.00  0.00     0.292 HD
ENDBRANCH  30  36
ENDBRANCH  10  26
BRANCH   6  38
ATOM     38  O   UNL     1       3.532   2.249  11.293  0.00  0.00    -0.506 OA
ATOM     39  H   UNL     1       3.587   1.555  10.614  0.00  0.00     0.292 HD
ENDBRANCH   6  38
BRANCH   4  40
ATOM     40  O   UNL     1      -0.318   2.242  14.089  0.00  0.00    -0.507 OA
ATOM     41  H   UNL     1      -0.443   1.277  14.114  0.00  0.00     0.292 HD
ENDBRANCH   4  40
TORSDOF 12
ENDMDL
MODEL 4
REMARK VINA RESULT:      -5.0      9.663     12.077
REMARK  12 active torsions:
REMARK  status: ('A' for Active; 'I' for Inactive)
REMARK    1  A    between atoms: C_4  and  O_25 
REMARK    2  A    between atoms: C_6  and  O_23 
REMARK    3  A    between atoms: C_9  and  O_27 
REMARK    4  A    between atoms: C_10  and  C_11 
REMARK    5  A    between atoms: C_13  and  O_21 
REMARK    6  A    between atoms: C_14  and  O_19 
REMARK    7  A    between atoms: C_15  and  O_17 
REMARK    8  A    between atoms: O_27  and  C_28 
REMARK    9  A    between atoms: C_28  and  C_30 
REMARK   10  A    between atoms: C_32  and  O_40 
REMARK   11  A    between atoms: C_33  and  O_38 
REMARK   12  A    between atoms: C_34  and  O_36 
ROOT
ATOM      1  O   UNL     1      -0.552   4.322   9.778  0.00  0.00    -0.480 OA
ATOM      2  C   UNL     1       0.230   3.642  10.676  0.00  0.00     0.132 A 
ATOM      3  C   UNL     1      -0.383   3.288  11.881  0.00  0.00     0.091 A 
ATOM      4  C   UNL     1       0.335   2.591  12.851  0.00  0.00     0.124 A 
ATOM      5  C   UNL     1       1.662   2.240  12.617  0.00  0.00     0.091 A 
ATOM      6  C   UNL     1       2.271   2.580  11.408  0.00  0.00     0.127 A 
ATOM      7  C   UNL     1       1.556   3.272  10.422  0.00  0.00     0.039 A 
ATOM      8  C   UNL     1       2.230   3.622   9.122  0.00  0.00     0.091 C 
ATOM      9  C   UNL     1       1.208   4.055   8.073  0.00  0.00     0.226 C 
ATOM     10  C   UNL     1       0.169   4.980   8.724  0.00  0.00     0.245 C 
ENDROOT
BRANCH   9  11
ATOM     11  O   UNL     1       0.565   2.898   7.538  0.00  0.00    -0.453 OA
BRANCH  11  12
ATOM     12  C   UNL     1       1.014   2.482   6.325  0.00  0.00     0.340 C 
ATOM     13  O   UNL     1       2.167   2.205   6.038  0.00  0.00    -0.245 OA
BRANCH  12  14
ATOM     14  C   UNL     1      -0.109   2.402   5.356  0.00  0.00     0.066 A 
ATOM     15  C   UNL     1      -0.290   3.436   4.459  0.00  0.00     0.064 A 
ATOM     16  C   UNL     1      -1.344   3.361   3.549  0.00  0.00     0.163 A 
ATOM     17  C   UNL     1      -2.194   2.255   3.554  0.00  0.00     0.201 A 
ATOM     18  C   UNL     1      -1.989   1.223   4.470  0.00  0.00     0.163 A 
ATOM     19  C   UNL     1      -0.936   1.298   5.381  0.00  0.00     0.064 A 
BRANCH  16  20
ATOM     20  O   UNL     1      -1.533   4.374   2.657  0.00  0.00    -0.503 OA
ATOM     21  H   UNL     1      -1.143   4.121   1.802  0.00  0.00     0.292 HD
ENDBRANCH  16  20
BRANCH  17  22
ATOM     22  O   UNL     1      -3.224   2.181   2.664  0.00  0.00    -0.501 OA
ATOM     23  H   UNL     1      -2.967   1.574   1.947  0.00  0.00     0.292 HD
ENDBRANCH  17  22
BRANCH  18  24
ATOM     24  O   UNL     1      -2.812   0.137   4.486  0.00  0.00    -0.503 OA
ATOM     25  H   UNL     1      -3.429   0.218   5.234  0.00  0.00     0.292 HD
ENDBRANCH  18  24
ENDBRANCH  12  14
ENDBRANCH  11  12
ENDBRANCH   9  11
BRANCH  10  26
ATOM     26  C   UNL     1      -0.811   5.531   7.705  0.00  0.00     0.003 A 
ATOM     27  C   UNL     1      -0.342   6.257   6.612  0.00  0.00     0.056 A 
ATOM     28  C   UNL     1      -1.242   6.765   5.676  0.00  0.00     0.162 A 
ATOM     29  C   UNL     1      -2.611   6.547   5.834  0.00  0.00     0.201 A 
ATOM     30  C   UNL     1      -3.079   5.821   6.931  0.00  0.00     0.162 A 
ATOM     31  C   UNL     1      -2.178   5.313   7.867  0.00  0.00     0.056 A 
BRANCH  28  32
ATOM     32  O   UNL     1      -0.774   7.471   4.609  0.00  0.00    -0.503 OA
ATOM     33  H   UNL     1      -1.304   7.251   3.825  0.00  0.00     0.292 HD
ENDBRANCH  28  32
BRANCH  29  34
ATOM     34  O   UNL     1      -3.491   7.042   4.919  0.00  0.00    -0.501 OA
ATOM     35  H   UNL     1      -3.167   7.910   4.620  0.00  0.00     0.292 HD
ENDBRANCH  29  34
BRANCH  30  36
ATOM     36  O   UNL     1      -4.413   5.602   7.098  0.00  0.00    -0.503 OA
ATOM     37  H   UNL     1      -4.666   4.798   6.612  0.00  0.00     0.292 HD
ENDBRANCH  30  36
ENDBRANCH  10  26
BRANCH   6  38
ATOM     38  O   UNL     1       3.573   2.223  11.210  0.00  0.00    -0.506 OA
ATOM     39  H   UNL     1       3.658   1.259  11.306  0.00  0.00     0.292 HD
ENDBRANCH   6  38
BRANCH   4  40
ATOM     40  O   UNL     1      -0.261   2.255  14.028  0.00  0.00    -0.507 OA
ATOM     41  H   UNL     1      -0.029   1.336  14.249  0.00  0.00     0.292 HD
ENDBRANCH   4  40
TORSDOF 12
ENDMDL
MODEL 5
REMARK VINA RESULT:      -4.9      3.775      8.267
REMARK  12 active torsions:
REMARK  status: ('A' for Active; 'I' for Inactive)
REMARK    1  A    between atoms: C_4  and  O_25 
REMARK    2  A    between atoms: C_6  and  O_23 
REMARK    3  A    between atoms: C_9  and  O_27 
REMARK    4  A    between atoms: C_10  and  C_11 
REMARK    5  A    between atoms: C_13  and  O_21 
REMARK    6  A    between atoms: C_14  and  O_19 
REMARK    7  A    between atoms: C_15  and  O_17 
REMARK    8  A    between atoms: O_27  and  C_28 
REMARK    9  A    between atoms: C_28  and  C_30 
REMARK   10  A    between atoms: C_32  and  O_40 
REMARK   11  A    between atoms: C_33  and  O_38 
REMARK   12  A    between atoms: C_34  and  O_36 
ROOT
ATOM      1  O   UNL     1       1.862  -8.338   6.031  0.00  0.00    -0.480 OA
ATOM      2  C   UNL     1       2.941  -8.736   6.777  0.00  0.00     0.132 A 
ATOM      3  C   UNL     1       4.132  -8.040   6.555  0.00  0.00     0.091 A 
ATOM      4  C   UNL     1       5.280  -8.374   7.273  0.00  0.00     0.124 A 
ATOM      5  C   UNL     1       5.238  -9.397   8.217  0.00  0.00     0.091 A 
ATOM      6  C   UNL     1       4.045 -10.083   8.450  0.00  0.00     0.127 A 
ATOM      7  C   UNL     1       2.882  -9.750   7.742  0.00  0.00     0.039 A 
ATOM      8  C   UNL     1       1.605 -10.497   8.014  0.00  0.00     0.091 C 
ATOM      9  C   UNL     1       0.405  -9.771   7.408  0.00  0.00     0.226 C 
ATOM     10  C   UNL     1       0.768  -9.269   6.004  0.00  0.00     0.245 C 
ENDROOT
BRANCH   9  11
ATOM     11  O   UNL     1       0.051  -8.670   8.245  0.00  0.00    -0.453 OA
BRANCH  11  12
ATOM     12  C   UNL     1      -1.084  -8.825   8.976  0.00  0.00     0.340 C 
ATOM     13  O   UNL     1      -1.206  -9.499   9.986  0.00  0.00    -0.245 OA
BRANCH  12  14
ATOM     14  C   UNL     1      -2.199  -8.050   8.374  0.00  0.00     0.066 A 
ATOM     15  C   UNL     1      -1.995  -6.720   8.064  0.00  0.00     0.064 A 
ATOM     16  C   UNL     1      -3.042  -5.992   7.499  0.00  0.00     0.163 A 
ATOM     17  C   UNL     1      -4.269  -6.609   7.255  0.00  0.00     0.201 A 
ATOM     18  C   UNL     1      -4.450  -7.954   7.576  0.00  0.00     0.163 A 
ATOM     19  C   UNL     1      -3.403  -8.682   8.143  0.00  0.00     0.064 A 
BRANCH  16  20
ATOM     20  O   UNL     1      -2.853  -4.679   7.186  0.00  0.00    -0.503 OA
ATOM     21  H   UNL     1      -1.911  -4.460   7.292  0.00  0.00     0.292 HD
ENDBRANCH  16  20
BRANCH  17  22
ATOM     22  O   UNL     1      -5.292  -5.898   6.701  0.00  0.00    -0.501 OA
ATOM     23  H   UNL     1      -6.073  -5.984   7.276  0.00  0.00     0.292 HD
ENDBRANCH  17  22
BRANCH  18  24
ATOM     24  O   UNL     1      -5.643  -8.568   7.343  0.00  0.00    -0.503 OA
ATOM     25  H   UNL     1      -6.364  -7.943   7.532  0.00  0.00     0.292 HD
ENDBRANCH  18  24
ENDBRANCH  12  14
ENDBRANCH  11  12
ENDBRANCH   9  11
BRANCH  10  26
ATOM     26  C   UNL     1      -0.422  -8.635   5.307  0.00  0.00     0.003 A 
ATOM     27  C   UNL     1      -0.374  -7.295   4.930  0.00  0.00     0.056 A 
ATOM     28  C   UNL     1      -1.468  -6.712   4.290  0.00  0.00     0.162 A 
ATOM     29  C   UNL     1      -2.609  -7.470   4.029  0.00  0.00     0.201 A 
ATOM     30  C   UNL     1      -2.656  -8.812   4.409  0.00  0.00     0.162 A 
ATOM     31  C   UNL     1      -1.562  -9.395   5.048  0.00  0.00     0.056 A 
BRANCH  28  32
ATOM     32  O   UNL     1      -1.410  -5.401   3.924  0.00  0.00    -0.503 OA
ATOM     33  H   UNL     1      -0.478  -5.133   3.854  0.00  0.00     0.292 HD
ENDBRANCH  28  32
BRANCH  29  34
ATOM     34  O   UNL     1      -3.677  -6.901   3.403  0.00  0.00    -0.501 OA
ATOM     35  H   UNL     1      -3.381  -6.555   2.543  0.00  0.00     0.292 HD
ENDBRANCH  29  34
BRANCH  30  36
ATOM     36  O   UNL     1      -3.765  -9.564   4.161  0.00  0.00    -0.503 OA
ATOM     37  H   UNL     1      -3.674  -9.986   3.288  0.00  0.00     0.292 HD
ENDBRANCH  30  36
ENDBRANCH  10  26
BRANCH   6  38
ATOM     38  O   UNL     1       4.037 -11.081   9.380  0.00  0.00    -0.506 OA
ATOM     39  H   UNL     1       4.880 -11.072   9.865  0.00  0.00     0.292 HD
ENDBRANCH   6  38
BRANCH   4  40
ATOM     40  O   UNL     1       6.441  -7.701   7.049  0.00  0.00    -0.507 OA
ATOM     41  H   UNL     1       6.683  -7.791   6.111  0.00  0.00     0.292 HD
ENDBRANCH   4  40
TORSDOF 12
ENDMDL
MODEL 6
REMARK VINA RESULT:      -4.9      3.771      8.137
REMARK  12 active torsions:
REMARK  status: ('A' for Active; 'I' for Inactive)
REMARK    1  A    between atoms: C_4  and  O_25 
REMARK    2  A    between atoms: C_6  and  O_23 
REMARK    3  A    between atoms: C_9  and  O_27 
REMARK    4  A    between atoms: C_10  and  C_11 
REMARK    5  A    between atoms: C_13  and  O_21 
REMARK    6  A    between atoms: C_14  and  O_19 
REMARK    7  A    between atoms: C_15  and  O_17 
REMARK    8  A    between atoms: O_27  and  C_28 
REMARK    9  A    between atoms: C_28  and  C_30 
REMARK   10  A    between atoms: C_32  and  O_40 
REMARK   11  A    between atoms: C_33  and  O_38 
REMARK   12  A    between atoms: C_34  and  O_36 
ROOT
ATOM      1  O   UNL     1       1.859  -8.326   6.029  0.00  0.00    -0.480 OA
ATOM      2  C   UNL     1       2.938  -8.721   6.778  0.00  0.00     0.132 A 
ATOM      3  C   UNL     1       4.125  -8.015   6.565  0.00  0.00     0.091 A 
ATOM      4  C   UNL     1       5.271  -8.345   7.287  0.00  0.00     0.124 A 
ATOM      5  C   UNL     1       5.232  -9.374   8.224  0.00  0.00     0.091 A 
ATOM      6  C   UNL     1       4.043 -10.070   8.448  0.00  0.00     0.127 A 
ATOM      7  C   UNL     1       2.882  -9.741   7.736  0.00  0.00     0.039 A 
ATOM      8  C   UNL     1       1.608 -10.499   7.998  0.00  0.00     0.091 C 
ATOM      9  C   UNL     1       0.406  -9.778   7.391  0.00  0.00     0.226 C 
ATOM     10  C   UNL     1       0.772  -9.265   5.991  0.00  0.00     0.245 C 
ENDROOT
BRANCH   9  11
ATOM     11  O   UNL     1       0.040  -8.684   8.233  0.00  0.00    -0.453 OA
BRANCH  11  12
ATOM     12  C   UNL     1      -1.101  -8.849   8.952  0.00  0.00     0.340 C 
ATOM     13  O   UNL     1      -1.231  -9.535   9.953  0.00  0.00    -0.245 OA
BRANCH  12  14
ATOM     14  C   UNL     1      -2.211  -8.068   8.350  0.00  0.00     0.066 A 
ATOM     15  C   UNL     1      -3.412  -8.700   8.099  0.00  0.00     0.064 A 
ATOM     16  C   UNL     1      -4.455  -7.966   7.533  0.00  0.00     0.163 A 
ATOM     17  C   UNL     1      -4.274  -6.616   7.232  0.00  0.00     0.201 A 
ATOM     18  C   UNL     1      -3.051  -6.000   7.496  0.00  0.00     0.163 A 
ATOM     19  C   UNL     1      -2.008  -6.734   8.060  0.00  0.00     0.064 A 
BRANCH  16  20
ATOM     20  O   UNL     1      -5.646  -8.578   7.282  0.00  0.00    -0.503 OA
ATOM     21  H   UNL     1      -5.512  -9.541   7.270  0.00  0.00     0.292 HD
ENDBRANCH  16  20
BRANCH  17  22
ATOM     22  O   UNL     1      -5.294  -5.898   6.680  0.00  0.00    -0.501 OA
ATOM     23  H   UNL     1      -5.904  -6.518   6.243  0.00  0.00     0.292 HD
ENDBRANCH  17  22
BRANCH  18  24
ATOM     24  O   UNL     1      -2.862  -4.682   7.206  0.00  0.00    -0.503 OA
ATOM     25  H   UNL     1      -3.079  -4.150   7.991  0.00  0.00     0.292 HD
ENDBRANCH  18  24
ENDBRANCH  12  14
ENDBRANCH  11  12
ENDBRANCH   9  11
BRANCH  10  26
ATOM     26  C   UNL     1      -0.419  -8.635   5.293  0.00  0.00     0.003 A 
ATOM     27  C   UNL     1      -1.554  -9.400   5.029  0.00  0.00     0.056 A 
ATOM     28  C   UNL     1      -2.648  -8.822   4.386  0.00  0.00     0.162 A 
ATOM     29  C   UNL     1      -2.607  -7.480   4.008  0.00  0.00     0.201 A 
ATOM     30  C   UNL     1      -1.470  -6.716   4.273  0.00  0.00     0.162 A 
ATOM     31  C   UNL     1      -0.375  -7.294   4.915  0.00  0.00     0.056 A 
BRANCH  28  32
ATOM     32  O   UNL     1      -3.753  -9.578   4.134  0.00  0.00    -0.503 OA
ATOM     33  H   UNL     1      -4.172  -9.263   3.314  0.00  0.00     0.292 HD
ENDBRANCH  28  32
BRANCH  29  34
ATOM     34  O   UNL     1      -3.677  -6.915   3.381  0.00  0.00    -0.501 OA
ATOM     35  H   UNL     1      -4.477  -7.113   3.900  0.00  0.00     0.292 HD
ENDBRANCH  29  34
BRANCH  30  36
ATOM     36  O   UNL     1      -1.416  -5.404   3.908  0.00  0.00    -0.503 OA
ATOM     37  H   UNL     1      -2.002  -5.263   3.145  0.00  0.00     0.292 HD
ENDBRANCH  30  36
ENDBRANCH  10  26
BRANCH   6  38
ATOM     38  O   UNL     1       4.038 -11.073   9.372  0.00  0.00    -0.506 OA
ATOM     39  H   UNL     1       3.343 -11.714   9.144  0.00  0.00     0.292 HD
ENDBRANCH   6  38
BRANCH   4  40
ATOM     40  O   UNL     1       6.429  -7.662   7.072  0.00  0.00    -0.507 OA
ATOM     41  H   UNL     1       7.168  -8.161   7.464  0.00  0.00     0.292 HD
ENDBRANCH   4  40
TORSDOF 12
ENDMDL
MODEL 7
REMARK VINA RESULT:      -4.9     10.405     13.239
REMARK  12 active torsions:
REMARK  status: ('A' for Active; 'I' for Inactive)
REMARK    1  A    between atoms: C_4  and  O_25 
REMARK    2  A    between atoms: C_6  and  O_23 
REMARK    3  A    between atoms: C_9  and  O_27 
REMARK    4  A    between atoms: C_10  and  C_11 
REMARK    5  A    between atoms: C_13  and  O_21 
REMARK    6  A    between atoms: C_14  and  O_19 
REMARK    7  A    between atoms: C_15  and  O_17 
REMARK    8  A    between atoms: O_27  and  C_28 
REMARK    9  A    between atoms: C_28  and  C_30 
REMARK   10  A    between atoms: C_32  and  O_40 
REMARK   11  A    between atoms: C_33  and  O_38 
REMARK   12  A    between atoms: C_34  and  O_36 
ROOT
ATOM      1  O   UNL     1      -1.741   4.367   5.461  0.00  0.00    -0.480 OA
ATOM      2  C   UNL     1      -2.276   4.170   4.214  0.00  0.00     0.132 A 
ATOM      3  C   UNL     1      -3.171   5.145   3.768  0.00  0.00     0.091 A 
ATOM      4  C   UNL     1      -3.760   5.028   2.509  0.00  0.00     0.124 A 
ATOM      5  C   UNL     1      -3.451   3.942   1.694  0.00  0.00     0.091 A 
ATOM      6  C   UNL     1      -2.545   2.975   2.133  0.00  0.00     0.127 A 
ATOM      7  C   UNL     1      -1.939   3.087   3.392  0.00  0.00     0.039 A 
ATOM      8  C   UNL     1      -0.960   2.037   3.843  0.00  0.00     0.091 C 
ATOM      9  C   UNL     1      -0.171   2.510   5.062  0.00  0.00     0.226 C 
ATOM     10  C   UNL     1      -1.120   3.210   6.044  0.00  0.00     0.245 C 
ENDROOT
BRANCH   9  11
ATOM     11  O   UNL     1       0.849   3.416   4.637  0.00  0.00    -0.453 OA
BRANCH  11  12
ATOM     12  C   UNL     1       2.111   2.912   4.610  0.00  0.00     0.340 C 
ATOM     13  O   UNL     1       2.563   2.140   3.779  0.00  0.00    -0.245 OA
BRANCH  12  14
ATOM     14  C   UNL     1       2.902   3.431   5.755  0.00  0.00     0.066 A 
ATOM     15  C   UNL     1       2.775   4.760   6.106  0.00  0.00     0.064 A 
ATOM     16  C   UNL     1       3.518   5.247   7.181  0.00  0.00     0.163 A 
ATOM     17  C   UNL     1       4.371   4.395   7.882  0.00  0.00     0.201 A 
ATOM     18  C   UNL     1       4.481   3.056   7.509  0.00  0.00     0.163 A 
ATOM     19  C   UNL     1       3.739   2.569   6.433  0.00  0.00     0.064 A 
BRANCH  16  20
ATOM     20  O   UNL     1       3.400   6.557   7.538  0.00  0.00    -0.503 OA
ATOM     21  H   UNL     1       2.556   6.684   8.005  0.00  0.00     0.292 HD
ENDBRANCH  16  20
BRANCH  17  22
ATOM     22  O   UNL     1       5.096   4.871   8.934  0.00  0.00    -0.501 OA
ATOM     23  H   UNL     1       5.833   5.402   8.584  0.00  0.00     0.292 HD
ENDBRANCH  17  22
BRANCH  18  24
ATOM     24  O   UNL     1       5.310   2.214   8.186  0.00  0.00    -0.503 OA
ATOM     25  H   UNL     1       6.028   1.931   7.593  0.00  0.00     0.292 HD
ENDBRANCH  18  24
ENDBRANCH  12  14
ENDBRANCH  11  12
ENDBRANCH   9  11
BRANCH  10  26
ATOM     26  C   UNL     1      -0.412   3.606   7.326  0.00  0.00     0.003 A 
ATOM     27  C   UNL     1      -0.427   4.934   7.749  0.00  0.00     0.056 A 
ATOM     28  C   UNL     1       0.224   5.297   8.927  0.00  0.00     0.162 A 
ATOM     29  C   UNL     1       0.892   4.332   9.682  0.00  0.00     0.201 A 
ATOM     30  C   UNL     1       0.907   3.003   9.257  0.00  0.00     0.162 A 
ATOM     31  C   UNL     1       0.255   2.639   8.079  0.00  0.00     0.056 A 
BRANCH  28  32
ATOM     32  O   UNL     1       0.202   6.598   9.332  0.00  0.00    -0.503 OA
ATOM     33  H   UNL     1      -0.375   7.105   8.735  0.00  0.00     0.292 HD
ENDBRANCH  28  32
BRANCH  29  34
ATOM     34  O   UNL     1       1.527   4.687  10.834  0.00  0.00    -0.501 OA
ATOM     35  H   UNL     1       2.462   4.865  10.627  0.00  0.00     0.292 HD
ENDBRANCH  29  34
BRANCH  30  36
ATOM     36  O   UNL     1       1.556   2.051   9.985  0.00  0.00    -0.503 OA
ATOM     37  H   UNL     1       1.323   2.156  10.923  0.00  0.00     0.292 HD
ENDBRANCH  30  36
ENDBRANCH  10  26
BRANCH   6  38
ATOM     38  O   UNL     1      -2.265   1.923   1.311  0.00  0.00    -0.506 OA
ATOM     39  H   UNL     1      -2.236   1.105   1.837  0.00  0.00     0.292 HD
ENDBRANCH   6  38
BRANCH   4  40
ATOM     40  O   UNL     1      -4.639   5.974   2.080  0.00  0.00    -0.507 OA
ATOM     41  H   UNL     1      -5.527   5.755   2.412  0.00  0.00     0.292 HD
ENDBRANCH   4  40
TORSDOF 12
ENDMDL
MODEL 8
REMARK VINA RESULT:      -4.9     10.410     13.179
REMARK  12 active torsions:
REMARK  status: ('A' for Active; 'I' for Inactive)
REMARK    1  A    between atoms: C_4  and  O_25 
REMARK    2  A    between atoms: C_6  and  O_23 
REMARK    3  A    between atoms: C_9  and  O_27 
REMARK    4  A    between atoms: C_10  and  C_11 
REMARK    5  A    between atoms: C_13  and  O_21 
REMARK    6  A    between atoms: C_14  and  O_19 
REMARK    7  A    between atoms: C_15  and  O_17 
REMARK    8  A    between atoms: O_27  and  C_28 
REMARK    9  A    between atoms: C_28  and  C_30 
REMARK   10  A    between atoms: C_32  and  O_40 
REMARK   11  A    between atoms: C_33  and  O_38 
REMARK   12  A    between atoms: C_34  and  O_36 
ROOT
ATOM      1  O   UNL     1      -1.721   4.373   5.479  0.00  0.00    -0.480 OA
ATOM      2  C   UNL     1      -2.261   4.176   4.235  0.00  0.00     0.132 A 
ATOM      3  C   UNL     1      -3.157   5.152   3.791  0.00  0.00     0.091 A 
ATOM      4  C   UNL     1      -3.751   5.036   2.536  0.00  0.00     0.124 A 
ATOM      5  C   UNL     1      -3.447   3.950   1.719  0.00  0.00     0.091 A 
ATOM      6  C   UNL     1      -2.541   2.982   2.155  0.00  0.00     0.127 A 
ATOM      7  C   UNL     1      -1.929   3.093   3.411  0.00  0.00     0.039 A 
ATOM      8  C   UNL     1      -0.950   2.042   3.858  0.00  0.00     0.091 C 
ATOM      9  C   UNL     1      -0.154   2.514   5.073  0.00  0.00     0.226 C 
ATOM     10  C   UNL     1      -1.098   3.216   6.060  0.00  0.00     0.245 C 
ENDROOT
BRANCH   9  11
ATOM     11  O   UNL     1       0.865   3.418   4.645  0.00  0.00    -0.453 OA
BRANCH  11  12
ATOM     12  C   UNL     1       2.126   2.913   4.614  0.00  0.00     0.340 C 
ATOM     13  O   UNL     1       2.575   2.140   3.783  0.00  0.00    -0.245 OA
BRANCH  12  14
ATOM     14  C   UNL     1       2.920   3.433   5.756  0.00  0.00     0.066 A 
ATOM     15  C   UNL     1       3.749   2.567   6.442  0.00  0.00     0.064 A 
ATOM     16  C   UNL     1       4.495   3.056   7.515  0.00  0.00     0.163 A 
ATOM     17  C   UNL     1       4.397   4.400   7.878  0.00  0.00     0.201 A 
ATOM     18  C   UNL     1       3.554   5.254   7.168  0.00  0.00     0.163 A 
ATOM     19  C   UNL     1       2.807   4.765   6.097  0.00  0.00     0.064 A 
BRANCH  16  20
ATOM     20  O   UNL     1       5.317   2.212   8.198  0.00  0.00    -0.503 OA
ATOM     21  H   UNL     1       4.802   1.446   8.505  0.00  0.00     0.292 HD
ENDBRANCH  16  20
BRANCH  17  22
ATOM     22  O   UNL     1       5.128   4.877   8.925  0.00  0.00    -0.501 OA
ATOM     23  H   UNL     1       4.572   4.850   9.725  0.00  0.00     0.292 HD
ENDBRANCH  17  22
BRANCH  18  24
ATOM     24  O   UNL     1       3.450   6.568   7.514  0.00  0.00    -0.503 OA
ATOM     25  H   UNL     1       2.512   6.827   7.496  0.00  0.00     0.292 HD
ENDBRANCH  18  24
ENDBRANCH  12  14
ENDBRANCH  11  12
ENDBRANCH   9  11
BRANCH  10  26
ATOM     26  C   UNL     1      -0.384   3.610   7.339  0.00  0.00     0.003 A 
ATOM     27  C   UNL     1      -0.385   4.940   7.753  0.00  0.00     0.056 A 
ATOM     28  C   UNL     1       0.273   5.303   8.929  0.00  0.00     0.162 A 
ATOM     29  C   UNL     1       0.930   4.335   9.689  0.00  0.00     0.201 A 
ATOM     30  C   UNL     1       0.929   3.003   9.272  0.00  0.00     0.162 A 
ATOM     31  C   UNL     1       0.272   2.640   8.096  0.00  0.00     0.056 A 
BRANCH  28  32
ATOM     32  O   UNL     1       0.265   6.606   9.326  0.00  0.00    -0.503 OA
ATOM     33  H   UNL     1      -0.207   7.137   8.662  0.00  0.00     0.292 HD
ENDBRANCH  28  32
BRANCH  29  34
ATOM     34  O   UNL     1       1.570   4.689  10.838  0.00  0.00    -0.501 OA
ATOM     35  H   UNL     1       2.069   5.509  10.672  0.00  0.00     0.292 HD
ENDBRANCH  29  34
BRANCH  30  36
ATOM     36  O   UNL     1       1.568   2.048  10.004  0.00  0.00    -0.503 OA
ATOM     37  H   UNL     1       1.356   2.175  10.945  0.00  0.00     0.292 HD
ENDBRANCH  30  36
ENDBRANCH  10  26
BRANCH   6  38
ATOM     38  O   UNL     1      -2.265   1.929   1.331  0.00  0.00    -0.506 OA
ATOM     39  H   UNL     1      -2.023   1.157   1.871  0.00  0.00     0.292 HD
ENDBRANCH   6  38
BRANCH   4  40
ATOM     40  O   UNL     1      -4.631   5.983   2.110  0.00  0.00    -0.507 OA
ATOM     41  H   UNL     1      -4.697   5.940   1.140  0.00  0.00     0.292 HD
ENDBRANCH   4  40
TORSDOF 12
ENDMDL
MODEL 9
REMARK VINA RESULT:      -4.9     10.019     13.125
REMARK  12 active torsions:
REMARK  status: ('A' for Active; 'I' for Inactive)
REMARK    1  A    between atoms: C_4  and  O_25 
REMARK    2  A    between atoms: C_6  and  O_23 
REMARK    3  A    between atoms: C_9  and  O_27 
REMARK    4  A    between atoms: C_10  and  C_11 
REMARK    5  A    between atoms: C_13  and  O_21 
REMARK    6  A    between atoms: C_14  and  O_19 
REMARK    7  A    between atoms: C_15  and  O_17 
REMARK    8  A    between atoms: O_27  and  C_28 
REMARK    9  A    between atoms: C_28  and  C_30 
REMARK   10  A    between atoms: C_32  and  O_40 
REMARK   11  A    between atoms: C_33  and  O_38 
REMARK   12  A    between atoms: C_34  and  O_36 
ROOT
ATOM      1  O   UNL     1      -1.236   4.152   0.713  0.00  0.00    -0.480 OA
ATOM      2  C   UNL     1      -1.990   3.405  -0.153  0.00  0.00     0.132 A 
ATOM      3  C   UNL     1      -1.533   3.346  -1.473  0.00  0.00     0.091 A 
ATOM      4  C   UNL     1      -2.236   2.604  -2.422  0.00  0.00     0.124 A 
ATOM      5  C   UNL     1      -3.389   1.916  -2.054  0.00  0.00     0.091 A 
ATOM      6  C   UNL     1      -3.838   1.962  -0.733  0.00  0.00     0.127 A 
ATOM      7  C   UNL     1      -3.135   2.696   0.232  0.00  0.00     0.039 A 
ATOM      8  C   UNL     1      -3.632   2.726   1.652  0.00  0.00     0.091 C 
ATOM      9  C   UNL     1      -2.565   3.279   2.596  0.00  0.00     0.226 C 
ATOM     10  C   UNL     1      -1.889   4.494   1.946  0.00  0.00     0.245 C 
ENDROOT
BRANCH   9  11
ATOM     11  O   UNL     1      -1.596   2.262   2.856  0.00  0.00    -0.453 OA
BRANCH  11  12
ATOM     12  C   UNL     1      -1.726   1.614   4.043  0.00  0.00     0.340 C 
ATOM     13  O   UNL     1      -2.471   0.675   4.276  0.00  0.00    -0.245 OA
BRANCH  12  14
ATOM     14  C   UNL     1      -0.821   2.207   5.059  0.00  0.00     0.066 A 
ATOM     15  C   UNL     1       0.514   2.375   4.748  0.00  0.00     0.064 A 
ATOM     16  C   UNL     1       1.364   2.932   5.703  0.00  0.00     0.163 A 
ATOM     17  C   UNL     1       0.861   3.311   6.948  0.00  0.00     0.201 A 
ATOM     18  C   UNL     1      -0.492   3.133   7.238  0.00  0.00     0.163 A 
ATOM     19  C   UNL     1      -1.341   2.574   6.283  0.00  0.00     0.064 A 
BRANCH  16  20
ATOM     20  O   UNL     1       2.683   3.104   5.408  0.00  0.00    -0.503 OA
ATOM     21  H   UNL     1       3.190   3.151   6.237  0.00  0.00     0.292 HD
ENDBRANCH  16  20
BRANCH  17  22
ATOM     22  O   UNL     1       1.692   3.857   7.881  0.00  0.00    -0.501 OA
ATOM     23  H   UNL     1       2.455   3.264   7.998  0.00  0.00     0.292 HD
ENDBRANCH  17  22
BRANCH  18  24
ATOM     24  O   UNL     1      -0.995   3.499   8.450  0.00  0.00    -0.503 OA
ATOM     25  H   UNL     1      -1.383   2.718   8.881  0.00  0.00     0.292 HD
ENDBRANCH  18  24
ENDBRANCH  12  14
ENDBRANCH  11  12
ENDBRANCH   9  11
BRANCH  10  26
ATOM     26  C   UNL     1      -0.895   5.154   2.883  0.00  0.00     0.003 A 
ATOM     27  C   UNL     1      -1.318   5.626   4.124  0.00  0.00     0.056 A 
ATOM     28  C   UNL     1      -0.404   6.233   4.986  0.00  0.00     0.162 A 
ATOM     29  C   UNL     1       0.931   6.368   4.605  0.00  0.00     0.201 A 
ATOM     30  C   UNL     1       1.352   5.895   3.361  0.00  0.00     0.162 A 
ATOM     31  C   UNL     1       0.439   5.288   2.500  0.00  0.00     0.056 A 
BRANCH  28  32
ATOM     32  O   UNL     1      -0.827   6.690   6.198  0.00  0.00    -0.503 OA
ATOM     33  H   UNL     1      -1.619   7.240   6.070  0.00  0.00     0.292 HD
ENDBRANCH  28  32
BRANCH  29  34
ATOM     34  O   UNL     1       1.824   6.960   5.447  0.00  0.00    -0.501 OA
ATOM     35  H   UNL     1       1.328   7.475   6.108  0.00  0.00     0.292 HD
ENDBRANCH  29  34
BRANCH  30  36
ATOM     36  O   UNL     1       2.653   6.021   2.977  0.00  0.00    -0.503 OA
ATOM     37  H   UNL     1       2.810   6.935   2.683  0.00  0.00     0.292 HD
ENDBRANCH  30  36
ENDBRANCH  10  26
BRANCH   6  38
ATOM     38  O   UNL     1      -4.972   1.278  -0.405  0.00  0.00    -0.506 OA
ATOM     39  H   UNL     1      -5.731   1.886  -0.433  0.00  0.00     0.292 HD
ENDBRANCH   6  38
BRANCH   4  40
ATOM     40  O   UNL     1      -1.794   2.555  -3.708  0.00  0.00    -0.507 OA
ATOM     41  H   UNL     1      -2.139   1.749  -4.130  0.00  0.00     0.292 HD
ENDBRANCH   4  40
TORSDOF 12
ENDMDL
MODEL 10
REMARK VINA RESULT:      -4.9     10.007     13.169
REMARK  12 active torsions:
REMARK  status: ('A' for Active; 'I' for Inactive)
REMARK    1  A    between atoms: C_4  and  O_25 
REMARK    2  A    between atoms: C_6  and  O_23 
REMARK    3  A    between atoms: C_9  and  O_27 
REMARK    4  A    between atoms: C_10  and  C_11 
REMARK    5  A    between atoms: C_13  and  O_21 
REMARK    6  A    between atoms: C_14  and  O_19 
REMARK    7  A    between atoms: C_15  and  O_17 
REMARK    8  A    between atoms: O_27  and  C_28 
REMARK    9  A    between atoms: C_28  and  C_30 
REMARK   10  A    between atoms: C_32  and  O_40 
REMARK   11  A    between atoms: C_33  and  O_38 
REMARK   12  A    between atoms: C_34  and  O_36 
ROOT
ATOM      1  O   UNL     1      -1.251   4.138   0.716  0.00  0.00    -0.480 OA
ATOM      2  C   UNL     1      -1.968   3.377  -0.171  0.00  0.00     0.132 A 
ATOM      3  C   UNL     1      -1.479   3.333  -1.479  0.00  0.00     0.091 A 
ATOM      4  C   UNL     1      -2.141   2.579  -2.446  0.00  0.00     0.124 A 
ATOM      5  C   UNL     1      -3.287   1.864  -2.108  0.00  0.00     0.091 A 
ATOM      6  C   UNL     1      -3.768   1.896  -0.798  0.00  0.00     0.127 A 
ATOM      7  C   UNL     1      -3.105   2.642   0.185  0.00  0.00     0.039 A 
ATOM      8  C   UNL     1      -3.637   2.656   1.593  0.00  0.00     0.091 C 
ATOM      9  C   UNL     1      -2.605   3.229   2.563  0.00  0.00     0.226 C 
ATOM     10  C   UNL     1      -1.942   4.462   1.934  0.00  0.00     0.245 C 
ENDROOT
BRANCH   9  11
ATOM     11  O   UNL     1      -1.621   2.233   2.844  0.00  0.00    -0.453 OA
BRANCH  11  12
ATOM     12  C   UNL     1      -1.750   1.595   4.036  0.00  0.00     0.340 C 
ATOM     13  O   UNL     1      -2.492   0.657   4.277  0.00  0.00    -0.245 OA
BRANCH  12  14
ATOM     14  C   UNL     1      -0.848   2.201   5.049  0.00  0.00     0.066 A 
ATOM     15  C   UNL     1      -1.372   2.581   6.268  0.00  0.00     0.064 A 
ATOM     16  C   UNL     1      -0.525   3.150   7.219  0.00  0.00     0.163 A 
ATOM     17  C   UNL     1       0.829   3.326   6.930  0.00  0.00     0.201 A 
ATOM     18  C   UNL     1       1.335   2.933   5.691  0.00  0.00     0.163 A 
ATOM     19  C   UNL     1       0.487   2.366   4.740  0.00  0.00     0.064 A 
BRANCH  16  20
ATOM     20  O   UNL     1      -1.030   3.527   8.426  0.00  0.00    -0.503 OA
ATOM     21  H   UNL     1      -1.289   4.464   8.383  0.00  0.00     0.292 HD
ENDBRANCH  16  20
BRANCH  17  22
ATOM     22  O   UNL     1       1.657   3.881   7.860  0.00  0.00    -0.501 OA
ATOM     23  H   UNL     1       1.176   3.940   8.704  0.00  0.00     0.292 HD
ENDBRANCH  17  22
BRANCH  18  24
ATOM     24  O   UNL     1       2.655   3.100   5.398  0.00  0.00    -0.503 OA
ATOM     25  H   UNL     1       2.852   2.651   4.558  0.00  0.00     0.292 HD
ENDBRANCH  18  24
ENDBRANCH  12  14
ENDBRANCH  11  12
ENDBRANCH   9  11
BRANCH  10  26
ATOM     26  C   UNL     1      -0.985   5.140   2.896  0.00  0.00     0.003 A 
ATOM     27  C   UNL     1       0.358   5.284   2.556  0.00  0.00     0.056 A 
ATOM     28  C   UNL     1       1.238   5.907   3.441  0.00  0.00     0.162 A 
ATOM     29  C   UNL     1       0.773   6.385   4.667  0.00  0.00     0.201 A 
ATOM     30  C   UNL     1      -0.572   6.239   5.006  0.00  0.00     0.162 A 
ATOM     31  C   UNL     1      -1.452   5.616   4.121  0.00  0.00     0.056 A 
BRANCH  28  32
ATOM     32  O   UNL     1       2.549   6.044   3.097  0.00  0.00    -0.503 OA
ATOM     33  H   UNL     1       3.100   5.607   3.769  0.00  0.00     0.292 HD
ENDBRANCH  28  32
BRANCH  29  34
ATOM     34  O   UNL     1       1.633   6.994   5.531  0.00  0.00    -0.501 OA
ATOM     35  H   UNL     1       1.470   7.954   5.501  0.00  0.00     0.292 HD
ENDBRANCH  29  34
BRANCH  30  36
ATOM     36  O   UNL     1      -1.039   6.700   6.200  0.00  0.00    -0.503 OA
ATOM     37  H   UNL     1      -0.726   7.612   6.332  0.00  0.00     0.292 HD
ENDBRANCH  30  36
ENDBRANCH  10  26
BRANCH   6  38
ATOM     38  O   UNL     1      -4.894   1.185  -0.499  0.00  0.00    -0.506 OA
ATOM     39  H   UNL     1      -5.023   1.182   0.465  0.00  0.00     0.292 HD
ENDBRANCH   6  38
BRANCH   4  40
ATOM     40  O   UNL     1      -1.668   2.544  -3.722  0.00  0.00    -0.507 OA
ATOM     41  H   UNL     1      -0.696   2.528  -3.699  0.00  0.00     0.292 HD
ENDBRANCH   4  40
TORSDOF 12
ENDMDL
