MODEL 1
REMARK VINA RESULT:      -8.6      0.000      0.000
REMARK  Name = 5280343
REMARK                            x       y       z     vdW  Elec       q    Type
REMARK                         _______ _______ _______ _____ _____    ______ ____
ROOT
ATOM      1  O   LIG    1        4.448  43.532  22.955  0.00  0.00    -0.451 OA
ATOM      2  C   LIG    1        4.244  43.546  21.583  0.00  0.00    +0.181 A 
ATOM      3  C   LIG    1        3.398  42.729  20.930  0.00  0.00    +0.208 A 
ATOM      4  C   LIG    1        2.604  41.749  21.710  0.00  0.00    +0.238 A 
ATOM      5  C   LIG    1        2.816  41.749  23.166  0.00  0.00    +0.109 A 
ATOM      6  C   LIG    1        2.114  40.866  23.990  0.00  0.00    +0.135 A 
ATOM      7  C   LIG    1        2.335  40.886  25.367  0.00  0.00    +0.091 A 
ATOM      8  C   LIG    1        3.251  41.783  25.918  0.00  0.00    +0.124 A 
ATOM      9  C   LIG    1        3.951  42.663  25.092  0.00  0.00    +0.092 A 
ATOM     14  O   LIG    1        1.818  40.980  21.172  0.00  0.00    -0.283 OA
ATOM     27  C   LIG    1        3.731  42.646  23.714  0.00  0.00    +0.147 A 
ENDROOT
BRANCH   2  17
ATOM     17  C   LIG    1        5.075  44.544  20.888  0.00  0.00    +0.025 A 
ATOM     18  C   LIG    1        6.215  44.139  20.192  0.00  0.00    +0.015 A 
ATOM     19  C   LIG    1        7.002  45.084  19.534  0.00  0.00    +0.050 A 
ATOM     20  C   LIG    1        6.651  46.433  19.572  0.00  0.00    +0.158 A 
ATOM     21  C   LIG    1        5.512  46.839  20.269  0.00  0.00    +0.159 A 
ATOM     26  C   LIG    1        4.724  45.894  20.926  0.00  0.00    +0.060 A 
BRANCH  21  22
ATOM     22  O   LIG    1        5.159  48.153  20.311  0.00  0.00    -0.503 OA
ATOM     23  H   LIG    1        4.985  48.417  21.229  0.00  0.00    +0.292 HD
ENDBRANCH  21  22
BRANCH  20  24
ATOM     24  O   LIG    1        7.429  47.347  18.927  0.00  0.00    -0.503 OA
ATOM     25  H   LIG    1        6.867  47.972  18.442  0.00  0.00    +0.292 HD
ENDBRANCH  20  24
ENDBRANCH   2  17
BRANCH   8  10
ATOM     10  O   LIG    1        3.464  41.799  27.262  0.00  0.00    -0.507 OA
ATOM     11  H   LIG    1        4.231  41.236  27.467  0.00  0.00    +0.292 HD
ENDBRANCH   8  10
BRANCH   6  12
ATOM     12  O   LIG    1        1.209  39.970  23.505  0.00  0.00    -0.506 OA
ATOM     13  H   LIG    1        0.525  39.785  24.166  0.00  0.00    +0.292 HD
ENDBRANCH   6  12
BRANCH   3  15
ATOM     15  O   LIG    1        3.242  42.745  19.561  0.00  0.00    -0.501 OA
ATOM     16  H   LIG    1        2.682  43.495  19.301  0.00  0.00    +0.292 HD
ENDBRANCH   3  15
TORSDOF 6
ENDMDL
MODEL 2
REMARK VINA RESULT:      -8.2      1.471      3.300
REMARK  Name = 5280343
REMARK                            x       y       z     vdW  Elec       q    Type
REMARK                         _______ _______ _______ _____ _____    ______ ____
ROOT
ATOM      1  O   LIG    1        4.290  43.562  21.846  0.00  0.00    -0.451 OA
ATOM      2  C   LIG    1        5.090  44.518  22.453  0.00  0.00    +0.181 A 
ATOM      3  C   LIG    1        5.315  44.594  23.778  0.00  0.00    +0.208 A 
ATOM      4  C   LIG    1        4.689  43.588  24.669  0.00  0.00    +0.238 A 
ATOM      5  C   LIG    1        3.852  42.569  24.017  0.00  0.00    +0.109 A 
ATOM      6  C   LIG    1        3.221  41.575  24.768  0.00  0.00    +0.135 A 
ATOM      7  C   LIG    1        2.431  40.622  24.125  0.00  0.00    +0.091 A 
ATOM      8  C   LIG    1        2.273  40.662  22.738  0.00  0.00    +0.124 A 
ATOM      9  C   LIG    1        2.905  41.657  21.991  0.00  0.00    +0.092 A 
ATOM     14  O   LIG    1        4.859  43.605  25.881  0.00  0.00    -0.283 OA
ATOM     27  C   LIG    1        3.696  42.610  22.633  0.00  0.00    +0.147 A 
ENDROOT
BRANCH   2  17
ATOM     17  C   LIG    1        5.666  45.478  21.496  0.00  0.00    +0.025 A 
ATOM     18  C   LIG    1        4.861  46.470  20.933  0.00  0.00    +0.015 A 
ATOM     19  C   LIG    1        5.406  47.379  20.027  0.00  0.00    +0.050 A 
ATOM     20  C   LIG    1        6.755  47.298  19.683  0.00  0.00    +0.158 A 
ATOM     21  C   LIG    1        7.560  46.306  20.244  0.00  0.00    +0.159 A 
ATOM     26  C   LIG    1        7.015  45.397  21.152  0.00  0.00    +0.060 A 
BRANCH  21  22
ATOM     22  O   LIG    1        8.879  46.218  19.917  0.00  0.00    -0.503 OA
ATOM     23  H   LIG    1        9.424  46.409  20.697  0.00  0.00    +0.292 HD
ENDBRANCH  21  22
BRANCH  20  24
ATOM     24  O   LIG    1        7.275  48.190  18.794  0.00  0.00    -0.503 OA
ATOM     25  H   LIG    1        7.857  47.730  18.170  0.00  0.00    +0.292 HD
ENDBRANCH  20  24
ENDBRANCH   2  17
BRANCH   8  10
ATOM     10  O   LIG    1        1.501  39.731  22.114  0.00  0.00    -0.507 OA
ATOM     11  H   LIG    1        2.030  38.926  21.974  0.00  0.00    +0.292 HD
ENDBRANCH   8  10
BRANCH   6  12
ATOM     12  O   LIG    1        3.341  41.490  26.123  0.00  0.00    -0.506 OA
ATOM     13  H   LIG    1        3.406  40.564  26.402  0.00  0.00    +0.292 HD
ENDBRANCH   6  12
BRANCH   3  15
ATOM     15  O   LIG    1        6.091  45.577  24.354  0.00  0.00    -0.501 OA
ATOM     16  H   LIG    1        6.623  46.019  23.673  0.00  0.00    +0.292 HD
ENDBRANCH   3  15
TORSDOF 6
ENDMDL
MODEL 3
REMARK VINA RESULT:      -7.7      1.212      2.942
REMARK  Name = 5280343
REMARK                            x       y       z     vdW  Elec       q    Type
REMARK                         _______ _______ _______ _____ _____    ______ ____
ROOT
ATOM      1  O   LIG    1        4.126  42.922  22.224  0.00  0.00    -0.451 OA
ATOM      2  C   LIG    1        4.960  43.883  22.775  0.00  0.00    +0.181 A 
ATOM      3  C   LIG    1        5.146  44.065  24.095  0.00  0.00    +0.208 A 
ATOM      4  C   LIG    1        4.436  43.178  25.047  0.00  0.00    +0.238 A 
ATOM      5  C   LIG    1        3.563  42.152  24.456  0.00  0.00    +0.109 A 
ATOM      6  C   LIG    1        2.852  41.264  25.267  0.00  0.00    +0.135 A 
ATOM      7  C   LIG    1        2.030  40.302  24.680  0.00  0.00    +0.091 A 
ATOM      8  C   LIG    1        1.919  40.227  23.291  0.00  0.00    +0.124 A 
ATOM      9  C   LIG    1        2.630  41.115  22.484  0.00  0.00    +0.092 A 
ATOM     14  O   LIG    1        4.567  43.294  26.259  0.00  0.00    -0.283 OA
ATOM     27  C   LIG    1        3.454  42.078  23.069  0.00  0.00    +0.147 A 
ENDROOT
BRANCH   2  17
ATOM     17  C   LIG    1        5.620  44.722  21.760  0.00  0.00    +0.025 A 
ATOM     18  C   LIG    1        6.780  44.270  21.128  0.00  0.00    +0.015 A 
ATOM     19  C   LIG    1        7.405  45.064  20.167  0.00  0.00    +0.050 A 
ATOM     20  C   LIG    1        6.873  46.309  19.837  0.00  0.00    +0.158 A 
ATOM     21  C   LIG    1        5.714  46.762  20.469  0.00  0.00    +0.159 A 
ATOM     26  C   LIG    1        5.088  45.968  21.430  0.00  0.00    +0.060 A 
BRANCH  21  22
ATOM     22  O   LIG    1        5.184  47.977  20.153  0.00  0.00    -0.503 OA
ATOM     23  H   LIG    1        5.680  48.370  19.417  0.00  0.00    +0.292 HD
ENDBRANCH  21  22
BRANCH  20  24
ATOM     24  O   LIG    1        7.494  47.077  18.898  0.00  0.00    -0.503 OA
ATOM     25  H   LIG    1        8.049  47.743  19.335  0.00  0.00    +0.292 HD
ENDBRANCH  20  24
ENDBRANCH   2  17
BRANCH   8  10
ATOM     10  O   LIG    1        1.116  39.287  22.722  0.00  0.00    -0.507 OA
ATOM     11  H   LIG    1        1.387  38.407  23.038  0.00  0.00    +0.292 HD
ENDBRANCH   8  10
BRANCH   6  12
ATOM     12  O   LIG    1        2.923  41.294  26.628  0.00  0.00    -0.506 OA
ATOM     13  H   LIG    1        3.369  42.101  26.927  0.00  0.00    +0.292 HD
ENDBRANCH   6  12
BRANCH   3  15
ATOM     15  O   LIG    1        5.958  45.052  24.612  0.00  0.00    -0.501 OA
ATOM     16  H   LIG    1        5.655  45.296  25.501  0.00  0.00    +0.292 HD
ENDBRANCH   3  15
TORSDOF 6
ENDMDL
MODEL 4
REMARK VINA RESULT:      -7.5      1.352      2.339
REMARK  Name = 5280343
REMARK                            x       y       z     vdW  Elec       q    Type
REMARK                         _______ _______ _______ _____ _____    ______ ____
ROOT
ATOM      1  O   LIG    1        3.801  42.851  24.051  0.00  0.00    -0.451 OA
ATOM      2  C   LIG    1        3.326  42.668  22.762  0.00  0.00    +0.181 A 
ATOM      3  C   LIG    1        2.459  41.705  22.398  0.00  0.00    +0.208 A 
ATOM      4  C   LIG    1        1.949  40.774  23.433  0.00  0.00    +0.238 A 
ATOM      5  C   LIG    1        2.447  40.982  24.801  0.00  0.00    +0.109 A 
ATOM      6  C   LIG    1        2.024  40.160  25.848  0.00  0.00    +0.135 A 
ATOM      7  C   LIG    1        2.514  40.378  27.136  0.00  0.00    +0.091 A 
ATOM      8  C   LIG    1        3.420  41.412  27.377  0.00  0.00    +0.124 A 
ATOM      9  C   LIG    1        3.841  42.231  26.328  0.00  0.00    +0.092 A 
ATOM     14  O   LIG    1        1.158  39.879  23.163  0.00  0.00    -0.283 OA
ATOM     27  C   LIG    1        3.351  42.015  25.039  0.00  0.00    +0.147 A 
ENDROOT
BRANCH   2  17
ATOM     17  C   LIG    1        3.888  43.631  21.799  0.00  0.00    +0.025 A 
ATOM     18  C   LIG    1        3.881  44.995  22.093  0.00  0.00    +0.015 A 
ATOM     19  C   LIG    1        4.413  45.908  21.182  0.00  0.00    +0.050 A 
ATOM     20  C   LIG    1        4.951  45.457  19.977  0.00  0.00    +0.158 A 
ATOM     21  C   LIG    1        4.956  44.094  19.682  0.00  0.00    +0.159 A 
ATOM     26  C   LIG    1        4.426  43.181  20.594  0.00  0.00    +0.060 A 
BRANCH  21  22
ATOM     22  O   LIG    1        5.481  43.642  18.509  0.00  0.00    -0.503 OA
ATOM     23  H   LIG    1        6.244  44.188  18.258  0.00  0.00    +0.292 HD
ENDBRANCH  21  22
BRANCH  20  24
ATOM     24  O   LIG    1        5.465  46.359  19.094  0.00  0.00    -0.503 OA
ATOM     25  H   LIG    1        6.263  46.764  19.467  0.00  0.00    +0.292 HD
ENDBRANCH  20  24
ENDBRANCH   2  17
BRANCH   8  10
ATOM     10  O   LIG    1        3.896  41.622  28.634  0.00  0.00    -0.507 OA
ATOM     11  H   LIG    1        3.200  42.043  29.168  0.00  0.00    +0.292 HD
ENDBRANCH   8  10
BRANCH   6  12
ATOM     12  O   LIG    1        1.142  39.136  25.669  0.00  0.00    -0.506 OA
ATOM     13  H   LIG    1        0.770  39.161  24.775  0.00  0.00    +0.292 HD
ENDBRANCH   6  12
BRANCH   3  15
ATOM     15  O   LIG    1        2.030  41.529  21.100  0.00  0.00    -0.501 OA
ATOM     16  H   LIG    1        1.272  42.109  20.921  0.00  0.00    +0.292 HD
ENDBRANCH   3  15
TORSDOF 6
ENDMDL
MODEL 5
REMARK VINA RESULT:      -7.3     28.989     30.566
REMARK  Name = 5280343
REMARK                            x       y       z     vdW  Elec       q    Type
REMARK                         _______ _______ _______ _____ _____    ______ ____
ROOT
ATOM      1  O   LIG    1       14.302  68.609   8.843  0.00  0.00    -0.451 OA
ATOM      2  C   LIG    1       14.226  68.306   7.493  0.00  0.00    +0.181 A 
ATOM      3  C   LIG    1       15.027  67.427   6.862  0.00  0.00    +0.208 A 
ATOM      4  C   LIG    1       16.059  66.708   7.648  0.00  0.00    +0.238 A 
ATOM      5  C   LIG    1       16.125  67.026   9.083  0.00  0.00    +0.109 A 
ATOM      6  C   LIG    1       17.061  66.400   9.911  0.00  0.00    +0.135 A 
ATOM      7  C   LIG    1       17.103  66.720  11.267  0.00  0.00    +0.091 A 
ATOM      8  C   LIG    1       16.216  67.660  11.795  0.00  0.00    +0.124 A 
ATOM      9  C   LIG    1       15.283  68.283  10.965  0.00  0.00    +0.092 A 
ATOM     14  O   LIG    1       16.816  65.897   7.130  0.00  0.00    -0.283 OA
ATOM     27  C   LIG    1       15.238  67.964   9.607  0.00  0.00    +0.147 A 
ENDROOT
BRANCH   2  17
ATOM     17  C   LIG    1       13.179  69.068   6.790  0.00  0.00    +0.025 A 
ATOM     18  C   LIG    1       13.239  70.461   6.751  0.00  0.00    +0.015 A 
ATOM     19  C   LIG    1       12.248  71.183   6.085  0.00  0.00    +0.050 A 
ATOM     20  C   LIG    1       11.198  70.512   5.459  0.00  0.00    +0.158 A 
ATOM     21  C   LIG    1       11.137  69.119   5.499  0.00  0.00    +0.159 A 
ATOM     26  C   LIG    1       12.129  68.397   6.164  0.00  0.00    +0.060 A 
BRANCH  21  22
ATOM     22  O   LIG    1       10.117  68.454   4.890  0.00  0.00    -0.503 OA
ATOM     23  H   LIG    1        9.335  68.454   5.465  0.00  0.00    +0.292 HD
ENDBRANCH  21  22
BRANCH  20  24
ATOM     24  O   LIG    1       10.234  71.229   4.815  0.00  0.00    -0.503 OA
ATOM     25  H   LIG    1       10.649  71.866   4.212  0.00  0.00    +0.292 HD
ENDBRANCH  20  24
ENDBRANCH   2  17
BRANCH   8  10
ATOM     10  O   LIG    1       16.261  67.970  13.119  0.00  0.00    -0.507 OA
ATOM     11  H   LIG    1       15.564  68.621  13.314  0.00  0.00    +0.292 HD
ENDBRANCH   8  10
BRANCH   6  12
ATOM     12  O   LIG    1       17.950  65.476   9.448  0.00  0.00    -0.506 OA
ATOM     13  H   LIG    1       17.540  64.598   9.411  0.00  0.00    +0.292 HD
ENDBRANCH   6  12
BRANCH   3  15
ATOM     15  O   LIG    1       14.948  67.172   5.510  0.00  0.00    -0.501 OA
ATOM     16  H   LIG    1       15.840  67.116   5.132  0.00  0.00    +0.292 HD
ENDBRANCH   3  15
TORSDOF 6
ENDMDL
MODEL 6
REMARK VINA RESULT:      -7.2     28.913     30.784
REMARK  Name = 5280343
REMARK                            x       y       z     vdW  Elec       q    Type
REMARK                         _______ _______ _______ _____ _____    ______ ____
ROOT
ATOM      1  O   LIG    1       14.887  68.466   8.617  0.00  0.00    -0.451 OA
ATOM      2  C   LIG    1       15.706  67.474   8.100  0.00  0.00    +0.181 A 
ATOM      3  C   LIG    1       15.540  66.898   6.895  0.00  0.00    +0.208 A 
ATOM      4  C   LIG    1       14.421  67.352   6.034  0.00  0.00    +0.238 A 
ATOM      5  C   LIG    1       13.565  68.414   6.582  0.00  0.00    +0.109 A 
ATOM      6  C   LIG    1       12.486  68.914   5.848  0.00  0.00    +0.135 A 
ATOM      7  C   LIG    1       11.689  69.920   6.392  0.00  0.00    +0.091 A 
ATOM      8  C   LIG    1       11.967  70.426   7.663  0.00  0.00    +0.124 A 
ATOM      9  C   LIG    1       13.045  69.925   8.394  0.00  0.00    +0.092 A 
ATOM     14  O   LIG    1       14.221  66.867   4.928  0.00  0.00    -0.283 OA
ATOM     27  C   LIG    1       13.845  68.918   7.851  0.00  0.00    +0.147 A 
ENDROOT
BRANCH   2  17
ATOM     17  C   LIG    1       16.785  67.080   9.023  0.00  0.00    +0.025 A 
ATOM     18  C   LIG    1       16.610  65.992   9.878  0.00  0.00    +0.015 A 
ATOM     19  C   LIG    1       17.631  65.620  10.752  0.00  0.00    +0.050 A 
ATOM     20  C   LIG    1       18.828  66.335  10.771  0.00  0.00    +0.158 A 
ATOM     21  C   LIG    1       19.004  67.425   9.917  0.00  0.00    +0.159 A 
ATOM     26  C   LIG    1       17.982  67.796   9.042  0.00  0.00    +0.060 A 
BRANCH  21  22
ATOM     22  O   LIG    1       20.169  68.130   9.926  0.00  0.00    -0.503 OA
ATOM     23  H   LIG    1       20.922  67.518   9.953  0.00  0.00    +0.292 HD
ENDBRANCH  21  22
BRANCH  20  24
ATOM     24  O   LIG    1       19.818  65.964  11.631  0.00  0.00    -0.503 OA
ATOM     25  H   LIG    1       20.389  65.304  11.207  0.00  0.00    +0.292 HD
ENDBRANCH  20  24
ENDBRANCH   2  17
BRANCH   8  10
ATOM     10  O   LIG    1       11.187  71.408   8.191  0.00  0.00    -0.507 OA
ATOM     11  H   LIG    1       10.534  71.004   8.789  0.00  0.00    +0.292 HD
ENDBRANCH   8  10
BRANCH   6  12
ATOM     12  O   LIG    1       12.170  68.456   4.604  0.00  0.00    -0.506 OA
ATOM     13  H   LIG    1       11.643  67.645   4.663  0.00  0.00    +0.292 HD
ENDBRANCH   6  12
BRANCH   3  15
ATOM     15  O   LIG    1       16.353  65.890   6.424  0.00  0.00    -0.501 OA
ATOM     16  H   LIG    1       16.495  65.999   5.470  0.00  0.00    +0.292 HD
ENDBRANCH   3  15
TORSDOF 6
ENDMDL
MODEL 7
REMARK VINA RESULT:      -7.2     26.563     28.923
REMARK  Name = 5280343
REMARK                            x       y       z     vdW  Elec       q    Type
REMARK                         _______ _______ _______ _____ _____    ______ ____
ROOT
ATOM      1  O   LIG    1        2.959  69.484  34.129  0.00  0.00    -0.451 OA
ATOM      2  C   LIG    1        2.879  68.274  34.801  0.00  0.00    +0.181 A 
ATOM      3  C   LIG    1        3.917  67.670  35.410  0.00  0.00    +0.208 A 
ATOM      4  C   LIG    1        5.243  68.332  35.389  0.00  0.00    +0.238 A 
ATOM      5  C   LIG    1        5.318  69.622  34.686  0.00  0.00    +0.109 A 
ATOM      6  C   LIG    1        6.521  70.328  34.613  0.00  0.00    +0.135 A 
ATOM      7  C   LIG    1        6.564  71.548  33.938  0.00  0.00    +0.091 A 
ATOM      8  C   LIG    1        5.412  72.061  33.340  0.00  0.00    +0.124 A 
ATOM      9  C   LIG    1        4.212  71.353  33.415  0.00  0.00    +0.092 A 
ATOM     14  O   LIG    1        6.223  67.832  35.927  0.00  0.00    -0.283 OA
ATOM     27  C   LIG    1        4.166  70.133  34.091  0.00  0.00    +0.147 A 
ENDROOT
BRANCH   2  17
ATOM     17  C   LIG    1        1.529  67.685  34.767  0.00  0.00    +0.025 A 
ATOM     18  C   LIG    1        0.900  67.316  35.957  0.00  0.00    +0.015 A 
ATOM     19  C   LIG    1       -0.378  66.758  35.925  0.00  0.00    +0.050 A 
ATOM     20  C   LIG    1       -1.027  66.569  34.705  0.00  0.00    +0.158 A 
ATOM     21  C   LIG    1       -0.397  66.938  33.515  0.00  0.00    +0.159 A 
ATOM     26  C   LIG    1        0.881  67.497  33.547  0.00  0.00    +0.060 A 
BRANCH  21  22
ATOM     22  O   LIG    1       -1.022  66.759  32.318  0.00  0.00    -0.503 OA
ATOM     23  H   LIG    1       -1.893  67.188  32.335  0.00  0.00    +0.292 HD
ENDBRANCH  21  22
BRANCH  20  24
ATOM     24  O   LIG    1       -2.274  66.021  34.686  0.00  0.00    -0.503 OA
ATOM     25  H   LIG    1       -2.832  66.498  34.052  0.00  0.00    +0.292 HD
ENDBRANCH  20  24
ENDBRANCH   2  17
BRANCH   8  10
ATOM     10  O   LIG    1        5.458  73.251  32.683  0.00  0.00    -0.507 OA
ATOM     11  H   LIG    1        4.987  73.163  31.836  0.00  0.00    +0.292 HD
ENDBRANCH   8  10
BRANCH   6  12
ATOM     12  O   LIG    1        7.675  69.873  35.177  0.00  0.00    -0.506 OA
ATOM     13  H   LIG    1        7.518  69.040  35.648  0.00  0.00    +0.292 HD
ENDBRANCH   6  12
BRANCH   3  15
ATOM     15  O   LIG    1        3.811  66.450  36.042  0.00  0.00    -0.501 OA
ATOM     16  H   LIG    1        2.908  66.107  35.949  0.00  0.00    +0.292 HD
ENDBRANCH   3  15
TORSDOF 6
ENDMDL
MODEL 8
REMARK VINA RESULT:      -7.1      1.609      3.518
REMARK  Name = 5280343
REMARK                            x       y       z     vdW  Elec       q    Type
REMARK                         _______ _______ _______ _____ _____    ______ ____
ROOT
ATOM      1  O   LIG    1        3.060  42.041  22.877  0.00  0.00    -0.451 OA
ATOM      2  C   LIG    1        3.890  43.094  23.231  0.00  0.00    +0.181 A 
ATOM      3  C   LIG    1        4.257  43.384  24.493  0.00  0.00    +0.208 A 
ATOM      4  C   LIG    1        3.767  42.523  25.596  0.00  0.00    +0.238 A 
ATOM      5  C   LIG    1        2.897  41.401  25.212  0.00  0.00    +0.109 A 
ATOM      6  C   LIG    1        2.386  40.529  26.177  0.00  0.00    +0.135 A 
ATOM      7  C   LIG    1        1.563  39.474  25.784  0.00  0.00    +0.091 A 
ATOM      8  C   LIG    1        1.252  39.289  24.436  0.00  0.00    +0.124 A 
ATOM      9  C   LIG    1        1.764  40.162  23.475  0.00  0.00    +0.092 A 
ATOM     14  O   LIG    1        4.067  42.736  26.764  0.00  0.00    -0.283 OA
ATOM     27  C   LIG    1        2.589  41.218  23.865  0.00  0.00    +0.147 A 
ENDROOT
BRANCH   2  17
ATOM     17  C   LIG    1        4.325  43.898  22.076  0.00  0.00    +0.025 A 
ATOM     18  C   LIG    1        4.145  45.282  22.083  0.00  0.00    +0.015 A 
ATOM     19  C   LIG    1        4.556  46.044  20.989  0.00  0.00    +0.050 A 
ATOM     20  C   LIG    1        5.147  45.423  19.889  0.00  0.00    +0.158 A 
ATOM     21  C   LIG    1        5.325  44.039  19.881  0.00  0.00    +0.159 A 
ATOM     26  C   LIG    1        4.915  43.277  20.976  0.00  0.00    +0.060 A 
BRANCH  21  22
ATOM     22  O   LIG    1        5.902  43.423  18.813  0.00  0.00    -0.503 OA
ATOM     23  H   LIG    1        6.867  43.410  18.922  0.00  0.00    +0.292 HD
ENDBRANCH  21  22
BRANCH  20  24
ATOM     24  O   LIG    1        5.542  46.178  18.825  0.00  0.00    -0.503 OA
ATOM     25  H   LIG    1        4.779  46.653  18.459  0.00  0.00    +0.292 HD
ENDBRANCH  20  24
ENDBRANCH   2  17
BRANCH   8  10
ATOM     10  O   LIG    1        0.448  38.258  24.058  0.00  0.00    -0.507 OA
ATOM     11  H   LIG    1       -0.457  38.593  23.935  0.00  0.00    +0.292 HD
ENDBRANCH   8  10
BRANCH   6  12
ATOM     12  O   LIG    1        2.657  40.664  27.505  0.00  0.00    -0.506 OA
ATOM     13  H   LIG    1        1.835  40.706  28.017  0.00  0.00    +0.292 HD
ENDBRANCH   6  12
BRANCH   3  15
ATOM     15  O   LIG    1        5.057  44.458  24.816  0.00  0.00    -0.501 OA
ATOM     16  H   LIG    1        5.187  44.495  25.778  0.00  0.00    +0.292 HD
ENDBRANCH   3  15
TORSDOF 6
ENDMDL
MODEL 9
REMARK VINA RESULT:      -7.0     30.413     31.409
REMARK  Name = 5280343
REMARK                            x       y       z     vdW  Elec       q    Type
REMARK                         _______ _______ _______ _____ _____    ______ ____
ROOT
ATOM      1  O   LIG    1       15.411  69.630   9.080  0.00  0.00    -0.451 OA
ATOM      2  C   LIG    1       16.422  68.721   8.807  0.00  0.00    +0.181 A 
ATOM      3  C   LIG    1       16.363  67.782   7.845  0.00  0.00    +0.208 A 
ATOM      4  C   LIG    1       15.151  67.705   6.994  0.00  0.00    +0.238 A 
ATOM      5  C   LIG    1       14.089  68.681   7.281  0.00  0.00    +0.109 A 
ATOM      6  C   LIG    1       12.909  68.693   6.533  0.00  0.00    +0.135 A 
ATOM      7  C   LIG    1       11.917  69.629   6.827  0.00  0.00    +0.091 A 
ATOM      8  C   LIG    1       12.102  70.547   7.862  0.00  0.00    +0.124 A 
ATOM      9  C   LIG    1       13.282  70.531   8.607  0.00  0.00    +0.092 A 
ATOM     14  O   LIG    1       15.040  66.873   6.102  0.00  0.00    -0.283 OA
ATOM     27  C   LIG    1       14.276  69.597   8.314  0.00  0.00    +0.147 A 
ENDROOT
BRANCH   2  17
ATOM     17  C   LIG    1       17.583  68.865   9.702  0.00  0.00    +0.025 A 
ATOM     18  C   LIG    1       18.712  69.563   9.272  0.00  0.00    +0.015 A 
ATOM     19  C   LIG    1       19.812  69.699  10.119  0.00  0.00    +0.050 A 
ATOM     20  C   LIG    1       19.783  69.138  11.396  0.00  0.00    +0.158 A 
ATOM     21  C   LIG    1       18.655  68.440  11.825  0.00  0.00    +0.159 A 
ATOM     26  C   LIG    1       17.554  68.305  10.979  0.00  0.00    +0.060 A 
BRANCH  21  22
ATOM     22  O   LIG    1       18.615  67.890  13.071  0.00  0.00    -0.503 OA
ATOM     23  H   LIG    1       18.046  68.425  13.648  0.00  0.00    +0.292 HD
ENDBRANCH  21  22
BRANCH  20  24
ATOM     24  O   LIG    1       20.865  69.276  12.213  0.00  0.00    -0.503 OA
ATOM     25  H   LIG    1       20.978  68.472  12.744  0.00  0.00    +0.292 HD
ENDBRANCH  20  24
ENDBRANCH   2  17
BRANCH   8  10
ATOM     10  O   LIG    1       11.132  71.458   8.146  0.00  0.00    -0.507 OA
ATOM     11  H   LIG    1       11.437  72.340   7.871  0.00  0.00    +0.292 HD
ENDBRANCH   8  10
BRANCH   6  12
ATOM     12  O   LIG    1       12.676  67.820   5.513  0.00  0.00    -0.506 OA
ATOM     13  H   LIG    1       11.858  67.325   5.669  0.00  0.00    +0.292 HD
ENDBRANCH   6  12
BRANCH   3  15
ATOM     15  O   LIG    1       17.372  66.871   7.620  0.00  0.00    -0.501 OA
ATOM     16  H   LIG    1       17.405  66.641   6.677  0.00  0.00    +0.292 HD
ENDBRANCH   3  15
TORSDOF 6
ENDMDL
