MODEL 1
REMARK VINA RESULT:      -9.8      0.000      0.000
REMARK  13 active torsions:
REMARK  status: ('A' for Active; 'I' for Inactive)
REMARK    1  A    between atoms: C_2  and  O_12 
REMARK    2  A    between atoms: C_3  and  O_10 
REMARK    3  A    between atoms: C_4  and  O_8 
REMARK    4  A    between atoms: C_5  and  O_6 
REMARK    5  A    between atoms: C_22  and  C_23 
REMARK    6  A    between atoms: O_12  and  C_13 
REMARK    7  A    between atoms: C_13  and  C_14 
REMARK    8  A    between atoms: C_15  and  C_16 
REMARK    9  A    between atoms: C_23  and  O_24 
REMARK   10  A    between atoms: O_24  and  C_25 
REMARK   11  A    between atoms: C_26  and  O_34 
REMARK   12  A    between atoms: C_27  and  O_32 
REMARK   13  A    between atoms: C_28  and  O_30 
ROOT
ATOM      1  O   LIG     1      15.776  37.469  27.566  0.00  0.00    -0.341 OA
ATOM      2  C   LIG     1      15.035  38.373  26.749  0.00  0.00     0.282 C 
ATOM      3  C   LIG     1      15.957  39.444  26.164  0.00  0.00     0.201 C 
ATOM      4  C   LIG     1      17.143  38.818  25.431  0.00  0.00     0.179 C 
ATOM      5  C   LIG     1      17.813  37.740  26.281  0.00  0.00     0.177 C 
ATOM      6  C   LIG     1      16.775  36.759  26.832  0.00  0.00     0.178 C 
ENDROOT
BRANCH   6   7
ATOM      7  C   LIG     1      17.405  35.741  27.778  0.00  0.00     0.197 C 
BRANCH   7   8
ATOM      8  O   LIG     1      18.202  34.852  27.017  0.00  0.00    -0.346 OA
BRANCH   8   9
ATOM      9  C   LIG     1      17.595  33.570  26.898  0.00  0.00     0.281 C 
ATOM     10  O   LIG     1      17.595  32.858  28.141  0.00  0.00    -0.346 OA
ATOM     11  C   LIG     1      18.896  32.490  28.593  0.00  0.00     0.197 C 
ATOM     12  C   LIG     1      19.577  31.577  27.582  0.00  0.00     0.171 C 
ATOM     13  C   LIG     1      19.668  32.258  26.216  0.00  0.00     0.178 C 
ATOM     14  C   LIG     1      18.287  32.765  25.787  0.00  0.00     0.201 C 
BRANCH  12  15
ATOM     15  O   LIG     1      20.878  31.223  28.032  0.00  0.00    -0.387 OA
ATOM     16  H   LIG     1      20.938  31.462  28.973  0.00  0.00     0.210 HD
ENDBRANCH  12  15
BRANCH  13  17
ATOM     17  O   LIG     1      20.576  33.356  26.295  0.00  0.00    -0.386 OA
ATOM     18  H   LIG     1      21.342  33.143  25.735  0.00  0.00     0.210 HD
ENDBRANCH  13  17
BRANCH  14  19
ATOM     19  O   LIG     1      17.455  31.654  25.464  0.00  0.00    -0.384 OA
ATOM     20  H   LIG     1      16.614  31.990  25.113  0.00  0.00     0.210 HD
ENDBRANCH  14  19
ENDBRANCH   8   9
ENDBRANCH   7   8
ENDBRANCH   6   7
BRANCH   5  21
ATOM     21  O   LIG     1      18.757  37.029  25.483  0.00  0.00    -0.386 OA
ATOM     22  H   LIG     1      18.668  36.082  25.688  0.00  0.00     0.210 HD
ENDBRANCH   5  21
BRANCH   2  23
ATOM     23  O   LIG     1      14.040  39.028  27.533  0.00  0.00    -0.345 OA
BRANCH  23  24
ATOM     24  C   LIG     1      14.600  40.077  28.307  0.00  0.00     0.190 C 
BRANCH  24  25
ATOM     25  C   LIG     1      14.560  39.686  29.749  0.00  0.00     0.001 C 
ATOM     26  C   LIG     1      15.639  39.269  30.430  0.00  0.00     0.006 C 
BRANCH  26  27
ATOM     27  C   LIG     1      15.650  38.888  31.853  0.00  0.00    -0.025 A 
ATOM     28  C   LIG     1      16.672  38.083  32.332  0.00  0.00     0.008 A 
ATOM     29  C   LIG     1      16.682  37.723  33.679  0.00  0.00     0.001 A 
ATOM     30  C   LIG     1      15.670  38.170  34.529  0.00  0.00     0.000 A 
ATOM     31  C   LIG     1      14.648  38.979  34.033  0.00  0.00     0.001 A 
ATOM     32  C   LIG     1      14.638  39.339  32.685  0.00  0.00     0.008 A 
ENDBRANCH  26  27
ENDBRANCH  24  25
ENDBRANCH  23  24
ENDBRANCH   2  23
BRANCH   4  33
ATOM     33  O   LIG     1      18.115  39.827  25.151  0.00  0.00    -0.386 OA
ATOM     34  H   LIG     1      17.672  40.689  25.232  0.00  0.00     0.210 HD
ENDBRANCH   4  33
BRANCH   3  35
ATOM     35  O   LIG     1      15.199  40.236  25.251  0.00  0.00    -0.384 OA
ATOM     36  H   LIG     1      15.509  40.039  24.351  0.00  0.00     0.210 HD
ENDBRANCH   3  35
TORSDOF 13
ENDMDL
MODEL 2
REMARK VINA RESULT:      -9.8     12.891     19.304
REMARK  13 active torsions:
REMARK  status: ('A' for Active; 'I' for Inactive)
REMARK    1  A    between atoms: C_2  and  O_12 
REMARK    2  A    between atoms: C_3  and  O_10 
REMARK    3  A    between atoms: C_4  and  O_8 
REMARK    4  A    between atoms: C_5  and  O_6 
REMARK    5  A    between atoms: C_22  and  C_23 
REMARK    6  A    between atoms: O_12  and  C_13 
REMARK    7  A    between atoms: C_13  and  C_14 
REMARK    8  A    between atoms: C_15  and  C_16 
REMARK    9  A    between atoms: C_23  and  O_24 
REMARK   10  A    between atoms: O_24  and  C_25 
REMARK   11  A    between atoms: C_26  and  O_34 
REMARK   12  A    between atoms: C_27  and  O_32 
REMARK   13  A    between atoms: C_28  and  O_30 
ROOT
ATOM      1  O   LIG     1      27.580  21.229  24.438  0.00  0.00    -0.341 OA
ATOM      2  C   LIG     1      27.713  20.162  23.502  0.00  0.00     0.282 C 
ATOM      3  C   LIG     1      26.546  20.166  22.514  0.00  0.00     0.201 C 
ATOM      4  C   LIG     1      26.392  21.529  21.840  0.00  0.00     0.179 C 
ATOM      5  C   LIG     1      26.414  22.661  22.867  0.00  0.00     0.177 C 
ATOM      6  C   LIG     1      27.608  22.513  23.813  0.00  0.00     0.178 C 
ENDROOT
BRANCH   6   7
ATOM      7  C   LIG     1      27.587  23.564  24.919  0.00  0.00     0.197 C 
BRANCH   7   8
ATOM      8  O   LIG     1      26.418  24.350  24.770  0.00  0.00    -0.346 OA
BRANCH   8   9
ATOM      9  C   LIG     1      25.534  24.195  25.875  0.00  0.00     0.281 C 
ATOM     10  O   LIG     1      24.168  24.411  25.504  0.00  0.00    -0.346 OA
ATOM     11  C   LIG     1      23.880  25.755  25.126  0.00  0.00     0.197 C 
ATOM     12  C   LIG     1      24.162  26.709  26.280  0.00  0.00     0.171 C 
ATOM     13  C   LIG     1      25.618  26.590  26.735  0.00  0.00     0.178 C 
ATOM     14  C   LIG     1      25.962  25.124  27.022  0.00  0.00     0.201 C 
BRANCH  12  15
ATOM     15  O   LIG     1      23.886  28.049  25.895  0.00  0.00    -0.387 OA
ATOM     16  H   LIG     1      24.675  28.393  25.441  0.00  0.00     0.210 HD
ENDBRANCH  12  15
BRANCH  13  17
ATOM     17  O   LIG     1      26.475  27.090  25.710  0.00  0.00    -0.386 OA
ATOM     18  H   LIG     1      26.953  26.332  25.333  0.00  0.00     0.210 HD
ENDBRANCH  13  17
BRANCH  14  19
ATOM     19  O   LIG     1      25.288  24.704  28.205  0.00  0.00    -0.384 OA
ATOM     20  H   LIG     1      25.693  23.875  28.512  0.00  0.00     0.210 HD
ENDBRANCH  14  19
ENDBRANCH   8   9
ENDBRANCH   7   8
ENDBRANCH   6   7
BRANCH   5  21
ATOM     21  O   LIG     1      26.501  23.911  22.189  0.00  0.00    -0.386 OA
ATOM     22  H   LIG     1      25.602  24.169  21.919  0.00  0.00     0.210 HD
ENDBRANCH   5  21
BRANCH   2  23
ATOM     23  O   LIG     1      27.704  18.913  24.190  0.00  0.00    -0.345 OA
BRANCH  23  24
ATOM     24  C   LIG     1      29.021  18.448  24.437  0.00  0.00     0.190 C 
BRANCH  24  25
ATOM     25  C   LIG     1      29.133  18.060  25.876  0.00  0.00     0.001 C 
ATOM     26  C   LIG     1      28.310  18.522  26.830  0.00  0.00     0.006 C 
BRANCH  26  27
ATOM     27  C   LIG     1      28.374  18.157  28.256  0.00  0.00    -0.025 A 
ATOM     28  C   LIG     1      27.390  18.614  29.119  0.00  0.00     0.008 A 
ATOM     29  C   LIG     1      27.451  18.268  30.468  0.00  0.00     0.001 A 
ATOM     30  C   LIG     1      28.494  17.472  30.939  0.00  0.00     0.000 A 
ATOM     31  C   LIG     1      29.478  17.020  30.059  0.00  0.00     0.001 A 
ATOM     32  C   LIG     1      29.417  17.365  28.709  0.00  0.00     0.008 A 
ENDBRANCH  26  27
ENDBRANCH  24  25
ENDBRANCH  23  24
ENDBRANCH   2  23
BRANCH   4  33
ATOM     33  O   LIG     1      25.142  21.581  21.152  0.00  0.00    -0.386 OA
ATOM     34  H   LIG     1      25.311  21.351  20.222  0.00  0.00     0.210 HD
ENDBRANCH   4  33
BRANCH   3  35
ATOM     35  O   LIG     1      26.796  19.171  21.522  0.00  0.00    -0.384 OA
ATOM     36  H   LIG     1      26.090  19.225  20.856  0.00  0.00     0.210 HD
ENDBRANCH   3  35
TORSDOF 13
ENDMDL
MODEL 3
REMARK VINA RESULT:      -9.8     13.495     19.888
REMARK  13 active torsions:
REMARK  status: ('A' for Active; 'I' for Inactive)
REMARK    1  A    between atoms: C_2  and  O_12 
REMARK    2  A    between atoms: C_3  and  O_10 
REMARK    3  A    between atoms: C_4  and  O_8 
REMARK    4  A    between atoms: C_5  and  O_6 
REMARK    5  A    between atoms: C_22  and  C_23 
REMARK    6  A    between atoms: O_12  and  C_13 
REMARK    7  A    between atoms: C_13  and  C_14 
REMARK    8  A    between atoms: C_15  and  C_16 
REMARK    9  A    between atoms: C_23  and  O_24 
REMARK   10  A    between atoms: O_24  and  C_25 
REMARK   11  A    between atoms: C_26  and  O_34 
REMARK   12  A    between atoms: C_27  and  O_32 
REMARK   13  A    between atoms: C_28  and  O_30 
ROOT
ATOM      1  O   LIG     1      28.178  20.619  24.781  0.00  0.00    -0.341 OA
ATOM      2  C   LIG     1      29.144  20.255  23.797  0.00  0.00     0.282 C 
ATOM      3  C   LIG     1      28.476  19.507  22.643  0.00  0.00     0.201 C 
ATOM      4  C   LIG     1      27.311  20.306  22.061  0.00  0.00     0.179 C 
ATOM      5  C   LIG     1      26.383  20.815  23.164  0.00  0.00     0.177 C 
ATOM      6  C   LIG     1      27.183  21.508  24.270  0.00  0.00     0.178 C 
ENDROOT
BRANCH   6   7
ATOM      7  C   LIG     1      26.292  21.921  25.437  0.00  0.00     0.197 C 
BRANCH   7   8
ATOM      8  O   LIG     1      25.615  23.115  25.087  0.00  0.00    -0.346 OA
BRANCH   8   9
ATOM      9  C   LIG     1      26.388  24.270  25.395  0.00  0.00     0.281 C 
ATOM     10  O   LIG     1      26.436  24.524  26.804  0.00  0.00    -0.346 OA
ATOM     11  C   LIG     1      25.178  24.894  27.364  0.00  0.00     0.197 C 
ATOM     12  C   LIG     1      24.659  26.173  26.720  0.00  0.00     0.171 C 
ATOM     13  C   LIG     1      24.531  26.001  25.205  0.00  0.00     0.178 C 
ATOM     14  C   LIG     1      25.849  25.482  24.620  0.00  0.00     0.201 C 
BRANCH  12  15
ATOM     15  O   LIG     1      23.400  26.531  27.272  0.00  0.00    -0.387 OA
ATOM     16  H   LIG     1      23.401  26.258  28.206  0.00  0.00     0.210 HD
ENDBRANCH  12  15
BRANCH  13  17
ATOM     17  O   LIG     1      23.486  25.072  24.923  0.00  0.00    -0.386 OA
ATOM     18  H   LIG     1      23.823  24.444  24.262  0.00  0.00     0.210 HD
ENDBRANCH  13  17
BRANCH  14  19
ATOM     19  O   LIG     1      26.830  26.515  24.679  0.00  0.00    -0.384 OA
ATOM     20  H   LIG     1      27.115  26.617  25.602  0.00  0.00     0.210 HD
ENDBRANCH  14  19
ENDBRANCH   8   9
ENDBRANCH   7   8
ENDBRANCH   6   7
BRANCH   5  21
ATOM     21  O   LIG     1      25.451  21.738  22.607  0.00  0.00    -0.386 OA
ATOM     22  H   LIG     1      25.951  22.398  22.096  0.00  0.00     0.210 HD
ENDBRANCH   5  21
BRANCH   2  23
ATOM     23  O   LIG     1      30.120  19.392  24.377  0.00  0.00    -0.345 OA
BRANCH  23  24
ATOM     24  C   LIG     1      29.580  18.108  24.647  0.00  0.00     0.190 C 
BRANCH  24  25
ATOM     25  C   LIG     1      29.592  17.882  26.125  0.00  0.00     0.001 C 
ATOM     26  C   LIG     1      28.557  18.179  26.925  0.00  0.00     0.006 C 
BRANCH  26  27
ATOM     27  C   LIG     1      28.518  17.961  28.381  0.00  0.00    -0.025 A 
ATOM     28  C   LIG     1      29.538  17.244  28.988  0.00  0.00     0.008 A 
ATOM     29  C   LIG     1      29.501  17.038  30.366  0.00  0.00     0.001 A 
ATOM     30  C   LIG     1      28.446  17.549  31.121  0.00  0.00     0.000 A 
ATOM     31  C   LIG     1      27.427  18.269  30.497  0.00  0.00     0.001 A 
ATOM     32  C   LIG     1      27.463  18.475  29.118  0.00  0.00     0.008 A 
ENDBRANCH  26  27
ENDBRANCH  24  25
ENDBRANCH  23  24
ENDBRANCH   2  23
BRANCH   4  33
ATOM     33  O   LIG     1      26.547  19.468  21.192  0.00  0.00    -0.386 OA
ATOM     34  H   LIG     1      26.949  18.583  21.213  0.00  0.00     0.210 HD
ENDBRANCH   4  33
BRANCH   3  35
ATOM     35  O   LIG     1      29.455  19.287  21.628  0.00  0.00    -0.384 OA
ATOM     36  H   LIG     1      29.231  19.847  20.866  0.00  0.00     0.210 HD
ENDBRANCH   3  35
TORSDOF 13
ENDMDL
MODEL 4
REMARK VINA RESULT:      -9.8      1.344      2.117
REMARK  13 active torsions:
REMARK  status: ('A' for Active; 'I' for Inactive)
REMARK    1  A    between atoms: C_2  and  O_12 
REMARK    2  A    between atoms: C_3  and  O_10 
REMARK    3  A    between atoms: C_4  and  O_8 
REMARK    4  A    between atoms: C_5  and  O_6 
REMARK    5  A    between atoms: C_22  and  C_23 
REMARK    6  A    between atoms: O_12  and  C_13 
REMARK    7  A    between atoms: C_13  and  C_14 
REMARK    8  A    between atoms: C_15  and  C_16 
REMARK    9  A    between atoms: C_23  and  O_24 
REMARK   10  A    between atoms: O_24  and  C_25 
REMARK   11  A    between atoms: C_26  and  O_34 
REMARK   12  A    between atoms: C_27  and  O_32 
REMARK   13  A    between atoms: C_28  and  O_30 
ROOT
ATOM      1  O   LIG     1      16.857  37.375  27.070  0.00  0.00    -0.341 OA
ATOM      2  C   LIG     1      16.887  38.697  26.536  0.00  0.00     0.282 C 
ATOM      3  C   LIG     1      18.233  38.973  25.865  0.00  0.00     0.201 C 
ATOM      4  C   LIG     1      18.564  37.906  24.822  0.00  0.00     0.179 C 
ATOM      5  C   LIG     1      18.366  36.500  25.387  0.00  0.00     0.177 C 
ATOM      6  C   LIG     1      16.998  36.373  26.062  0.00  0.00     0.178 C 
ENDROOT
BRANCH   6   7
ATOM      7  C   LIG     1      16.823  35.015  26.735  0.00  0.00     0.197 C 
BRANCH   7   8
ATOM      8  O   LIG     1      17.917  34.190  26.376  0.00  0.00    -0.346 OA
BRANCH   8   9
ATOM      9  C   LIG     1      18.767  33.928  27.487  0.00  0.00     0.281 C 
ATOM     10  O   LIG     1      20.153  33.987  27.129  0.00  0.00    -0.346 OA
ATOM     11  C   LIG     1      20.560  32.951  26.238  0.00  0.00     0.197 C 
ATOM     12  C   LIG     1      20.344  31.583  26.871  0.00  0.00     0.171 C 
ATOM     13  C   LIG     1      18.877  31.395  27.260  0.00  0.00     0.178 C 
ATOM     14  C   LIG     1      18.403  32.574  28.116  0.00  0.00     0.201 C 
BRANCH  12  15
ATOM     15  O   LIG     1      20.740  30.554  25.974  0.00  0.00    -0.387 OA
ATOM     16  H   LIG     1      20.149  30.592  25.203  0.00  0.00     0.210 HD
ENDBRANCH  12  15
BRANCH  13  17
ATOM     17  O   LIG     1      18.082  31.313  26.078  0.00  0.00    -0.386 OA
ATOM     18  H   LIG     1      18.682  31.382  25.316  0.00  0.00     0.210 HD
ENDBRANCH  13  17
BRANCH  14  19
ATOM     19  O   LIG     1      19.020  32.504  29.399  0.00  0.00    -0.384 OA
ATOM     20  H   LIG     1      18.443  31.994  29.991  0.00  0.00     0.210 HD
ENDBRANCH  14  19
ENDBRANCH   8   9
ENDBRANCH   7   8
ENDBRANCH   6   7
BRANCH   5  21
ATOM     21  O   LIG     1      18.460  35.549  24.329  0.00  0.00    -0.386 OA
ATOM     22  H   LIG     1      18.488  36.037  23.488  0.00  0.00     0.210 HD
ENDBRANCH   5  21
BRANCH   2  23
ATOM     23  O   LIG     1      16.716  39.645  27.587  0.00  0.00    -0.345 OA
BRANCH  23  24
ATOM     24  C   LIG     1      15.346  39.807  27.920  0.00  0.00     0.190 C 
BRANCH  24  25
ATOM     25  C   LIG     1      15.190  39.664  29.400  0.00  0.00     0.001 C 
ATOM     26  C   LIG     1      15.958  38.857  30.148  0.00  0.00     0.006 C 
BRANCH  26  27
ATOM     27  C   LIG     1      15.851  38.696  31.608  0.00  0.00    -0.025 A 
ATOM     28  C   LIG     1      14.784  39.273  32.278  0.00  0.00     0.008 A 
ATOM     29  C   LIG     1      14.682  39.119  33.660  0.00  0.00     0.001 A 
ATOM     30  C   LIG     1      15.649  38.393  34.355  0.00  0.00     0.000 A 
ATOM     31  C   LIG     1      16.718  37.818  33.667  0.00  0.00     0.001 A 
ATOM     32  C   LIG     1      16.819  37.971  32.284  0.00  0.00     0.008 A 
ENDBRANCH  26  27
ENDBRANCH  24  25
ENDBRANCH  23  24
ENDBRANCH   2  23
BRANCH   4  33
ATOM     33  O   LIG     1      19.931  38.035  24.428  0.00  0.00    -0.386 OA
ATOM     34  H   LIG     1      19.940  38.363  23.513  0.00  0.00     0.210 HD
ENDBRANCH   4  33
BRANCH   3  35
ATOM     35  O   LIG     1      18.162  40.250  25.231  0.00  0.00    -0.384 OA
ATOM     36  H   LIG     1      17.471  40.210  24.549  0.00  0.00     0.210 HD
ENDBRANCH   3  35
TORSDOF 13
ENDMDL
MODEL 5
REMARK VINA RESULT:      -9.2     14.603     20.094
REMARK  13 active torsions:
REMARK  status: ('A' for Active; 'I' for Inactive)
REMARK    1  A    between atoms: C_2  and  O_12 
REMARK    2  A    between atoms: C_3  and  O_10 
REMARK    3  A    between atoms: C_4  and  O_8 
REMARK    4  A    between atoms: C_5  and  O_6 
REMARK    5  A    between atoms: C_22  and  C_23 
REMARK    6  A    between atoms: O_12  and  C_13 
REMARK    7  A    between atoms: C_13  and  C_14 
REMARK    8  A    between atoms: C_15  and  C_16 
REMARK    9  A    between atoms: C_23  and  O_24 
REMARK   10  A    between atoms: O_24  and  C_25 
REMARK   11  A    between atoms: C_26  and  O_34 
REMARK   12  A    between atoms: C_27  and  O_32 
REMARK   13  A    between atoms: C_28  and  O_30 
ROOT
ATOM      1  O   LIG     1      27.987  20.414  24.776  0.00  0.00    -0.341 OA
ATOM      2  C   LIG     1      28.999  19.962  23.879  0.00  0.00     0.282 C 
ATOM      3  C   LIG     1      28.384  19.134  22.751  0.00  0.00     0.201 C 
ATOM      4  C   LIG     1      27.266  19.899  22.044  0.00  0.00     0.179 C 
ATOM      5  C   LIG     1      26.287  20.504  23.050  0.00  0.00     0.177 C 
ATOM      6  C   LIG     1      27.036  21.272  24.143  0.00  0.00     0.178 C 
ENDROOT
BRANCH   6   7
ATOM      7  C   LIG     1      26.089  21.787  25.222  0.00  0.00     0.197 C 
BRANCH   7   8
ATOM      8  O   LIG     1      25.505  22.995  24.770  0.00  0.00    -0.346 OA
BRANCH   8   9
ATOM      9  C   LIG     1      24.979  23.763  25.847  0.00  0.00     0.281 C 
ATOM     10  O   LIG     1      24.345  24.963  25.392  0.00  0.00    -0.346 OA
ATOM     11  C   LIG     1      25.245  25.905  24.814  0.00  0.00     0.197 C 
ATOM     12  C   LIG     1      26.293  26.340  25.830  0.00  0.00     0.171 C 
ATOM     13  C   LIG     1      27.065  25.130  26.359  0.00  0.00     0.178 C 
ATOM     14  C   LIG     1      26.090  24.062  26.866  0.00  0.00     0.201 C 
BRANCH  12  15
ATOM     15  O   LIG     1      27.194  27.269  25.245  0.00  0.00    -0.387 OA
ATOM     16  H   LIG     1      28.045  27.185  25.710  0.00  0.00     0.210 HD
ENDBRANCH  12  15
BRANCH  13  17
ATOM     17  O   LIG     1      27.865  24.586  25.310  0.00  0.00    -0.386 OA
ATOM     18  H   LIG     1      28.774  24.907  25.438  0.00  0.00     0.210 HD
ENDBRANCH  13  17
BRANCH  14  19
ATOM     19  O   LIG     1      25.474  24.519  28.068  0.00  0.00    -0.384 OA
ATOM     20  H   LIG     1      24.524  24.318  28.023  0.00  0.00     0.210 HD
ENDBRANCH  14  19
ENDBRANCH   8   9
ENDBRANCH   7   8
ENDBRANCH   6   7
BRANCH   5  21
ATOM     21  O   LIG     1      25.403  21.392  22.372  0.00  0.00    -0.386 OA
ATOM     22  H   LIG     1      25.277  21.058  21.467  0.00  0.00     0.210 HD
ENDBRANCH   5  21
BRANCH   2  23
ATOM     23  O   LIG     1      29.928  19.135  24.578  0.00  0.00    -0.345 OA
BRANCH  23  24
ATOM     24  C   LIG     1      29.363  17.871  24.888  0.00  0.00     0.190 C 
BRANCH  24  25
ATOM     25  C   LIG     1      29.414  17.670  26.368  0.00  0.00     0.001 C 
ATOM     26  C   LIG     1      28.469  18.123  27.206  0.00  0.00     0.006 C 
BRANCH  26  27
ATOM     27  C   LIG     1      28.470  17.936  28.668  0.00  0.00    -0.025 A 
ATOM     28  C   LIG     1      27.419  18.440  29.418  0.00  0.00     0.008 A 
ATOM     29  C   LIG     1      27.421  18.263  30.801  0.00  0.00     0.001 A 
ATOM     30  C   LIG     1      28.473  17.586  31.417  0.00  0.00     0.000 A 
ATOM     31  C   LIG     1      29.524  17.085  30.649  0.00  0.00     0.001 A 
ATOM     32  C   LIG     1      29.522  17.261  29.265  0.00  0.00     0.008 A 
ENDBRANCH  26  27
ENDBRANCH  24  25
ENDBRANCH  23  24
ENDBRANCH   2  23
BRANCH   4  33
ATOM     33  O   LIG     1      26.536  19.005  21.202  0.00  0.00    -0.386 OA
ATOM     34  H   LIG     1      27.070  18.199  21.102  0.00  0.00     0.210 HD
ENDBRANCH   4  33
BRANCH   3  35
ATOM     35  O   LIG     1      29.413  18.823  21.812  0.00  0.00    -0.384 OA
ATOM     36  H   LIG     1      29.948  18.100  22.180  0.00  0.00     0.210 HD
ENDBRANCH   3  35
TORSDOF 13
ENDMDL
MODEL 6
REMARK VINA RESULT:      -9.1     15.071     18.443
REMARK  13 active torsions:
REMARK  status: ('A' for Active; 'I' for Inactive)
REMARK    1  A    between atoms: C_2  and  O_12 
REMARK    2  A    between atoms: C_3  and  O_10 
REMARK    3  A    between atoms: C_4  and  O_8 
REMARK    4  A    between atoms: C_5  and  O_6 
REMARK    5  A    between atoms: C_22  and  C_23 
REMARK    6  A    between atoms: O_12  and  C_13 
REMARK    7  A    between atoms: C_13  and  C_14 
REMARK    8  A    between atoms: C_15  and  C_16 
REMARK    9  A    between atoms: C_23  and  O_24 
REMARK   10  A    between atoms: O_24  and  C_25 
REMARK   11  A    between atoms: C_26  and  O_34 
REMARK   12  A    between atoms: C_27  and  O_32 
REMARK   13  A    between atoms: C_28  and  O_30 
ROOT
ATOM      1  O   LIG     1      22.935  35.333  12.554  0.00  0.00    -0.341 OA
ATOM      2  C   LIG     1      23.232  34.299  13.490  0.00  0.00     0.282 C 
ATOM      3  C   LIG     1      22.579  32.984  13.060  0.00  0.00     0.201 C 
ATOM      4  C   LIG     1      22.963  32.615  11.627  0.00  0.00     0.179 C 
ATOM      5  C   LIG     1      22.781  33.801  10.682  0.00  0.00     0.177 C 
ATOM      6  C   LIG     1      23.448  35.056  11.250  0.00  0.00     0.178 C 
ENDROOT
BRANCH   6   7
ATOM      7  C   LIG     1      23.181  36.281  10.380  0.00  0.00     0.197 C 
BRANCH   7   8
ATOM      8  O   LIG     1      24.423  36.865  10.031  0.00  0.00    -0.346 OA
BRANCH   8   9
ATOM      9  C   LIG     1      24.303  37.727   8.904  0.00  0.00     0.281 C 
ATOM     10  O   LIG     1      25.572  37.992   8.294  0.00  0.00    -0.346 OA
ATOM     11  C   LIG     1      26.455  38.755   9.114  0.00  0.00     0.197 C 
ATOM     12  C   LIG     1      25.847  40.114   9.438  0.00  0.00     0.171 C 
ATOM     13  C   LIG     1      24.495  39.948  10.133  0.00  0.00     0.178 C 
ATOM     14  C   LIG     1      23.589  39.024   9.312  0.00  0.00     0.201 C 
BRANCH  12  15
ATOM     15  O   LIG     1      26.726  40.865  10.264  0.00  0.00    -0.387 OA
ATOM     16  H   LIG     1      26.992  41.657   9.766  0.00  0.00     0.210 HD
ENDBRANCH  12  15
BRANCH  13  17
ATOM     17  O   LIG     1      24.698  39.388  11.430  0.00  0.00    -0.386 OA
ATOM     18  H   LIG     1      24.345  40.019  12.080  0.00  0.00     0.210 HD
ENDBRANCH  13  17
BRANCH  14  19
ATOM     19  O   LIG     1      23.184  39.697   8.122  0.00  0.00    -0.384 OA
ATOM     20  H   LIG     1      23.849  40.373   7.909  0.00  0.00     0.210 HD
ENDBRANCH  14  19
ENDBRANCH   8   9
ENDBRANCH   7   8
ENDBRANCH   6   7
BRANCH   5  21
ATOM     21  O   LIG     1      23.361  33.490   9.417  0.00  0.00    -0.386 OA
ATOM     22  H   LIG     1      23.202  32.547   9.239  0.00  0.00     0.210 HD
ENDBRANCH   5  21
BRANCH   2  23
ATOM     23  O   LIG     1      22.716  34.647  14.773  0.00  0.00    -0.345 OA
BRANCH  23  24
ATOM     24  C   LIG     1      22.189  35.964  14.778  0.00  0.00     0.190 C 
BRANCH  24  25
ATOM     25  C   LIG     1      23.173  36.875  15.439  0.00  0.00     0.001 C 
ATOM     26  C   LIG     1      23.664  37.979  14.854  0.00  0.00     0.006 C 
BRANCH  26  27
ATOM     27  C   LIG     1      24.622  38.912  15.471  0.00  0.00    -0.025 A 
ATOM     28  C   LIG     1      24.868  40.133  14.864  0.00  0.00     0.008 A 
ATOM     29  C   LIG     1      25.775  41.016  15.449  0.00  0.00     0.001 A 
ATOM     30  C   LIG     1      26.426  40.667  16.631  0.00  0.00     0.000 A 
ATOM     31  C   LIG     1      26.169  39.434  17.231  0.00  0.00     0.001 A 
ATOM     32  C   LIG     1      25.261  38.551  16.646  0.00  0.00     0.008 A 
ENDBRANCH  26  27
ENDBRANCH  24  25
ENDBRANCH  23  24
ENDBRANCH   2  23
BRANCH   4  33
ATOM     33  O   LIG     1      22.124  31.552  11.169  0.00  0.00    -0.386 OA
ATOM     34  H   LIG     1      21.790  31.803  10.291  0.00  0.00     0.210 HD
ENDBRANCH   4  33
BRANCH   3  35
ATOM     35  O   LIG     1      23.016  31.956  13.948  0.00  0.00    -0.384 OA
ATOM     36  H   LIG     1      23.937  31.738  13.727  0.00  0.00     0.210 HD
ENDBRANCH   3  35
TORSDOF 13
ENDMDL
MODEL 7
REMARK VINA RESULT:      -9.0      1.713      2.100
REMARK  13 active torsions:
REMARK  status: ('A' for Active; 'I' for Inactive)
REMARK    1  A    between atoms: C_2  and  O_12 
REMARK    2  A    between atoms: C_3  and  O_10 
REMARK    3  A    between atoms: C_4  and  O_8 
REMARK    4  A    between atoms: C_5  and  O_6 
REMARK    5  A    between atoms: C_22  and  C_23 
REMARK    6  A    between atoms: O_12  and  C_13 
REMARK    7  A    between atoms: C_13  and  C_14 
REMARK    8  A    between atoms: C_15  and  C_16 
REMARK    9  A    between atoms: C_23  and  O_24 
REMARK   10  A    between atoms: O_24  and  C_25 
REMARK   11  A    between atoms: C_26  and  O_34 
REMARK   12  A    between atoms: C_27  and  O_32 
REMARK   13  A    between atoms: C_28  and  O_30 
ROOT
ATOM      1  O   LIG     1      17.808  37.963  27.845  0.00  0.00    -0.341 OA
ATOM      2  C   LIG     1      16.708  38.861  27.969  0.00  0.00     0.282 C 
ATOM      3  C   LIG     1      17.081  40.242  27.427  0.00  0.00     0.201 C 
ATOM      4  C   LIG     1      17.615  40.153  25.998  0.00  0.00     0.179 C 
ATOM      5  C   LIG     1      18.682  39.066  25.872  0.00  0.00     0.177 C 
ATOM      6  C   LIG     1      18.194  37.752  26.486  0.00  0.00     0.178 C 
ENDROOT
BRANCH   6   7
ATOM      7  C   LIG     1      19.284  36.685  26.477  0.00  0.00     0.197 C 
BRANCH   7   8
ATOM      8  O   LIG     1      18.778  35.518  27.100  0.00  0.00    -0.346 OA
BRANCH   8   9
ATOM      9  C   LIG     1      17.846  34.837  26.267  0.00  0.00     0.281 C 
ATOM     10  O   LIG     1      17.113  33.838  26.987  0.00  0.00    -0.346 OA
ATOM     11  C   LIG     1      17.914  32.746  27.431  0.00  0.00     0.197 C 
ATOM     12  C   LIG     1      18.553  32.032  26.246  0.00  0.00     0.171 C 
ATOM     13  C   LIG     1      19.399  33.004  25.423  0.00  0.00     0.178 C 
ATOM     14  C   LIG     1      18.571  34.239  25.051  0.00  0.00     0.201 C 
BRANCH  12  15
ATOM     15  O   LIG     1      19.359  30.952  26.695  0.00  0.00    -0.387 OA
ATOM     16  H   LIG     1      18.801  30.377  27.246  0.00  0.00     0.210 HD
ENDBRANCH  12  15
BRANCH  13  17
ATOM     17  O   LIG     1      20.536  33.404  26.186  0.00  0.00    -0.386 OA
ATOM     18  H   LIG     1      20.624  34.368  26.097  0.00  0.00     0.210 HD
ENDBRANCH  13  17
BRANCH  14  19
ATOM     19  O   LIG     1      17.586  33.875  24.087  0.00  0.00    -0.384 OA
ATOM     20  H   LIG     1      18.038  33.502  23.312  0.00  0.00     0.210 HD
ENDBRANCH  14  19
ENDBRANCH   8   9
ENDBRANCH   7   8
ENDBRANCH   6   7
BRANCH   5  21
ATOM     21  O   LIG     1      18.985  38.860  24.495  0.00  0.00    -0.386 OA
ATOM     22  H   LIG     1      18.384  39.416  23.969  0.00  0.00     0.210 HD
ENDBRANCH   5  21
BRANCH   2  23
ATOM     23  O   LIG     1      16.357  39.007  29.344  0.00  0.00    -0.345 OA
BRANCH  23  24
ATOM     24  C   LIG     1      17.370  38.492  30.194  0.00  0.00     0.190 C 
BRANCH  24  25
ATOM     25  C   LIG     1      16.733  37.971  31.441  0.00  0.00     0.001 C 
ATOM     26  C   LIG     1      16.818  38.593  32.628  0.00  0.00     0.006 C 
BRANCH  26  27
ATOM     27  C   LIG     1      16.196  38.125  33.878  0.00  0.00    -0.025 A 
ATOM     28  C   LIG     1      16.875  37.220  34.678  0.00  0.00     0.008 A 
ATOM     29  C   LIG     1      16.285  36.778  35.862  0.00  0.00     0.001 A 
ATOM     30  C   LIG     1      15.024  37.246  36.231  0.00  0.00     0.000 A 
ATOM     31  C   LIG     1      14.352  38.157  35.416  0.00  0.00     0.001 A 
ATOM     32  C   LIG     1      14.942  38.599  34.232  0.00  0.00     0.008 A 
ENDBRANCH  26  27
ENDBRANCH  24  25
ENDBRANCH  23  24
ENDBRANCH   2  23
BRANCH   4  33
ATOM     33  O   LIG     1      18.210  41.400  25.635  0.00  0.00    -0.386 OA
ATOM     34  H   LIG     1      18.522  41.823  26.452  0.00  0.00     0.210 HD
ENDBRANCH   4  33
BRANCH   3  35
ATOM     35  O   LIG     1      15.912  41.060  27.447  0.00  0.00    -0.384 OA
ATOM     36  H   LIG     1      16.195  41.989  27.477  0.00  0.00     0.210 HD
ENDBRANCH   3  35
TORSDOF 13
ENDMDL
MODEL 8
REMARK VINA RESULT:      -9.0     18.080     21.573
REMARK  13 active torsions:
REMARK  status: ('A' for Active; 'I' for Inactive)
REMARK    1  A    between atoms: C_2  and  O_12 
REMARK    2  A    between atoms: C_3  and  O_10 
REMARK    3  A    between atoms: C_4  and  O_8 
REMARK    4  A    between atoms: C_5  and  O_6 
REMARK    5  A    between atoms: C_22  and  C_23 
REMARK    6  A    between atoms: O_12  and  C_13 
REMARK    7  A    between atoms: C_13  and  C_14 
REMARK    8  A    between atoms: C_15  and  C_16 
REMARK    9  A    between atoms: C_23  and  O_24 
REMARK   10  A    between atoms: O_24  and  C_25 
REMARK   11  A    between atoms: C_26  and  O_34 
REMARK   12  A    between atoms: C_27  and  O_32 
REMARK   13  A    between atoms: C_28  and  O_30 
ROOT
ATOM      1  O   LIG     1      22.488  28.577  11.016  0.00  0.00    -0.341 OA
ATOM      2  C   LIG     1      22.130  29.165  12.265  0.00  0.00     0.282 C 
ATOM      3  C   LIG     1      22.882  30.480  12.473  0.00  0.00     0.201 C 
ATOM      4  C   LIG     1      22.682  31.429  11.292  0.00  0.00     0.179 C 
ATOM      5  C   LIG     1      22.922  30.716   9.962  0.00  0.00     0.177 C 
ATOM      6  C   LIG     1      22.141  29.400   9.902  0.00  0.00     0.178 C 
ENDROOT
BRANCH   6   7
ATOM      7  C   LIG     1      22.455  28.614   8.633  0.00  0.00     0.197 C 
BRANCH   7   8
ATOM      8  O   LIG     1      21.246  28.081   8.123  0.00  0.00    -0.346 OA
BRANCH   8   9
ATOM      9  C   LIG     1      21.359  27.741   6.745  0.00  0.00     0.281 C 
ATOM     10  O   LIG     1      20.087  27.740   6.087  0.00  0.00    -0.346 OA
ATOM     11  C   LIG     1      19.207  26.713   6.538  0.00  0.00     0.197 C 
ATOM     12  C   LIG     1      19.815  25.338   6.289  0.00  0.00     0.171 C 
ATOM     13  C   LIG     1      21.171  25.214   6.985  0.00  0.00     0.178 C 
ATOM     14  C   LIG     1      22.074  26.390   6.596  0.00  0.00     0.201 C 
BRANCH  12  15
ATOM     15  O   LIG     1      18.940  24.318   6.751  0.00  0.00    -0.387 OA
ATOM     16  H   LIG     1      18.280  24.737   7.330  0.00  0.00     0.210 HD
ENDBRANCH  12  15
BRANCH  13  17
ATOM     17  O   LIG     1      20.977  25.209   8.399  0.00  0.00    -0.386 OA
ATOM     18  H   LIG     1      20.607  26.074   8.646  0.00  0.00     0.210 HD
ENDBRANCH  13  17
BRANCH  14  19
ATOM     19  O   LIG     1      22.471  26.249   5.234  0.00  0.00    -0.384 OA
ATOM     20  H   LIG     1      21.677  26.090   4.697  0.00  0.00     0.210 HD
ENDBRANCH  14  19
ENDBRANCH   8   9
ENDBRANCH   7   8
ENDBRANCH   6   7
BRANCH   5  21
ATOM     21  O   LIG     1      22.505  31.561   8.892  0.00  0.00    -0.386 OA
ATOM     22  H   LIG     1      21.532  31.575   8.883  0.00  0.00     0.210 HD
ENDBRANCH   5  21
BRANCH   2  23
ATOM     23  O   LIG     1      22.478  28.284  13.331  0.00  0.00    -0.345 OA
BRANCH  23  24
ATOM     24  C   LIG     1      23.305  27.224  12.876  0.00  0.00     0.190 C 
BRANCH  24  25
ATOM     25  C   LIG     1      22.540  25.943  12.968  0.00  0.00     0.001 C 
ATOM     26  C   LIG     1      21.333  25.764  12.410  0.00  0.00     0.006 C 
BRANCH  26  27
ATOM     27  C   LIG     1      20.550  24.517  12.462  0.00  0.00    -0.025 A 
ATOM     28  C   LIG     1      20.717  23.569  11.465  0.00  0.00     0.008 A 
ATOM     29  C   LIG     1      19.976  22.389  11.515  0.00  0.00     0.001 A 
ATOM     30  C   LIG     1      19.076  22.172  12.559  0.00  0.00     0.000 A 
ATOM     31  C   LIG     1      18.919  23.136  13.555  0.00  0.00     0.001 A 
ATOM     32  C   LIG     1      19.660  24.317  13.505  0.00  0.00     0.008 A 
ENDBRANCH  26  27
ENDBRANCH  24  25
ENDBRANCH  23  24
ENDBRANCH   2  23
BRANCH   4  33
ATOM     33  O   LIG     1      23.612  32.509  11.388  0.00  0.00    -0.386 OA
ATOM     34  H   LIG     1      23.421  33.123  10.659  0.00  0.00     0.210 HD
ENDBRANCH   4  33
BRANCH   3  35
ATOM     35  O   LIG     1      22.389  31.093  13.664  0.00  0.00    -0.384 OA
ATOM     36  H   LIG     1      21.733  31.762  13.408  0.00  0.00     0.210 HD
ENDBRANCH   3  35
TORSDOF 13
ENDMDL
MODEL 9
REMARK VINA RESULT:      -8.9     14.519     17.887
REMARK  13 active torsions:
REMARK  status: ('A' for Active; 'I' for Inactive)
REMARK    1  A    between atoms: C_2  and  O_12 
REMARK    2  A    between atoms: C_3  and  O_10 
REMARK    3  A    between atoms: C_4  and  O_8 
REMARK    4  A    between atoms: C_5  and  O_6 
REMARK    5  A    between atoms: C_22  and  C_23 
REMARK    6  A    between atoms: O_12  and  C_13 
REMARK    7  A    between atoms: C_13  and  C_14 
REMARK    8  A    between atoms: C_15  and  C_16 
REMARK    9  A    between atoms: C_23  and  O_24 
REMARK   10  A    between atoms: O_24  and  C_25 
REMARK   11  A    between atoms: C_26  and  O_34 
REMARK   12  A    between atoms: C_27  and  O_32 
REMARK   13  A    between atoms: C_28  and  O_30 
ROOT
ATOM      1  O   LIG     1      24.243  40.148  14.622  0.00  0.00    -0.341 OA
ATOM      2  C   LIG     1      23.641  39.258  15.558  0.00  0.00     0.282 C 
ATOM      3  C   LIG     1      24.699  38.662  16.487  0.00  0.00     0.201 C 
ATOM      4  C   LIG     1      25.530  39.755  17.159  0.00  0.00     0.179 C 
ATOM      5  C   LIG     1      26.025  40.780  16.140  0.00  0.00     0.177 C 
ATOM      6  C   LIG     1      24.875  41.264  15.253  0.00  0.00     0.178 C 
ENDROOT
BRANCH   6   7
ATOM      7  C   LIG     1      25.365  42.199  14.152  0.00  0.00     0.197 C 
BRANCH   7   8
ATOM      8  O   LIG     1      25.584  43.480  14.714  0.00  0.00    -0.346 OA
BRANCH   8   9
ATOM      9  C   LIG     1      24.468  44.342  14.516  0.00  0.00     0.281 C 
ATOM     10  O   LIG     1      24.871  45.669  14.160  0.00  0.00    -0.346 OA
ATOM     11  C   LIG     1      25.554  46.362  15.202  0.00  0.00     0.197 C 
ATOM     12  C   LIG     1      24.660  46.504  16.427  0.00  0.00     0.171 C 
ATOM     13  C   LIG     1      24.198  45.132  16.920  0.00  0.00     0.178 C 
ATOM     14  C   LIG     1      23.576  44.338  15.766  0.00  0.00     0.201 C 
BRANCH  12  15
ATOM     15  O   LIG     1      25.349  47.184  17.467  0.00  0.00    -0.387 OA
ATOM     16  H   LIG     1      25.775  47.966  17.075  0.00  0.00     0.210 HD
ENDBRANCH  12  15
BRANCH  13  17
ATOM     17  O   LIG     1      25.318  44.418  17.442  0.00  0.00    -0.386 OA
ATOM     18  H   LIG     1      26.102  44.695  16.939  0.00  0.00     0.210 HD
ENDBRANCH  13  17
BRANCH  14  19
ATOM     19  O   LIG     1      22.323  44.920  15.416  0.00  0.00    -0.384 OA
ATOM     20  H   LIG     1      21.614  44.388  15.816  0.00  0.00     0.210 HD
ENDBRANCH  14  19
ENDBRANCH   8   9
ENDBRANCH   7   8
ENDBRANCH   6   7
BRANCH   5  21
ATOM     21  O   LIG     1      26.591  41.893  16.826  0.00  0.00    -0.386 OA
ATOM     22  H   LIG     1      27.162  41.549  17.535  0.00  0.00     0.210 HD
ENDBRANCH   5  21
BRANCH   2  23
ATOM     23  O   LIG     1      23.008  38.185  14.865  0.00  0.00    -0.345 OA
BRANCH  23  24
ATOM     24  C   LIG     1      23.890  37.580  13.933  0.00  0.00     0.190 C 
BRANCH  24  25
ATOM     25  C   LIG     1      23.484  36.154  13.740  0.00  0.00     0.001 C 
ATOM     26  C   LIG     1      23.564  35.518  12.561  0.00  0.00     0.006 C 
BRANCH  26  27
ATOM     27  C   LIG     1      23.190  34.113  12.327  0.00  0.00    -0.025 A 
ATOM     28  C   LIG     1      23.300  33.583  11.051  0.00  0.00     0.008 A 
ATOM     29  C   LIG     1      22.946  32.253  10.831  0.00  0.00     0.001 A 
ATOM     30  C   LIG     1      22.485  31.469  11.888  0.00  0.00     0.000 A 
ATOM     31  C   LIG     1      22.379  32.015  13.167  0.00  0.00     0.001 A 
ATOM     32  C   LIG     1      22.733  33.346  13.388  0.00  0.00     0.008 A 
ENDBRANCH  26  27
ENDBRANCH  24  25
ENDBRANCH  23  24
ENDBRANCH   2  23
BRANCH   4  33
ATOM     33  O   LIG     1      26.672  39.168  17.785  0.00  0.00    -0.386 OA
ATOM     34  H   LIG     1      26.379  38.799  18.636  0.00  0.00     0.210 HD
ENDBRANCH   4  33
BRANCH   3  35
ATOM     35  O   LIG     1      24.033  37.890  17.486  0.00  0.00    -0.384 OA
ATOM     36  H   LIG     1      23.689  37.085  17.066  0.00  0.00     0.210 HD
ENDBRANCH   3  35
TORSDOF 13
ENDMDL
