MODEL 1
REMARK VINA RESULT:      -9.0      0.000      0.000
REMARK  13 active torsions:
REMARK  status: ('A' for Active; 'I' for Inactive)
REMARK    1  A    between atoms: C_2  and  O_12 
REMARK    2  A    between atoms: C_3  and  O_10 
REMARK    3  A    between atoms: C_4  and  O_8 
REMARK    4  A    between atoms: C_5  and  O_6 
REMARK    5  A    between atoms: C_22  and  C_23 
REMARK    6  A    between atoms: O_12  and  C_13 
REMARK    7  A    between atoms: C_13  and  C_14 
REMARK    8  A    between atoms: C_15  and  C_16 
REMARK    9  A    between atoms: C_23  and  O_24 
REMARK   10  A    between atoms: O_24  and  C_25 
REMARK   11  A    between atoms: C_26  and  O_34 
REMARK   12  A    between atoms: C_27  and  O_32 
REMARK   13  A    between atoms: C_28  and  O_30 
ROOT
ATOM      1  O   LIG     1      16.835  22.127  90.806  0.00  0.00    -0.341 OA
ATOM      2  C   LIG     1      16.621  21.469  92.053  0.00  0.00     0.282 C 
ATOM      3  C   LIG     1      16.712  22.467  93.208  0.00  0.00     0.201 C 
ATOM      4  C   LIG     1      15.771  23.652  92.995  0.00  0.00     0.179 C 
ATOM      5  C   LIG     1      15.918  24.230  91.588  0.00  0.00     0.177 C 
ATOM      6  C   LIG     1      15.847  23.122  90.535  0.00  0.00     0.178 C 
ENDROOT
BRANCH   6   7
ATOM      7  C   LIG     1      16.107  23.659  89.130  0.00  0.00     0.197 C 
BRANCH   7   8
ATOM      8  O   LIG     1      16.888  24.836  89.236  0.00  0.00    -0.346 OA
BRANCH   8   9
ATOM      9  C   LIG     1      16.753  25.664  88.086  0.00  0.00     0.281 C 
ATOM     10  O   LIG     1      18.021  26.121  87.601  0.00  0.00    -0.346 OA
ATOM     11  C   LIG     1      18.688  27.014  88.490  0.00  0.00     0.197 C 
ATOM     12  C   LIG     1      17.849  28.264  88.725  0.00  0.00     0.171 C 
ATOM     13  C   LIG     1      16.474  27.893  89.284  0.00  0.00     0.178 C 
ATOM     14  C   LIG     1      15.810  26.837  88.394  0.00  0.00     0.201 C 
BRANCH  12  15
ATOM     15  O   LIG     1      18.512  29.145  89.620  0.00  0.00    -0.387 OA
ATOM     16  H   LIG     1      18.175  28.964  90.514  0.00  0.00     0.210 HD
ENDBRANCH  12  15
BRANCH  13  17
ATOM     17  O   LIG     1      16.627  27.376  90.605  0.00  0.00    -0.386 OA
ATOM     18  H   LIG     1      15.865  26.799  90.784  0.00  0.00     0.210 HD
ENDBRANCH  13  17
BRANCH  14  19
ATOM     19  O   LIG     1      15.430  27.434  87.157  0.00  0.00    -0.384 OA
ATOM     20  H   LIG     1      14.752  28.107  87.335  0.00  0.00     0.210 HD
ENDBRANCH  14  19
ENDBRANCH   8   9
ENDBRANCH   7   8
ENDBRANCH   6   7
BRANCH   5  21
ATOM     21  O   LIG     1      14.874  25.172  91.353  0.00  0.00    -0.386 OA
ATOM     22  H   LIG     1      14.129  24.945  91.937  0.00  0.00     0.210 HD
ENDBRANCH   5  21
BRANCH   2  23
ATOM     23  O   LIG     1      17.623  20.473  92.251  0.00  0.00    -0.345 OA
BRANCH  23  24
ATOM     24  C   LIG     1      17.049  19.187  92.418  0.00  0.00     0.190 C 
BRANCH  24  25
ATOM     25  C   LIG     1      15.728  19.155  91.719  0.00  0.00     0.001 C 
ATOM     26  C   LIG     1      14.608  18.672  92.279  0.00  0.00     0.006 C 
BRANCH  26  27
ATOM     27  C   LIG     1      13.284  18.633  91.635  0.00  0.00    -0.025 A 
ATOM     28  C   LIG     1      12.866  17.468  91.012  0.00  0.00     0.008 A 
ATOM     29  C   LIG     1      11.612  17.432  90.402  0.00  0.00     0.001 A 
ATOM     30  C   LIG     1      10.794  18.561  90.422  0.00  0.00     0.000 A 
ATOM     31  C   LIG     1      11.228  19.727  91.052  0.00  0.00     0.001 A 
ATOM     32  C   LIG     1      12.482  19.763  91.662  0.00  0.00     0.008 A 
ENDBRANCH  26  27
ENDBRANCH  24  25
ENDBRANCH  23  24
ENDBRANCH   2  23
BRANCH   4  33
ATOM     33  O   LIG     1      16.086  24.684  93.932  0.00  0.00    -0.386 OA
ATOM     34  H   LIG     1      15.268  25.180  94.104  0.00  0.00     0.210 HD
ENDBRANCH   4  33
BRANCH   3  35
ATOM     35  O   LIG     1      16.357  21.790  94.413  0.00  0.00    -0.384 OA
ATOM     36  H   LIG     1      17.172  21.447  94.817  0.00  0.00     0.210 HD
ENDBRANCH   3  35
TORSDOF 13
ENDMDL
MODEL 2
REMARK VINA RESULT:      -8.3     27.907     33.205
REMARK  13 active torsions:
REMARK  status: ('A' for Active; 'I' for Inactive)
REMARK    1  A    between atoms: C_2  and  O_12 
REMARK    2  A    between atoms: C_3  and  O_10 
REMARK    3  A    between atoms: C_4  and  O_8 
REMARK    4  A    between atoms: C_5  and  O_6 
REMARK    5  A    between atoms: C_22  and  C_23 
REMARK    6  A    between atoms: O_12  and  C_13 
REMARK    7  A    between atoms: C_13  and  C_14 
REMARK    8  A    between atoms: C_15  and  C_16 
REMARK    9  A    between atoms: C_23  and  O_24 
REMARK   10  A    between atoms: O_24  and  C_25 
REMARK   11  A    between atoms: C_26  and  O_34 
REMARK   12  A    between atoms: C_27  and  O_32 
REMARK   13  A    between atoms: C_28  and  O_30 
ROOT
ATOM      1  O   LIG     1      33.804  46.098  77.079  0.00  0.00    -0.341 OA
ATOM      2  C   LIG     1      34.558  47.225  76.638  0.00  0.00     0.282 C 
ATOM      3  C   LIG     1      35.034  47.021  75.199  0.00  0.00     0.201 C 
ATOM      4  C   LIG     1      33.869  46.688  74.269  0.00  0.00     0.179 C 
ATOM      5  C   LIG     1      32.992  45.582  74.853  0.00  0.00     0.177 C 
ATOM      6  C   LIG     1      32.620  45.894  76.306  0.00  0.00     0.178 C 
ENDROOT
BRANCH   6   7
ATOM      7  C   LIG     1      31.841  44.750  76.948  0.00  0.00     0.197 C 
BRANCH   7   8
ATOM      8  O   LIG     1      30.458  45.029  76.839  0.00  0.00    -0.346 OA
BRANCH   8   9
ATOM      9  C   LIG     1      29.745  43.946  76.251  0.00  0.00     0.281 C 
ATOM     10  O   LIG     1      29.419  44.199  74.879  0.00  0.00    -0.346 OA
ATOM     11  C   LIG     1      28.482  45.258  74.697  0.00  0.00     0.197 C 
ATOM     12  C   LIG     1      27.166  44.935  75.393  0.00  0.00     0.171 C 
ATOM     13  C   LIG     1      27.392  44.683  76.885  0.00  0.00     0.178 C 
ATOM     14  C   LIG     1      28.491  43.633  77.081  0.00  0.00     0.201 C 
BRANCH  12  15
ATOM     15  O   LIG     1      26.239  45.998  75.219  0.00  0.00    -0.387 OA
ATOM     16  H   LIG     1      26.271  46.266  74.285  0.00  0.00     0.210 HD
ENDBRANCH  12  15
BRANCH  13  17
ATOM     17  O   LIG     1      27.779  45.903  77.516  0.00  0.00    -0.386 OA
ATOM     18  H   LIG     1      27.419  46.634  76.985  0.00  0.00     0.210 HD
ENDBRANCH  13  17
BRANCH  14  19
ATOM     19  O   LIG     1      28.002  42.356  76.677  0.00  0.00    -0.384 OA
ATOM     20  H   LIG     1      28.632  41.971  76.045  0.00  0.00     0.210 HD
ENDBRANCH  14  19
ENDBRANCH   8   9
ENDBRANCH   7   8
ENDBRANCH   6   7
BRANCH   5  21
ATOM     21  O   LIG     1      31.802  45.464  74.078  0.00  0.00    -0.386 OA
ATOM     22  H   LIG     1      31.104  45.980  74.517  0.00  0.00     0.210 HD
ENDBRANCH   5  21
BRANCH   2  23
ATOM     23  O   LIG     1      35.709  47.388  77.465  0.00  0.00    -0.345 OA
BRANCH  23  24
ATOM     24  C   LIG     1      35.355  47.446  78.837  0.00  0.00     0.190 C 
BRANCH  24  25
ATOM     25  C   LIG     1      35.122  48.873  79.215  0.00  0.00     0.001 C 
ATOM     26  C   LIG     1      34.918  49.277  80.478  0.00  0.00     0.006 C 
BRANCH  26  27
ATOM     27  C   LIG     1      34.699  50.672  80.899  0.00  0.00    -0.025 A 
ATOM     28  C   LIG     1      33.600  50.980  81.685  0.00  0.00     0.008 A 
ATOM     29  C   LIG     1      33.394  52.301  82.083  0.00  0.00     0.001 A 
ATOM     30  C   LIG     1      34.288  53.296  81.689  0.00  0.00     0.000 A 
ATOM     31  C   LIG     1      35.389  52.972  80.898  0.00  0.00     0.001 A 
ATOM     32  C   LIG     1      35.596  51.651  80.500  0.00  0.00     0.008 A 
ENDBRANCH  26  27
ENDBRANCH  24  25
ENDBRANCH  23  24
ENDBRANCH   2  23
BRANCH   4  33
ATOM     33  O   LIG     1      34.377  46.232  73.014  0.00  0.00    -0.386 OA
ATOM     34  H   LIG     1      33.963  45.372  72.828  0.00  0.00     0.210 HD
ENDBRANCH   4  33
BRANCH   3  35
ATOM     35  O   LIG     1      35.662  48.226  74.762  0.00  0.00    -0.384 OA
ATOM     36  H   LIG     1      36.301  48.497  75.442  0.00  0.00     0.210 HD
ENDBRANCH   3  35
TORSDOF 13
ENDMDL
MODEL 3
REMARK VINA RESULT:      -8.3     17.274     19.885
REMARK  13 active torsions:
REMARK  status: ('A' for Active; 'I' for Inactive)
REMARK    1  A    between atoms: C_2  and  O_12 
REMARK    2  A    between atoms: C_3  and  O_10 
REMARK    3  A    between atoms: C_4  and  O_8 
REMARK    4  A    between atoms: C_5  and  O_6 
REMARK    5  A    between atoms: C_22  and  C_23 
REMARK    6  A    between atoms: O_12  and  C_13 
REMARK    7  A    between atoms: C_13  and  C_14 
REMARK    8  A    between atoms: C_15  and  C_16 
REMARK    9  A    between atoms: C_23  and  O_24 
REMARK   10  A    between atoms: O_24  and  C_25 
REMARK   11  A    between atoms: C_26  and  O_34 
REMARK   12  A    between atoms: C_27  and  O_32 
REMARK   13  A    between atoms: C_28  and  O_30 
ROOT
ATOM      1  O   LIG     1      20.243  25.765  72.764  0.00  0.00    -0.341 OA
ATOM      2  C   LIG     1      19.123  26.115  73.574  0.00  0.00     0.282 C 
ATOM      3  C   LIG     1      17.913  25.249  73.218  0.00  0.00     0.201 C 
ATOM      4  C   LIG     1      18.253  23.761  73.289  0.00  0.00     0.179 C 
ATOM      5  C   LIG     1      19.550  23.453  72.541  0.00  0.00     0.177 C 
ATOM      6  C   LIG     1      20.663  24.414  72.964  0.00  0.00     0.178 C 
ENDROOT
BRANCH   6   7
ATOM      7  C   LIG     1      21.934  24.202  72.146  0.00  0.00     0.197 C 
BRANCH   7   8
ATOM      8  O   LIG     1      22.628  23.087  72.675  0.00  0.00    -0.346 OA
BRANCH   8   9
ATOM      9  C   LIG     1      23.677  23.484  73.552  0.00  0.00     0.281 C 
ATOM     10  O   LIG     1      24.798  22.596  73.485  0.00  0.00    -0.346 OA
ATOM     11  C   LIG     1      24.525  21.288  73.981  0.00  0.00     0.197 C 
ATOM     12  C   LIG     1      24.115  21.343  75.447  0.00  0.00     0.171 C 
ATOM     13  C   LIG     1      22.891  22.242  75.630  0.00  0.00     0.178 C 
ATOM     14  C   LIG     1      23.139  23.610  74.986  0.00  0.00     0.201 C 
BRANCH  12  15
ATOM     15  O   LIG     1      23.833  20.038  75.932  0.00  0.00    -0.387 OA
ATOM     16  H   LIG     1      23.190  20.127  76.657  0.00  0.00     0.210 HD
ENDBRANCH  12  15
BRANCH  13  17
ATOM     17  O   LIG     1      21.758  21.625  75.020  0.00  0.00    -0.386 OA
ATOM     18  H   LIG     1      21.069  21.540  75.701  0.00  0.00     0.210 HD
ENDBRANCH  13  17
BRANCH  14  19
ATOM     19  O   LIG     1      24.101  24.327  75.756  0.00  0.00    -0.384 OA
ATOM     20  H   LIG     1      24.303  23.811  76.554  0.00  0.00     0.210 HD
ENDBRANCH  14  19
ENDBRANCH   8   9
ENDBRANCH   7   8
ENDBRANCH   6   7
BRANCH   5  21
ATOM     21  O   LIG     1      19.950  22.114  72.822  0.00  0.00    -0.386 OA
ATOM     22  H   LIG     1      20.889  22.130  73.079  0.00  0.00     0.210 HD
ENDBRANCH   5  21
BRANCH   2  23
ATOM     23  O   LIG     1      18.771  27.478  73.347  0.00  0.00    -0.345 OA
BRANCH  23  24
ATOM     24  C   LIG     1      18.360  27.690  72.006  0.00  0.00     0.190 C 
BRANCH  24  25
ATOM     25  C   LIG     1      18.089  29.147  71.810  0.00  0.00     0.001 C 
ATOM     26  C   LIG     1      17.758  29.976  72.811  0.00  0.00     0.006 C 
BRANCH  26  27
ATOM     27  C   LIG     1      17.496  31.419  72.667  0.00  0.00    -0.025 A 
ATOM     28  C   LIG     1      16.642  31.858  71.669  0.00  0.00     0.008 A 
ATOM     29  C   LIG     1      16.395  33.224  71.534  0.00  0.00     0.001 A 
ATOM     30  C   LIG     1      17.005  34.133  72.397  0.00  0.00     0.000 A 
ATOM     31  C   LIG     1      17.863  33.677  73.397  0.00  0.00     0.001 A 
ATOM     32  C   LIG     1      18.110  32.310  73.533  0.00  0.00     0.008 A 
ENDBRANCH  26  27
ENDBRANCH  24  25
ENDBRANCH  23  24
ENDBRANCH   2  23
BRANCH   4  33
ATOM     33  O   LIG     1      17.204  23.004  72.684  0.00  0.00    -0.386 OA
ATOM     34  H   LIG     1      16.911  22.342  73.334  0.00  0.00     0.210 HD
ENDBRANCH   4  33
BRANCH   3  35
ATOM     35  O   LIG     1      16.866  25.541  74.143  0.00  0.00    -0.384 OA
ATOM     36  H   LIG     1      16.029  25.573  73.650  0.00  0.00     0.210 HD
ENDBRANCH   3  35
TORSDOF 13
ENDMDL
MODEL 4
REMARK VINA RESULT:      -8.2     16.379     20.197
REMARK  13 active torsions:
REMARK  status: ('A' for Active; 'I' for Inactive)
REMARK    1  A    between atoms: C_2  and  O_12 
REMARK    2  A    between atoms: C_3  and  O_10 
REMARK    3  A    between atoms: C_4  and  O_8 
REMARK    4  A    between atoms: C_5  and  O_6 
REMARK    5  A    between atoms: C_22  and  C_23 
REMARK    6  A    between atoms: O_12  and  C_13 
REMARK    7  A    between atoms: C_13  and  C_14 
REMARK    8  A    between atoms: C_15  and  C_16 
REMARK    9  A    between atoms: C_23  and  O_24 
REMARK   10  A    between atoms: O_24  and  C_25 
REMARK   11  A    between atoms: C_26  and  O_34 
REMARK   12  A    between atoms: C_27  and  O_32 
REMARK   13  A    between atoms: C_28  and  O_30 
ROOT
ATOM      1  O   LIG     1      17.604  27.604  73.147  0.00  0.00    -0.341 OA
ATOM      2  C   LIG     1      16.683  26.733  72.494  0.00  0.00     0.282 C 
ATOM      3  C   LIG     1      16.112  25.718  73.484  0.00  0.00     0.201 C 
ATOM      4  C   LIG     1      15.509  26.410  74.706  0.00  0.00     0.179 C 
ATOM      5  C   LIG     1      16.468  27.451  75.282  0.00  0.00     0.177 C 
ATOM      6  C   LIG     1      16.992  28.376  74.181  0.00  0.00     0.178 C 
ENDROOT
BRANCH   6   7
ATOM      7  C   LIG     1      18.040  29.349  74.711  0.00  0.00     0.197 C 
BRANCH   7   8
ATOM      8  O   LIG     1      17.620  30.669  74.415  0.00  0.00    -0.346 OA
BRANCH   8   9
ATOM      9  C   LIG     1      18.583  31.367  73.633  0.00  0.00     0.281 C 
ATOM     10  O   LIG     1      18.522  32.782  73.843  0.00  0.00    -0.346 OA
ATOM     11  C   LIG     1      17.318  33.382  73.372  0.00  0.00     0.197 C 
ATOM     12  C   LIG     1      17.163  33.170  71.872  0.00  0.00     0.171 C 
ATOM     13  C   LIG     1      17.176  31.678  71.534  0.00  0.00     0.178 C 
ATOM     14  C   LIG     1      18.409  31.008  72.149  0.00  0.00     0.201 C 
BRANCH  12  15
ATOM     15  O   LIG     1      15.956  33.759  71.409  0.00  0.00    -0.387 OA
ATOM     16  H   LIG     1      15.815  34.576  71.917  0.00  0.00     0.210 HD
ENDBRANCH  12  15
BRANCH  13  17
ATOM     17  O   LIG     1      15.994  31.068  72.051  0.00  0.00    -0.386 OA
ATOM     18  H   LIG     1      15.244  31.384  71.518  0.00  0.00     0.210 HD
ENDBRANCH  13  17
BRANCH  14  19
ATOM     19  O   LIG     1      19.576  31.438  71.452  0.00  0.00    -0.384 OA
ATOM     20  H   LIG     1      20.024  30.655  71.090  0.00  0.00     0.210 HD
ENDBRANCH  14  19
ENDBRANCH   8   9
ENDBRANCH   7   8
ENDBRANCH   6   7
BRANCH   5  21
ATOM     21  O   LIG     1      15.787  28.226  76.265  0.00  0.00    -0.386 OA
ATOM     22  H   LIG     1      15.531  27.632  76.992  0.00  0.00     0.210 HD
ENDBRANCH   5  21
BRANCH   2  23
ATOM     23  O   LIG     1      17.350  26.013  71.459  0.00  0.00    -0.345 OA
BRANCH  23  24
ATOM     24  C   LIG     1      18.373  25.182  71.984  0.00  0.00     0.190 C 
BRANCH  24  25
ATOM     25  C   LIG     1      19.651  25.481  71.269  0.00  0.00     0.001 C 
ATOM     26  C   LIG     1      19.776  26.463  70.362  0.00  0.00     0.006 C 
BRANCH  26  27
ATOM     27  C   LIG     1      21.016  26.803  69.644  0.00  0.00    -0.025 A 
ATOM     28  C   LIG     1      21.888  25.790  69.278  0.00  0.00     0.008 A 
ATOM     29  C   LIG     1      23.062  26.112  68.598  0.00  0.00     0.001 A 
ATOM     30  C   LIG     1      23.351  27.443  68.294  0.00  0.00     0.000 A 
ATOM     31  C   LIG     1      22.464  28.452  68.670  0.00  0.00     0.001 A 
ATOM     32  C   LIG     1      21.289  28.129  69.350  0.00  0.00     0.008 A 
ENDBRANCH  26  27
ENDBRANCH  24  25
ENDBRANCH  23  24
ENDBRANCH   2  23
BRANCH   4  33
ATOM     33  O   LIG     1      15.249  25.439  75.722  0.00  0.00    -0.386 OA
ATOM     34  H   LIG     1      14.297  25.472  75.919  0.00  0.00     0.210 HD
ENDBRANCH   4  33
BRANCH   3  35
ATOM     35  O   LIG     1      15.100  24.964  72.818  0.00  0.00    -0.384 OA
ATOM     36  H   LIG     1      15.254  25.032  71.861  0.00  0.00     0.210 HD
ENDBRANCH   3  35
TORSDOF 13
ENDMDL
MODEL 5
REMARK VINA RESULT:      -8.2     17.281     19.783
REMARK  13 active torsions:
REMARK  status: ('A' for Active; 'I' for Inactive)
REMARK    1  A    between atoms: C_2  and  O_12 
REMARK    2  A    between atoms: C_3  and  O_10 
REMARK    3  A    between atoms: C_4  and  O_8 
REMARK    4  A    between atoms: C_5  and  O_6 
REMARK    5  A    between atoms: C_22  and  C_23 
REMARK    6  A    between atoms: O_12  and  C_13 
REMARK    7  A    between atoms: C_13  and  C_14 
REMARK    8  A    between atoms: C_15  and  C_16 
REMARK    9  A    between atoms: C_23  and  O_24 
REMARK   10  A    between atoms: O_24  and  C_25 
REMARK   11  A    between atoms: C_26  and  O_34 
REMARK   12  A    between atoms: C_27  and  O_32 
REMARK   13  A    between atoms: C_28  and  O_30 
ROOT
ATOM      1  O   LIG     1      20.997  28.177  72.501  0.00  0.00    -0.341 OA
ATOM      2  C   LIG     1      22.089  28.239  73.416  0.00  0.00     0.282 C 
ATOM      3  C   LIG     1      23.301  28.900  72.758  0.00  0.00     0.201 C 
ATOM      4  C   LIG     1      22.941  30.265  72.173  0.00  0.00     0.179 C 
ATOM      5  C   LIG     1      21.671  30.188  71.326  0.00  0.00     0.177 C 
ATOM      6  C   LIG     1      20.553  29.471  72.088  0.00  0.00     0.178 C 
ENDROOT
BRANCH   6   7
ATOM      7  C   LIG     1      19.312  29.278  71.222  0.00  0.00     0.197 C 
BRANCH   7   8
ATOM      8  O   LIG     1      18.592  30.496  71.189  0.00  0.00    -0.346 OA
BRANCH   8   9
ATOM      9  C   LIG     1      17.433  30.447  72.014  0.00  0.00     0.281 C 
ATOM     10  O   LIG     1      16.351  31.208  71.466  0.00  0.00    -0.346 OA
ATOM     11  C   LIG     1      16.592  32.613  71.439  0.00  0.00     0.197 C 
ATOM     12  C   LIG     1      16.815  33.146  72.848  0.00  0.00     0.171 C 
ATOM     13  C   LIG     1      17.984  32.423  73.520  0.00  0.00     0.178 C 
ATOM     14  C   LIG     1      17.784  30.907  73.437  0.00  0.00     0.201 C 
BRANCH  12  15
ATOM     15  O   LIG     1      17.067  34.544  72.815  0.00  0.00    -0.387 OA
ATOM     16  H   LIG     1      16.480  34.964  73.466  0.00  0.00     0.210 HD
ENDBRANCH  12  15
BRANCH  13  17
ATOM     17  O   LIG     1      19.199  32.781  72.864  0.00  0.00    -0.386 OA
ATOM     18  H   LIG     1      19.009  33.545  72.292  0.00  0.00     0.210 HD
ENDBRANCH  13  17
BRANCH  14  19
ATOM     19  O   LIG     1      16.716  30.524  74.300  0.00  0.00    -0.384 OA
ATOM     20  H   LIG     1      15.929  30.348  73.757  0.00  0.00     0.210 HD
ENDBRANCH  14  19
ENDBRANCH   8   9
ENDBRANCH   7   8
ENDBRANCH   6   7
BRANCH   5  21
ATOM     21  O   LIG     1      21.244  31.506  70.993  0.00  0.00    -0.386 OA
ATOM     22  H   LIG     1      20.307  31.589  71.241  0.00  0.00     0.210 HD
ENDBRANCH   5  21
BRANCH   2  23
ATOM     23  O   LIG     1      22.465  26.920  73.807  0.00  0.00    -0.345 OA
BRANCH  23  24
ATOM     24  C   LIG     1      22.803  26.124  72.683  0.00  0.00     0.190 C 
BRANCH  24  25
ATOM     25  C   LIG     1      23.257  24.782  73.162  0.00  0.00     0.001 C 
ATOM     26  C   LIG     1      22.578  24.052  74.061  0.00  0.00     0.006 C 
BRANCH  26  27
ATOM     27  C   LIG     1      22.977  22.722  74.550  0.00  0.00    -0.025 A 
ATOM     28  C   LIG     1      24.013  22.049  73.921  0.00  0.00     0.008 A 
ATOM     29  C   LIG     1      24.391  20.790  74.386  0.00  0.00     0.001 A 
ATOM     30  C   LIG     1      23.728  20.218  75.471  0.00  0.00     0.000 A 
ATOM     31  C   LIG     1      22.687  20.906  76.094  0.00  0.00     0.001 A 
ATOM     32  C   LIG     1      22.309  22.166  75.630  0.00  0.00     0.008 A 
ENDBRANCH  26  27
ENDBRANCH  24  25
ENDBRANCH  23  24
ENDBRANCH   2  23
BRANCH   4  33
ATOM     33  O   LIG     1      24.004  30.718  71.333  0.00  0.00    -0.386 OA
ATOM     34  H   LIG     1      24.613  29.971  71.206  0.00  0.00     0.210 HD
ENDBRANCH   4  33
BRANCH   3  35
ATOM     35  O   LIG     1      24.315  29.061  73.749  0.00  0.00    -0.384 OA
ATOM     36  H   LIG     1      24.657  28.181  73.977  0.00  0.00     0.210 HD
ENDBRANCH   3  35
TORSDOF 13
ENDMDL
MODEL 6
REMARK VINA RESULT:      -8.2     14.192     17.725
REMARK  13 active torsions:
REMARK  status: ('A' for Active; 'I' for Inactive)
REMARK    1  A    between atoms: C_2  and  O_12 
REMARK    2  A    between atoms: C_3  and  O_10 
REMARK    3  A    between atoms: C_4  and  O_8 
REMARK    4  A    between atoms: C_5  and  O_6 
REMARK    5  A    between atoms: C_22  and  C_23 
REMARK    6  A    between atoms: O_12  and  C_13 
REMARK    7  A    between atoms: C_13  and  C_14 
REMARK    8  A    between atoms: C_15  and  C_16 
REMARK    9  A    between atoms: C_23  and  O_24 
REMARK   10  A    between atoms: O_24  and  C_25 
REMARK   11  A    between atoms: C_26  and  O_34 
REMARK   12  A    between atoms: C_27  and  O_32 
REMARK   13  A    between atoms: C_28  and  O_30 
ROOT
ATOM      1  O   LIG     1       6.472  10.353  82.733  0.00  0.00    -0.341 OA
ATOM      2  C   LIG     1       5.736   9.141  82.584  0.00  0.00     0.282 C 
ATOM      3  C   LIG     1       5.332   8.937  81.123  0.00  0.00     0.201 C 
ATOM      4  C   LIG     1       6.543   9.012  80.195  0.00  0.00     0.179 C 
ATOM      5  C   LIG     1       7.395  10.245  80.495  0.00  0.00     0.177 C 
ATOM      6  C   LIG     1       7.693  10.348  81.993  0.00  0.00     0.178 C 
ENDROOT
BRANCH   6   7
ATOM      7  C   LIG     1       8.443  11.632  82.333  0.00  0.00     0.197 C 
BRANCH   7   8
ATOM      8  O   LIG     1       9.833  11.359  82.323  0.00  0.00    -0.346 OA
BRANCH   8   9
ATOM      9  C   LIG     1      10.556  12.328  81.572  0.00  0.00     0.281 C 
ATOM     10  O   LIG     1      11.020  11.802  80.323  0.00  0.00    -0.346 OA
ATOM     11  C   LIG     1      12.010  10.785  80.460  0.00  0.00     0.197 C 
ATOM     12  C   LIG     1      13.241  11.327  81.176  0.00  0.00     0.171 C 
ATOM     13  C   LIG     1      12.864  11.883  82.550  0.00  0.00     0.178 C 
ATOM     14  C   LIG     1      11.713  12.886  82.415  0.00  0.00     0.201 C 
BRANCH  12  15
ATOM     15  O   LIG     1      14.219  10.307  81.320  0.00  0.00    -0.387 OA
ATOM     16  H   LIG     1      15.093  10.719  81.206  0.00  0.00     0.210 HD
ENDBRANCH  12  15
BRANCH  13  17
ATOM     17  O   LIG     1      12.465  10.810  83.400  0.00  0.00    -0.386 OA
ATOM     18  H   LIG     1      12.821  10.991  84.287  0.00  0.00     0.210 HD
ENDBRANCH  13  17
BRANCH  14  19
ATOM     19  O   LIG     1      12.190  14.070  81.781  0.00  0.00    -0.384 OA
ATOM     20  H   LIG     1      11.444  14.684  81.674  0.00  0.00     0.210 HD
ENDBRANCH  14  19
ENDBRANCH   8   9
ENDBRANCH   7   8
ENDBRANCH   6   7
BRANCH   5  21
ATOM     21  O   LIG     1       8.622  10.157  79.775  0.00  0.00    -0.386 OA
ATOM     22  H   LIG     1       8.537   9.440  79.123  0.00  0.00     0.210 HD
ENDBRANCH   5  21
BRANCH   2  23
ATOM     23  O   LIG     1       4.545   9.201  83.366  0.00  0.00    -0.345 OA
BRANCH  23  24
ATOM     24  C   LIG     1       4.786   9.795  84.631  0.00  0.00     0.190 C 
BRANCH  24  25
ATOM     25  C   LIG     1       5.099   8.716  85.618  0.00  0.00     0.001 C 
ATOM     26  C   LIG     1       5.213   8.935  86.937  0.00  0.00     0.006 C 
BRANCH  26  27
ATOM     27  C   LIG     1       5.505   7.903  87.947  0.00  0.00    -0.025 A 
ATOM     28  C   LIG     1       6.793   7.785  88.445  0.00  0.00     0.008 A 
ATOM     29  C   LIG     1       7.069   6.808  89.401  0.00  0.00     0.001 A 
ATOM     30  C   LIG     1       6.054   5.961  89.846  0.00  0.00     0.000 A 
ATOM     31  C   LIG     1       4.763   6.091  89.336  0.00  0.00     0.001 A 
ATOM     32  C   LIG     1       4.487   7.069  88.380  0.00  0.00     0.008 A 
ENDBRANCH  26  27
ENDBRANCH  24  25
ENDBRANCH  23  24
ENDBRANCH   2  23
BRANCH   4  33
ATOM     33  O   LIG     1       6.100   9.101  78.840  0.00  0.00    -0.386 OA
ATOM     34  H   LIG     1       5.437   8.402  78.704  0.00  0.00     0.210 HD
ENDBRANCH   4  33
BRANCH   3  35
ATOM     35  O   LIG     1       4.722   7.652  81.004  0.00  0.00    -0.384 OA
ATOM     36  H   LIG     1       3.868   7.764  80.552  0.00  0.00     0.210 HD
ENDBRANCH   3  35
TORSDOF 13
ENDMDL
MODEL 7
REMARK VINA RESULT:      -8.0     14.663     19.010
REMARK  13 active torsions:
REMARK  status: ('A' for Active; 'I' for Inactive)
REMARK    1  A    between atoms: C_2  and  O_12 
REMARK    2  A    between atoms: C_3  and  O_10 
REMARK    3  A    between atoms: C_4  and  O_8 
REMARK    4  A    between atoms: C_5  and  O_6 
REMARK    5  A    between atoms: C_22  and  C_23 
REMARK    6  A    between atoms: O_12  and  C_13 
REMARK    7  A    between atoms: C_13  and  C_14 
REMARK    8  A    between atoms: C_15  and  C_16 
REMARK    9  A    between atoms: C_23  and  O_24 
REMARK   10  A    between atoms: O_24  and  C_25 
REMARK   11  A    between atoms: C_26  and  O_34 
REMARK   12  A    between atoms: C_27  and  O_32 
REMARK   13  A    between atoms: C_28  and  O_30 
ROOT
ATOM      1  O   LIG     1      21.341  28.375  75.535  0.00  0.00    -0.341 OA
ATOM      2  C   LIG     1      21.605  29.375  76.516  0.00  0.00     0.282 C 
ATOM      3  C   LIG     1      20.884  29.046  77.823  0.00  0.00     0.201 C 
ATOM      4  C   LIG     1      21.224  27.638  78.308  0.00  0.00     0.179 C 
ATOM      5  C   LIG     1      21.082  26.615  77.182  0.00  0.00     0.177 C 
ATOM      6  C   LIG     1      21.817  27.085  75.925  0.00  0.00     0.178 C 
ENDROOT
BRANCH   6   7
ATOM      7  C   LIG     1      21.593  26.137  74.750  0.00  0.00     0.197 C 
BRANCH   7   8
ATOM      8  O   LIG     1      22.231  24.906  75.037  0.00  0.00    -0.346 OA
BRANCH   8   9
ATOM      9  C   LIG     1      21.997  23.940  74.018  0.00  0.00     0.281 C 
ATOM     10  O   LIG     1      22.018  22.603  74.531  0.00  0.00    -0.346 OA
ATOM     11  C   LIG     1      23.299  22.186  74.997  0.00  0.00     0.197 C 
ATOM     12  C   LIG     1      24.320  22.223  73.866  0.00  0.00     0.171 C 
ATOM     13  C   LIG     1      24.409  23.627  73.266  0.00  0.00     0.178 C 
ATOM     14  C   LIG     1      23.012  24.125  72.880  0.00  0.00     0.201 C 
BRANCH  12  15
ATOM     15  O   LIG     1      25.597  21.818  74.338  0.00  0.00    -0.387 OA
ATOM     16  H   LIG     1      26.165  22.608  74.363  0.00  0.00     0.210 HD
ENDBRANCH  12  15
BRANCH  13  17
ATOM     17  O   LIG     1      24.984  24.514  74.224  0.00  0.00    -0.386 OA
ATOM     18  H   LIG     1      24.940  25.413  73.855  0.00  0.00     0.210 HD
ENDBRANCH  13  17
BRANCH  14  19
ATOM     19  O   LIG     1      22.545  23.392  71.750  0.00  0.00    -0.384 OA
ATOM     20  H   LIG     1      21.579  23.312  71.812  0.00  0.00     0.210 HD
ENDBRANCH  14  19
ENDBRANCH   8   9
ENDBRANCH   7   8
ENDBRANCH   6   7
BRANCH   5  21
ATOM     21  O   LIG     1      21.624  25.367  77.606  0.00  0.00    -0.386 OA
ATOM     22  H   LIG     1      21.124  25.073  78.388  0.00  0.00     0.210 HD
ENDBRANCH   5  21
BRANCH   2  23
ATOM     23  O   LIG     1      21.130  30.639  76.056  0.00  0.00    -0.345 OA
BRANCH  23  24
ATOM     24  C   LIG     1      21.719  30.992  74.815  0.00  0.00     0.190 C 
BRANCH  24  25
ATOM     25  C   LIG     1      20.700  31.699  73.981  0.00  0.00     0.001 C 
ATOM     26  C   LIG     1      19.388  31.422  74.028  0.00  0.00     0.006 C 
BRANCH  26  27
ATOM     27  C   LIG     1      18.347  32.102  73.238  0.00  0.00    -0.025 A 
ATOM     28  C   LIG     1      17.602  31.372  72.325  0.00  0.00     0.008 A 
ATOM     29  C   LIG     1      16.617  32.016  71.578  0.00  0.00     0.001 A 
ATOM     30  C   LIG     1      16.389  33.381  71.751  0.00  0.00     0.000 A 
ATOM     31  C   LIG     1      17.146  34.103  72.674  0.00  0.00     0.001 A 
ATOM     32  C   LIG     1      18.132  33.458  73.422  0.00  0.00     0.008 A 
ENDBRANCH  26  27
ENDBRANCH  24  25
ENDBRANCH  23  24
ENDBRANCH   2  23
BRANCH   4  33
ATOM     33  O   LIG     1      20.328  27.267  79.358  0.00  0.00    -0.386 OA
ATOM     34  H   LIG     1      20.388  26.302  79.463  0.00  0.00     0.210 HD
ENDBRANCH   4  33
BRANCH   3  35
ATOM     35  O   LIG     1      21.288  29.998  78.808  0.00  0.00    -0.384 OA
ATOM     36  H   LIG     1      21.465  30.841  78.358  0.00  0.00     0.210 HD
ENDBRANCH   3  35
TORSDOF 13
ENDMDL
MODEL 8
REMARK VINA RESULT:      -7.9     14.581     17.786
REMARK  13 active torsions:
REMARK  status: ('A' for Active; 'I' for Inactive)
REMARK    1  A    between atoms: C_2  and  O_12 
REMARK    2  A    between atoms: C_3  and  O_10 
REMARK    3  A    between atoms: C_4  and  O_8 
REMARK    4  A    between atoms: C_5  and  O_6 
REMARK    5  A    between atoms: C_22  and  C_23 
REMARK    6  A    between atoms: O_12  and  C_13 
REMARK    7  A    between atoms: C_13  and  C_14 
REMARK    8  A    between atoms: C_15  and  C_16 
REMARK    9  A    between atoms: C_23  and  O_24 
REMARK   10  A    between atoms: O_24  and  C_25 
REMARK   11  A    between atoms: C_26  and  O_34 
REMARK   12  A    between atoms: C_27  and  O_32 
REMARK   13  A    between atoms: C_28  and  O_30 
ROOT
ATOM      1  O   LIG     1      19.634  28.167  74.884  0.00  0.00    -0.341 OA
ATOM      2  C   LIG     1      18.993  26.904  75.050  0.00  0.00     0.282 C 
ATOM      3  C   LIG     1      19.204  26.379  76.470  0.00  0.00     0.201 C 
ATOM      4  C   LIG     1      18.767  27.406  77.514  0.00  0.00     0.179 C 
ATOM      5  C   LIG     1      19.348  28.786  77.210  0.00  0.00     0.177 C 
ATOM      6  C   LIG     1      19.100  29.171  75.749  0.00  0.00     0.178 C 
ENDROOT
BRANCH   6   7
ATOM      7  C   LIG     1      19.772  30.493  75.391  0.00  0.00     0.197 C 
BRANCH   7   8
ATOM      8  O   LIG     1      18.797  31.359  74.840  0.00  0.00    -0.346 OA
BRANCH   8   9
ATOM      9  C   LIG     1      19.226  31.919  73.604  0.00  0.00     0.281 C 
ATOM     10  O   LIG     1      18.745  33.256  73.424  0.00  0.00    -0.346 OA
ATOM     11  C   LIG     1      17.330  33.342  73.273  0.00  0.00     0.197 C 
ATOM     12  C   LIG     1      16.872  32.559  72.050  0.00  0.00     0.171 C 
ATOM     13  C   LIG     1      17.302  31.095  72.155  0.00  0.00     0.178 C 
ATOM     14  C   LIG     1      18.804  31.006  72.442  0.00  0.00     0.201 C 
BRANCH  12  15
ATOM     15  O   LIG     1      15.460  32.638  71.911  0.00  0.00    -0.387 OA
ATOM     16  H   LIG     1      15.096  31.758  72.105  0.00  0.00     0.210 HD
ENDBRANCH  12  15
BRANCH  13  17
ATOM     17  O   LIG     1      16.576  30.465  73.209  0.00  0.00    -0.386 OA
ATOM     18  H   LIG     1      17.217  30.212  73.895  0.00  0.00     0.210 HD
ENDBRANCH  13  17
BRANCH  14  19
ATOM     19  O   LIG     1      19.531  31.405  71.282  0.00  0.00    -0.384 OA
ATOM     20  H   LIG     1      19.287  32.320  71.065  0.00  0.00     0.210 HD
ENDBRANCH  14  19
ENDBRANCH   8   9
ENDBRANCH   7   8
ENDBRANCH   6   7
BRANCH   5  21
ATOM     21  O   LIG     1      18.739  29.753  78.062  0.00  0.00    -0.386 OA
ATOM     22  H   LIG     1      18.660  30.585  77.563  0.00  0.00     0.210 HD
ENDBRANCH   5  21
BRANCH   2  23
ATOM     23  O   LIG     1      19.552  25.957  74.142  0.00  0.00    -0.345 OA
BRANCH  23  24
ATOM     24  C   LIG     1      20.970  25.999  74.159  0.00  0.00     0.190 C 
BRANCH  24  25
ATOM     25  C   LIG     1      21.494  24.599  74.153  0.00  0.00     0.001 C 
ATOM     26  C   LIG     1      22.450  24.166  74.989  0.00  0.00     0.006 C 
BRANCH  26  27
ATOM     27  C   LIG     1      22.985  22.794  75.029  0.00  0.00    -0.025 A 
ATOM     28  C   LIG     1      22.455  21.883  75.928  0.00  0.00     0.008 A 
ATOM     29  C   LIG     1      22.962  20.585  75.965  0.00  0.00     0.001 A 
ATOM     30  C   LIG     1      23.994  20.214  75.103  0.00  0.00     0.000 A 
ATOM     31  C   LIG     1      24.519  21.141  74.204  0.00  0.00     0.001 A 
ATOM     32  C   LIG     1      24.011  22.440  74.166  0.00  0.00     0.008 A 
ENDBRANCH  26  27
ENDBRANCH  24  25
ENDBRANCH  23  24
ENDBRANCH   2  23
BRANCH   4  33
ATOM     33  O   LIG     1      19.235  27.004  78.802  0.00  0.00    -0.386 OA
ATOM     34  H   LIG     1      19.959  26.370  78.664  0.00  0.00     0.210 HD
ENDBRANCH   4  33
BRANCH   3  35
ATOM     35  O   LIG     1      18.433  25.188  76.625  0.00  0.00    -0.384 OA
ATOM     36  H   LIG     1      18.479  24.689  75.793  0.00  0.00     0.210 HD
ENDBRANCH   3  35
TORSDOF 13
ENDMDL
MODEL 9
REMARK VINA RESULT:      -7.8     17.009     20.316
REMARK  13 active torsions:
REMARK  status: ('A' for Active; 'I' for Inactive)
REMARK    1  A    between atoms: C_2  and  O_12 
REMARK    2  A    between atoms: C_3  and  O_10 
REMARK    3  A    between atoms: C_4  and  O_8 
REMARK    4  A    between atoms: C_5  and  O_6 
REMARK    5  A    between atoms: C_22  and  C_23 
REMARK    6  A    between atoms: O_12  and  C_13 
REMARK    7  A    between atoms: C_13  and  C_14 
REMARK    8  A    between atoms: C_15  and  C_16 
REMARK    9  A    between atoms: C_23  and  O_24 
REMARK   10  A    between atoms: O_24  and  C_25 
REMARK   11  A    between atoms: C_26  and  O_34 
REMARK   12  A    between atoms: C_27  and  O_32 
REMARK   13  A    between atoms: C_28  and  O_30 
ROOT
ATOM      1  O   LIG     1      17.851  40.230 100.852  0.00  0.00    -0.341 OA
ATOM      2  C   LIG     1      17.711  38.923 100.300  0.00  0.00     0.282 C 
ATOM      3  C   LIG     1      16.278  38.699  99.814  0.00  0.00     0.201 C 
ATOM      4  C   LIG     1      15.839  39.799  98.849  0.00  0.00     0.179 C 
ATOM      5  C   LIG     1      16.153  41.185  99.410  0.00  0.00     0.177 C 
ATOM      6  C   LIG     1      17.604  41.260  99.894  0.00  0.00     0.178 C 
ENDROOT
BRANCH   6   7
ATOM      7  C   LIG     1      17.908  42.596 100.564  0.00  0.00     0.197 C 
BRANCH   7   8
ATOM      8  O   LIG     1      18.437  43.478  99.591  0.00  0.00    -0.346 OA
BRANCH   8   9
ATOM      9  C   LIG     1      19.027  44.629 100.186  0.00  0.00     0.281 C 
ATOM     10  O   LIG     1      18.079  45.384 100.949  0.00  0.00    -0.346 OA
ATOM     11  C   LIG     1      17.060  45.992 100.160  0.00  0.00     0.197 C 
ATOM     12  C   LIG     1      17.666  46.964  99.155  0.00  0.00     0.171 C 
ATOM     13  C   LIG     1      18.674  46.248  98.254  0.00  0.00     0.178 C 
ATOM     14  C   LIG     1      19.698  45.491  99.106  0.00  0.00     0.201 C 
BRANCH  12  15
ATOM     15  O   LIG     1      16.647  47.558  98.363  0.00  0.00    -0.387 OA
ATOM     16  H   LIG     1      16.201  46.845  97.875  0.00  0.00     0.210 HD
ENDBRANCH  12  15
BRANCH  13  17
ATOM     17  O   LIG     1      17.983  45.330  97.410  0.00  0.00    -0.386 OA
ATOM     18  H   LIG     1      17.693  44.584  97.963  0.00  0.00     0.210 HD
ENDBRANCH  13  17
BRANCH  14  19
ATOM     19  O   LIG     1      20.555  46.426  99.757  0.00  0.00    -0.384 OA
ATOM     20  H   LIG     1      20.536  47.260  99.259  0.00  0.00     0.210 HD
ENDBRANCH  14  19
ENDBRANCH   8   9
ENDBRANCH   7   8
ENDBRANCH   6   7
BRANCH   5  21
ATOM     21  O   LIG     1      15.944  42.164  98.395  0.00  0.00    -0.386 OA
ATOM     22  H   LIG     1      15.391  41.763  97.701  0.00  0.00     0.210 HD
ENDBRANCH   5  21
BRANCH   2  23
ATOM     23  O   LIG     1      17.996  37.945 101.298  0.00  0.00    -0.345 OA
BRANCH  23  24
ATOM     24  C   LIG     1      19.391  37.712 101.410  0.00  0.00     0.190 C 
BRANCH  24  25
ATOM     25  C   LIG     1      19.614  36.268 101.726  0.00  0.00     0.001 C 
ATOM     26  C   LIG     1      19.049  35.647 102.773  0.00  0.00     0.006 C 
BRANCH  26  27
ATOM     27  C   LIG     1      19.229  34.225 103.114  0.00  0.00    -0.025 A 
ATOM     28  C   LIG     1      19.341  33.855 104.445  0.00  0.00     0.008 A 
ATOM     29  C   LIG     1      19.511  32.509 104.767  0.00  0.00     0.001 A 
ATOM     30  C   LIG     1      19.566  31.550 103.756  0.00  0.00     0.000 A 
ATOM     31  C   LIG     1      19.452  31.937 102.421  0.00  0.00     0.001 A 
ATOM     32  C   LIG     1      19.282  33.284 102.098  0.00  0.00     0.008 A 
ENDBRANCH  26  27
ENDBRANCH  24  25
ENDBRANCH  23  24
ENDBRANCH   2  23
BRANCH   4  33
ATOM     33  O   LIG     1      14.428  39.715  98.643  0.00  0.00    -0.386 OA
ATOM     34  H   LIG     1      14.188  40.398  97.994  0.00  0.00     0.210 HD
ENDBRANCH   4  33
BRANCH   3  35
ATOM     35  O   LIG     1      16.224  37.436  99.150  0.00  0.00    -0.384 OA
ATOM     36  H   LIG     1      15.456  37.441  98.555  0.00  0.00     0.210 HD
ENDBRANCH   3  35
TORSDOF 13
ENDMDL
