MODEL 1
REMARK VINA RESULT:      -9.5      0.000      0.000
REMARK  13 active torsions:
REMARK  status: ('A' for Active; 'I' for Inactive)
REMARK    1  A    between atoms: C_4  and  O_5 
REMARK    2  A    between atoms: C_17  and  O_18 
REMARK    3  A    between atoms: C_30  and  O_31 
REMARK    4  A    between atoms: C_43  and  C_44 
REMARK    5  A    between atoms: O_5  and  C_6 
REMARK    6  A    between atoms: C_6  and  C_8 
REMARK    7  A    between atoms: O_18  and  C_19 
REMARK    8  A    between atoms: C_19  and  C_21 
REMARK    9  A    between atoms: O_31  and  C_32 
REMARK   10  A    between atoms: C_32  and  C_34 
REMARK   11  A    between atoms: C_44  and  O_45 
REMARK   12  A    between atoms: O_45  and  C_46 
REMARK   13  A    between atoms: C_46  and  C_48 
ROOT
ATOM      1  O   LIG     1     172.837 171.358 173.059  0.00  0.00    -0.320 OA
ATOM      2  C   LIG     1     173.505 171.183 174.325  0.00  0.00     0.313 C 
ATOM      3  O   LIG     1     172.858 170.095 174.972  0.00  0.00    -0.186 OA
ATOM      4  C   LIG     1     175.022 170.896 174.131  0.00  0.00     0.271 C 
ATOM      5  C   LIG     1     175.651 172.032 173.270  0.00  0.00     0.256 C 
ATOM      6  C   LIG     1     174.851 172.252 171.951  0.00  0.00     0.243 C 
ATOM      7  C   LIG     1     173.333 172.456 172.262  0.00  0.00     0.205 C 
ENDROOT
BRANCH   7   8
ATOM      8  C   LIG     1     172.474 172.541 170.974  0.00  0.00     0.242 C 
BRANCH   8   9
ATOM      9  O   LIG     1     172.099 173.894 170.658  0.00  0.00    -0.443 OA
BRANCH   9  10
ATOM     10  C   LIG     1     172.237 174.508 169.436  0.00  0.00     0.341 C 
ATOM     11  O   LIG     1     171.651 174.010 168.442  0.00  0.00    -0.245 OA
BRANCH  10  12
ATOM     12  C   LIG     1     173.013 175.695 169.296  0.00  0.00     0.082 A 
ATOM     13  C   LIG     1     173.571 176.331 170.431  0.00  0.00     0.052 A 
ATOM     14  C   LIG     1     174.314 177.521 170.310  0.00  0.00     0.238 A 
ATOM     15  O   LIG     1     174.800 178.099 171.438  0.00  0.00    -0.283 OA
ATOM     16  C   LIG     1     174.537 178.090 169.038  0.00  0.00     0.273 A 
ATOM     17  O   LIG     1     175.269 179.231 168.931  0.00  0.00    -0.280 OA
ATOM     18  C   LIG     1     173.998 177.468 167.894  0.00  0.00     0.238 A 
ATOM     19  O   LIG     1     174.206 178.012 166.668  0.00  0.00    -0.283 OA
ATOM     20  C   LIG     1     173.240 176.286 168.027  0.00  0.00     0.052 A 
ENDBRANCH  10  12
ENDBRANCH   9  10
ENDBRANCH   8   9
ENDBRANCH   7   8
BRANCH   6  21
ATOM     21  O   LIG     1     175.368 173.414 171.277  0.00  0.00    -0.443 OA
BRANCH  21  22
ATOM     22  C   LIG     1     175.977 173.527 170.057  0.00  0.00     0.341 C 
ATOM     23  O   LIG     1     175.414 172.882 169.144  0.00  0.00    -0.245 OA
BRANCH  22  24
ATOM     24  C   LIG     1     177.179 174.230 169.775  0.00  0.00     0.082 A 
ATOM     25  C   LIG     1     177.194 175.638 169.657  0.00  0.00     0.052 A 
ATOM     26  C   LIG     1     178.391 176.344 169.426  0.00  0.00     0.238 A 
ATOM     27  C   LIG     1     179.604 175.639 169.330  0.00  0.00     0.273 A 
ATOM     28  O   LIG     1     178.384 177.698 169.301  0.00  0.00    -0.283 OA
ATOM     29  C   LIG     1     179.612 174.233 169.431  0.00  0.00     0.238 A 
ATOM     30  O   LIG     1     180.762 176.316 169.145  0.00  0.00    -0.280 OA
ATOM     31  O   LIG     1     180.779 173.551 169.315  0.00  0.00    -0.283 OA
ATOM     32  C   LIG     1     178.407 173.536 169.651  0.00  0.00     0.052 A 
ENDBRANCH  22  24
ENDBRANCH  21  22
ENDBRANCH   6  21
BRANCH   5  33
ATOM     33  O   LIG     1     177.011 171.735 172.906  0.00  0.00    -0.441 OA
BRANCH  33  34
ATOM     34  C   LIG     1     178.142 172.230 173.485  0.00  0.00     0.342 C 
ATOM     35  O   LIG     1     178.868 171.378 174.048  0.00  0.00    -0.245 OA
BRANCH  34  36
ATOM     36  C   LIG     1     178.569 173.580 173.364  0.00  0.00     0.082 A 
ATOM     37  C   LIG     1     179.958 173.831 172.997  0.00  0.00     0.052 A 
ATOM     38  C   LIG     1     180.366 175.165 172.788  0.00  0.00     0.238 A 
ATOM     39  O   LIG     1     181.651 175.407 172.428  0.00  0.00    -0.283 OA
ATOM     40  C   LIG     1     179.478 176.255 172.932  0.00  0.00     0.273 A 
ATOM     41  O   LIG     1     179.926 177.517 172.702  0.00  0.00    -0.280 OA
ATOM     42  C   LIG     1     178.109 175.976 173.334  0.00  0.00     0.238 A 
ATOM     43  C   LIG     1     177.582 174.623 173.573  0.00  0.00     0.052 A 
ATOM     44  O   LIG     1     177.335 177.133 173.470  0.00  0.00    -0.283 OA
ENDBRANCH  34  36
ENDBRANCH  33  34
ENDBRANCH   5  33
BRANCH   4  45
ATOM     45  O   LIG     1     175.722 170.818 175.387  0.00  0.00    -0.440 OA
BRANCH  45  46
ATOM     46  C   LIG     1     176.416 169.751 175.886  0.00  0.00     0.342 C 
ATOM     47  O   LIG     1     176.530 168.783 175.101  0.00  0.00    -0.245 OA
BRANCH  46  48
ATOM     48  C   LIG     1     176.890 169.660 177.227  0.00  0.00     0.082 A 
ATOM     49  C   LIG     1     176.231 170.326 178.286  0.00  0.00     0.052 A 
ATOM     50  C   LIG     1     176.678 170.213 179.618  0.00  0.00     0.238 A 
ATOM     51  O   LIG     1     176.016 170.861 180.609  0.00  0.00    -0.283 OA
ATOM     52  C   LIG     1     177.808 169.422 179.916  0.00  0.00     0.273 A 
ATOM     53  O   LIG     1     178.241 169.266 181.195  0.00  0.00    -0.280 OA
ATOM     54  C   LIG     1     178.493 168.769 178.873  0.00  0.00     0.238 A 
ATOM     55  O   LIG     1     179.600 168.023 179.123  0.00  0.00    -0.283 OA
ATOM     56  C   LIG     1     178.031 168.882 177.547  0.00  0.00     0.052 A 
ENDBRANCH  46  48
ENDBRANCH  45  46
ENDBRANCH   4  45
TORSDOF 13
ENDMDL
MODEL 2
REMARK VINA RESULT:      -9.2      7.425     12.702
REMARK  13 active torsions:
REMARK  status: ('A' for Active; 'I' for Inactive)
REMARK    1  A    between atoms: C_4  and  O_5 
REMARK    2  A    between atoms: C_17  and  O_18 
REMARK    3  A    between atoms: C_30  and  O_31 
REMARK    4  A    between atoms: C_43  and  C_44 
REMARK    5  A    between atoms: O_5  and  C_6 
REMARK    6  A    between atoms: C_6  and  C_8 
REMARK    7  A    between atoms: O_18  and  C_19 
REMARK    8  A    between atoms: C_19  and  C_21 
REMARK    9  A    between atoms: O_31  and  C_32 
REMARK   10  A    between atoms: C_32  and  C_34 
REMARK   11  A    between atoms: C_44  and  O_45 
REMARK   12  A    between atoms: O_45  and  C_46 
REMARK   13  A    between atoms: C_46  and  C_48 
ROOT
ATOM      1  O   LIG     1     179.844 183.015 168.895  0.00  0.00    -0.320 OA
ATOM      2  C   LIG     1     181.054 183.761 169.134  0.00  0.00     0.313 C 
ATOM      3  O   LIG     1     180.851 185.048 168.565  0.00  0.00    -0.186 OA
ATOM      4  C   LIG     1     181.364 183.866 170.655  0.00  0.00     0.271 C 
ATOM      5  C   LIG     1     181.409 182.433 171.267  0.00  0.00     0.256 C 
ATOM      6  C   LIG     1     180.124 181.627 170.914  0.00  0.00     0.243 C 
ATOM      7  C   LIG     1     179.872 181.651 169.372  0.00  0.00     0.205 C 
ENDROOT
BRANCH   7   8
ATOM      8  C   LIG     1     178.529 180.979 168.984  0.00  0.00     0.242 C 
BRANCH   8   9
ATOM      9  O   LIG     1     178.703 179.609 168.580  0.00  0.00    -0.443 OA
BRANCH   9  10
ATOM     10  C   LIG     1     177.812 178.584 168.791  0.00  0.00     0.341 C 
ATOM     11  O   LIG     1     176.590 178.858 168.889  0.00  0.00    -0.245 OA
BRANCH  10  12
ATOM     12  C   LIG     1     178.258 177.233 168.880  0.00  0.00     0.082 A 
ATOM     13  C   LIG     1     177.399 176.219 169.370  0.00  0.00     0.052 A 
ATOM     14  C   LIG     1     177.836 174.887 169.490  0.00  0.00     0.238 A 
ATOM     15  O   LIG     1     176.975 173.965 169.994  0.00  0.00    -0.283 OA
ATOM     16  C   LIG     1     179.144 174.532 169.097  0.00  0.00     0.273 A 
ATOM     17  O   LIG     1     179.551 173.239 169.205  0.00  0.00    -0.280 OA
ATOM     18  C   LIG     1     180.013 175.524 168.599  0.00  0.00     0.238 A 
ATOM     19  O   LIG     1     181.274 175.191 168.222  0.00  0.00    -0.283 OA
ATOM     20  C   LIG     1     179.571 176.859 168.498  0.00  0.00     0.052 A 
ENDBRANCH  10  12
ENDBRANCH   9  10
ENDBRANCH   8   9
ENDBRANCH   7   8
BRANCH   6  21
ATOM     21  O   LIG     1     180.288 180.266 171.356  0.00  0.00    -0.443 OA
BRANCH  21  22
ATOM     22  C   LIG     1     179.432 179.457 172.052  0.00  0.00     0.341 C 
ATOM     23  O   LIG     1     178.474 180.063 172.583  0.00  0.00    -0.245 OA
BRANCH  22  24
ATOM     24  C   LIG     1     179.577 178.060 172.266  0.00  0.00     0.082 A 
ATOM     25  C   LIG     1     178.507 177.278 172.754  0.00  0.00     0.052 A 
ATOM     26  C   LIG     1     178.631 175.885 172.922  0.00  0.00     0.238 A 
ATOM     27  C   LIG     1     179.837 175.250 172.578  0.00  0.00     0.273 A 
ATOM     28  O   LIG     1     177.594 175.150 173.406  0.00  0.00    -0.283 OA
ATOM     29  C   LIG     1     180.924 176.011 172.102  0.00  0.00     0.238 A 
ATOM     30  O   LIG     1     179.948 173.906 172.703  0.00  0.00    -0.280 OA
ATOM     31  O   LIG     1     182.096 175.402 171.794  0.00  0.00    -0.283 OA
ATOM     32  C   LIG     1     180.793 177.406 171.950  0.00  0.00     0.052 A 
ENDBRANCH  22  24
ENDBRANCH  21  22
ENDBRANCH   6  21
BRANCH   5  33
ATOM     33  O   LIG     1     181.517 182.469 172.701  0.00  0.00    -0.441 OA
BRANCH  33  34
ATOM     34  C   LIG     1     182.558 182.017 173.458  0.00  0.00     0.342 C 
ATOM     35  O   LIG     1     182.561 180.784 173.675  0.00  0.00    -0.245 OA
BRANCH  34  36
ATOM     36  C   LIG     1     183.649 182.829 173.872  0.00  0.00     0.082 A 
ATOM     37  C   LIG     1     183.359 184.011 174.675  0.00  0.00     0.052 A 
ATOM     38  C   LIG     1     184.442 184.771 175.164  0.00  0.00     0.238 A 
ATOM     39  O   LIG     1     184.183 185.861 175.929  0.00  0.00    -0.283 OA
ATOM     40  C   LIG     1     185.786 184.429 174.892  0.00  0.00     0.273 A 
ATOM     41  O   LIG     1     186.787 185.192 175.404  0.00  0.00    -0.280 OA
ATOM     42  C   LIG     1     186.042 183.267 174.058  0.00  0.00     0.238 A 
ATOM     43  C   LIG     1     184.986 182.405 173.501  0.00  0.00     0.052 A 
ATOM     44  O   LIG     1     187.405 183.046 173.835  0.00  0.00    -0.283 OA
ENDBRANCH  34  36
ENDBRANCH  33  34
ENDBRANCH   5  33
BRANCH   4  45
ATOM     45  O   LIG     1     182.622 184.521 170.906  0.00  0.00    -0.440 OA
BRANCH  45  46
ATOM     46  C   LIG     1     182.818 185.779 171.406  0.00  0.00     0.342 C 
ATOM     47  O   LIG     1     181.964 186.152 172.242  0.00  0.00    -0.245 OA
BRANCH  46  48
ATOM     48  C   LIG     1     183.834 186.670 170.955  0.00  0.00     0.082 A 
ATOM     49  C   LIG     1     183.541 187.726 170.062  0.00  0.00     0.052 A 
ATOM     50  C   LIG     1     184.537 188.630 169.638  0.00  0.00     0.238 A 
ATOM     51  O   LIG     1     184.217 189.635 168.785  0.00  0.00    -0.283 OA
ATOM     52  C   LIG     1     185.860 188.489 170.107  0.00  0.00     0.273 A 
ATOM     53  O   LIG     1     186.834 189.365 169.744  0.00  0.00    -0.280 OA
ATOM     54  C   LIG     1     186.179 187.429 170.979  0.00  0.00     0.238 A 
ATOM     55  O   LIG     1     187.449 187.250 171.427  0.00  0.00    -0.283 OA
ATOM     56  C   LIG     1     185.173 186.538 171.403  0.00  0.00     0.052 A 
ENDBRANCH  46  48
ENDBRANCH  45  46
ENDBRANCH   4  45
TORSDOF 13
ENDMDL
MODEL 3
REMARK VINA RESULT:      -9.0      8.545     13.702
REMARK  13 active torsions:
REMARK  status: ('A' for Active; 'I' for Inactive)
REMARK    1  A    between atoms: C_4  and  O_5 
REMARK    2  A    between atoms: C_17  and  O_18 
REMARK    3  A    between atoms: C_30  and  O_31 
REMARK    4  A    between atoms: C_43  and  C_44 
REMARK    5  A    between atoms: O_5  and  C_6 
REMARK    6  A    between atoms: C_6  and  C_8 
REMARK    7  A    between atoms: O_18  and  C_19 
REMARK    8  A    between atoms: C_19  and  C_21 
REMARK    9  A    between atoms: O_31  and  C_32 
REMARK   10  A    between atoms: C_32  and  C_34 
REMARK   11  A    between atoms: C_44  and  O_45 
REMARK   12  A    between atoms: O_45  and  C_46 
REMARK   13  A    between atoms: C_46  and  C_48 
ROOT
ATOM      1  O   LIG     1     182.533 181.479 174.090  0.00  0.00    -0.320 OA
ATOM      2  C   LIG     1     183.127 182.699 174.578  0.00  0.00     0.313 C 
ATOM      3  O   LIG     1     184.033 182.321 175.606  0.00  0.00    -0.186 OA
ATOM      4  C   LIG     1     183.862 183.465 173.440  0.00  0.00     0.271 C 
ATOM      5  C   LIG     1     182.870 183.706 172.263  0.00  0.00     0.256 C 
ATOM      6  C   LIG     1     182.182 182.380 171.822  0.00  0.00     0.243 C 
ATOM      7  C   LIG     1     181.543 181.661 173.054  0.00  0.00     0.205 C 
ENDROOT
BRANCH   7   8
ATOM      8  C   LIG     1     180.966 180.268 172.690  0.00  0.00     0.242 C 
BRANCH   8   9
ATOM      9  O   LIG     1     181.994 179.271 172.557  0.00  0.00    -0.443 OA
BRANCH   9  10
ATOM     10  C   LIG     1     182.351 178.626 171.398  0.00  0.00     0.341 C 
ATOM     11  O   LIG     1     183.187 179.173 170.636  0.00  0.00    -0.245 OA
BRANCH  10  12
ATOM     12  C   LIG     1     181.800 177.353 171.068  0.00  0.00     0.082 A 
ATOM     13  C   LIG     1     182.638 176.223 170.906  0.00  0.00     0.052 A 
ATOM     14  C   LIG     1     182.109 174.967 170.552  0.00  0.00     0.238 A 
ATOM     15  O   LIG     1     182.967 173.927 170.383  0.00  0.00    -0.283 OA
ATOM     16  C   LIG     1     180.718 174.808 170.376  0.00  0.00     0.273 A 
ATOM     17  O   LIG     1     180.217 173.587 170.048  0.00  0.00    -0.280 OA
ATOM     18  C   LIG     1     179.865 175.918 170.541  0.00  0.00     0.238 A 
ATOM     19  O   LIG     1     178.527 175.773 170.370  0.00  0.00    -0.283 OA
ATOM     20  C   LIG     1     180.406 177.176 170.879  0.00  0.00     0.052 A 
ENDBRANCH  10  12
ENDBRANCH   9  10
ENDBRANCH   8   9
ENDBRANCH   7   8
BRANCH   6  21
ATOM     21  O   LIG     1     181.160 182.681 170.853  0.00  0.00    -0.443 OA
BRANCH  21  22
ATOM     22  C   LIG     1     180.923 182.132 169.622  0.00  0.00     0.341 C 
ATOM     23  O   LIG     1     181.616 182.623 168.702  0.00  0.00    -0.245 OA
BRANCH  22  24
ATOM     24  C   LIG     1     179.951 181.144 169.312  0.00  0.00     0.082 A 
ATOM     25  C   LIG     1     178.621 181.254 169.776  0.00  0.00     0.052 A 
ATOM     26  C   LIG     1     177.642 180.302 169.432  0.00  0.00     0.238 A 
ATOM     27  C   LIG     1     177.984 179.228 168.591  0.00  0.00     0.273 A 
ATOM     28  O   LIG     1     176.370 180.417 169.898  0.00  0.00    -0.283 OA
ATOM     29  C   LIG     1     179.308 179.090 168.127  0.00  0.00     0.238 A 
ATOM     30  O   LIG     1     177.036 178.331 168.227  0.00  0.00    -0.280 OA
ATOM     31  O   LIG     1     179.644 178.040 167.336  0.00  0.00    -0.283 OA
ATOM     32  C   LIG     1     180.282 180.042 168.488  0.00  0.00     0.052 A 
ENDBRANCH  22  24
ENDBRANCH  21  22
ENDBRANCH   6  21
BRANCH   5  33
ATOM     33  O   LIG     1     183.534 184.253 171.110  0.00  0.00    -0.441 OA
BRANCH  33  34
ATOM     34  C   LIG     1     183.477 185.541 170.663  0.00  0.00     0.342 C 
ATOM     35  O   LIG     1     182.509 186.210 171.093  0.00  0.00    -0.245 OA
BRANCH  34  36
ATOM     36  C   LIG     1     184.491 186.154 169.878  0.00  0.00     0.082 A 
ATOM     37  C   LIG     1     185.085 187.391 170.369  0.00  0.00     0.052 A 
ATOM     38  C   LIG     1     186.153 187.958 169.642  0.00  0.00     0.238 A 
ATOM     39  O   LIG     1     186.724 189.099 170.102  0.00  0.00    -0.283 OA
ATOM     40  C   LIG     1     186.653 187.370 168.458  0.00  0.00     0.273 A 
ATOM     41  O   LIG     1     187.694 187.954 167.810  0.00  0.00    -0.280 OA
ATOM     42  C   LIG     1     186.016 186.156 167.974  0.00  0.00     0.238 A 
ATOM     43  C   LIG     1     184.900 185.484 168.657  0.00  0.00     0.052 A 
ATOM     44  O   LIG     1     186.577 185.685 166.782  0.00  0.00    -0.283 OA
ENDBRANCH  34  36
ENDBRANCH  33  34
ENDBRANCH   5  33
BRANCH   4  45
ATOM     45  O   LIG     1     184.374 184.735 173.888  0.00  0.00    -0.440 OA
BRANCH  45  46
ATOM     46  C   LIG     1     185.677 185.061 174.143  0.00  0.00     0.342 C 
ATOM     47  O   LIG     1     185.956 185.209 175.355  0.00  0.00    -0.245 OA
BRANCH  46  48
ATOM     48  C   LIG     1     186.648 185.332 173.136  0.00  0.00     0.082 A 
ATOM     49  C   LIG     1     187.499 186.458 173.219  0.00  0.00     0.052 A 
ATOM     50  C   LIG     1     188.482 186.712 172.241  0.00  0.00     0.238 A 
ATOM     51  O   LIG     1     189.285 187.799 172.358  0.00  0.00    -0.283 OA
ATOM     52  C   LIG     1     188.629 185.832 171.148  0.00  0.00     0.273 A 
ATOM     53  O   LIG     1     189.591 186.033 170.207  0.00  0.00    -0.280 OA
ATOM     54  C   LIG     1     187.776 184.718 171.032  0.00  0.00     0.238 A 
ATOM     55  O   LIG     1     187.874 183.868 169.977  0.00  0.00    -0.283 OA
ATOM     56  C   LIG     1     186.804 184.469 172.021  0.00  0.00     0.052 A 
ENDBRANCH  46  48
ENDBRANCH  45  46
ENDBRANCH   4  45
TORSDOF 13
ENDMDL
MODEL 4
REMARK VINA RESULT:      -9.0      0.798      8.721
REMARK  13 active torsions:
REMARK  status: ('A' for Active; 'I' for Inactive)
REMARK    1  A    between atoms: C_4  and  O_5 
REMARK    2  A    between atoms: C_17  and  O_18 
REMARK    3  A    between atoms: C_30  and  O_31 
REMARK    4  A    between atoms: C_43  and  C_44 
REMARK    5  A    between atoms: O_5  and  C_6 
REMARK    6  A    between atoms: C_6  and  C_8 
REMARK    7  A    between atoms: O_18  and  C_19 
REMARK    8  A    between atoms: C_19  and  C_21 
REMARK    9  A    between atoms: O_31  and  C_32 
REMARK   10  A    between atoms: C_32  and  C_34 
REMARK   11  A    between atoms: C_44  and  O_45 
REMARK   12  A    between atoms: O_45  and  C_46 
REMARK   13  A    between atoms: C_46  and  C_48 
ROOT
ATOM      1  O   LIG     1     173.009 171.578 173.054  0.00  0.00    -0.320 OA
ATOM      2  C   LIG     1     172.586 171.840 171.701  0.00  0.00     0.313 C 
ATOM      3  O   LIG     1     171.211 172.197 171.773  0.00  0.00    -0.186 OA
ATOM      4  C   LIG     1     173.425 172.982 171.057  0.00  0.00     0.271 C 
ATOM      5  C   LIG     1     174.938 172.622 171.155  0.00  0.00     0.256 C 
ATOM      6  C   LIG     1     175.338 172.258 172.616  0.00  0.00     0.243 C 
ATOM      7  C   LIG     1     174.385 171.157 173.185  0.00  0.00     0.205 C 
ENDROOT
BRANCH   7   8
ATOM      8  C   LIG     1     174.657 170.860 174.683  0.00  0.00     0.242 C 
BRANCH   8   9
ATOM      9  O   LIG     1     174.953 169.472 174.917  0.00  0.00    -0.443 OA
BRANCH   9  10
ATOM     10  C   LIG     1     176.132 168.968 175.411  0.00  0.00     0.341 C 
ATOM     11  O   LIG     1     176.917 168.387 174.621  0.00  0.00    -0.245 OA
BRANCH  10  12
ATOM     12  C   LIG     1     176.472 169.114 176.787  0.00  0.00     0.082 A 
ATOM     13  C   LIG     1     177.740 168.705 177.266  0.00  0.00     0.052 A 
ATOM     14  C   LIG     1     178.077 168.816 178.628  0.00  0.00     0.238 A 
ATOM     15  O   LIG     1     179.299 168.381 179.032  0.00  0.00    -0.283 OA
ATOM     16  C   LIG     1     177.155 169.366 179.544  0.00  0.00     0.273 A 
ATOM     17  O   LIG     1     177.496 169.482 180.855  0.00  0.00    -0.280 OA
ATOM     18  C   LIG     1     175.889 169.787 179.087  0.00  0.00     0.238 A 
ATOM     19  O   LIG     1     174.995 170.313 179.962  0.00  0.00    -0.283 OA
ATOM     20  C   LIG     1     175.554 169.656 177.723  0.00  0.00     0.052 A 
ENDBRANCH  10  12
ENDBRANCH   9  10
ENDBRANCH   8   9
ENDBRANCH   7   8
BRANCH   6  21
ATOM     21  O   LIG     1     176.695 171.774 172.624  0.00  0.00    -0.443 OA
BRANCH  21  22
ATOM     22  C   LIG     1     177.789 172.228 173.308  0.00  0.00     0.341 C 
ATOM     23  O   LIG     1     178.269 171.398 174.113  0.00  0.00    -0.245 OA
BRANCH  22  24
ATOM     24  C   LIG     1     178.353 173.530 173.230  0.00  0.00     0.082 A 
ATOM     25  C   LIG     1     179.695 173.724 172.836  0.00  0.00     0.052 A 
ATOM     26  C   LIG     1     180.245 175.015 172.711  0.00  0.00     0.238 A 
ATOM     27  C   LIG     1     179.439 176.140 172.963  0.00  0.00     0.273 A 
ATOM     28  O   LIG     1     181.544 175.183 172.344  0.00  0.00    -0.283 OA
ATOM     29  C   LIG     1     178.100 175.970 173.370  0.00  0.00     0.238 A 
ATOM     30  O   LIG     1     179.953 177.383 172.807  0.00  0.00    -0.280 OA
ATOM     31  O   LIG     1     177.329 177.054 173.636  0.00  0.00    -0.283 OA
ATOM     32  C   LIG     1     177.564 174.673 173.504  0.00  0.00     0.052 A 
ENDBRANCH  22  24
ENDBRANCH  21  22
ENDBRANCH   6  21
BRANCH   5  33
ATOM     33  O   LIG     1     175.774 173.715 170.737  0.00  0.00    -0.441 OA
BRANCH  33  34
ATOM     34  C   LIG     1     176.622 173.738 169.669  0.00  0.00     0.342 C 
ATOM     35  O   LIG     1     176.351 172.922 168.758  0.00  0.00    -0.245 OA
BRANCH  34  36
ATOM     36  C   LIG     1     177.663 174.692 169.502  0.00  0.00     0.082 A 
ATOM     37  C   LIG     1     177.346 176.098 169.719  0.00  0.00     0.052 A 
ATOM     38  C   LIG     1     178.392 177.041 169.644  0.00  0.00     0.238 A 
ATOM     39  O   LIG     1     178.111 178.349 169.863  0.00  0.00    -0.283 OA
ATOM     40  C   LIG     1     179.725 176.665 169.356  0.00  0.00     0.273 A 
ATOM     41  O   LIG     1     180.692 177.618 169.312  0.00  0.00    -0.280 OA
ATOM     42  C   LIG     1     180.003 175.260 169.109  0.00  0.00     0.238 A 
ATOM     43  C   LIG     1     178.986 174.198 169.167  0.00  0.00     0.052 A 
ATOM     44  O   LIG     1     181.346 175.016 168.808  0.00  0.00    -0.283 OA
ENDBRANCH  34  36
ENDBRANCH  33  34
ENDBRANCH   5  33
BRANCH   4  45
ATOM     45  O   LIG     1     173.083 173.189 169.673  0.00  0.00    -0.440 OA
BRANCH  45  46
ATOM     46  C   LIG     1     172.507 174.297 169.117  0.00  0.00     0.342 C 
ATOM     47  O   LIG     1     171.403 174.096 168.563  0.00  0.00    -0.245 OA
BRANCH  46  48
ATOM     48  C   LIG     1     173.131 175.576 169.051  0.00  0.00     0.082 A 
ATOM     49  C   LIG     1     173.595 176.229 170.217  0.00  0.00     0.052 A 
ATOM     50  C   LIG     1     174.242 177.480 170.153  0.00  0.00     0.238 A 
ATOM     51  O   LIG     1     174.679 178.072 171.292  0.00  0.00    -0.283 OA
ATOM     52  C   LIG     1     174.437 178.107 168.904  0.00  0.00     0.273 A 
ATOM     53  O   LIG     1     175.088 179.297 168.808  0.00  0.00    -0.280 OA
ATOM     54  C   LIG     1     173.962 177.486 167.732  0.00  0.00     0.238 A 
ATOM     55  O   LIG     1     174.110 178.077 166.519  0.00  0.00    -0.283 OA
ATOM     56  C   LIG     1     173.326 176.231 167.809  0.00  0.00     0.052 A 
ENDBRANCH  46  48
ENDBRANCH  45  46
ENDBRANCH   4  45
TORSDOF 13
ENDMDL
MODEL 5
REMARK VINA RESULT:      -8.9      3.014      9.801
REMARK  13 active torsions:
REMARK  status: ('A' for Active; 'I' for Inactive)
REMARK    1  A    between atoms: C_4  and  O_5 
REMARK    2  A    between atoms: C_17  and  O_18 
REMARK    3  A    between atoms: C_30  and  O_31 
REMARK    4  A    between atoms: C_43  and  C_44 
REMARK    5  A    between atoms: O_5  and  C_6 
REMARK    6  A    between atoms: C_6  and  C_8 
REMARK    7  A    between atoms: O_18  and  C_19 
REMARK    8  A    between atoms: C_19  and  C_21 
REMARK    9  A    between atoms: O_31  and  C_32 
REMARK   10  A    between atoms: C_32  and  C_34 
REMARK   11  A    between atoms: C_44  and  O_45 
REMARK   12  A    between atoms: O_45  and  C_46 
REMARK   13  A    between atoms: C_46  and  C_48 
ROOT
ATOM      1  O   LIG     1     179.436 176.388 168.308  0.00  0.00    -0.320 OA
ATOM      2  C   LIG     1     178.821 177.674 168.525  0.00  0.00     0.313 C 
ATOM      3  O   LIG     1     179.387 178.556 167.564  0.00  0.00    -0.186 OA
ATOM      4  C   LIG     1     177.275 177.596 168.368  0.00  0.00     0.271 C 
ATOM      5  C   LIG     1     176.720 176.495 169.321  0.00  0.00     0.256 C 
ATOM      6  C   LIG     1     177.469 175.144 169.121  0.00  0.00     0.243 C 
ATOM      7  C   LIG     1     179.014 175.355 169.226  0.00  0.00     0.205 C 
ENDROOT
BRANCH   7   8
ATOM      8  C   LIG     1     179.809 174.065 168.896  0.00  0.00     0.242 C 
BRANCH   8   9
ATOM      9  O   LIG     1     180.543 173.573 170.031  0.00  0.00    -0.443 OA
BRANCH   9  10
ATOM     10  C   LIG     1     181.848 173.872 170.343  0.00  0.00     0.341 C 
ATOM     11  O   LIG     1     182.728 172.996 170.154  0.00  0.00    -0.245 OA
BRANCH  10  12
ATOM     12  C   LIG     1     182.204 175.154 170.853  0.00  0.00     0.082 A 
ATOM     13  C   LIG     1     181.479 175.732 171.924  0.00  0.00     0.052 A 
ATOM     14  C   LIG     1     181.802 177.011 172.418  0.00  0.00     0.238 A 
ATOM     15  O   LIG     1     181.053 177.524 173.427  0.00  0.00    -0.283 OA
ATOM     16  C   LIG     1     182.881 177.732 171.864  0.00  0.00     0.273 A 
ATOM     17  O   LIG     1     183.193 178.960 172.358  0.00  0.00    -0.280 OA
ATOM     18  C   LIG     1     183.621 177.171 170.803  0.00  0.00     0.238 A 
ATOM     19  O   LIG     1     184.658 177.861 170.263  0.00  0.00    -0.283 OA
ATOM     20  C   LIG     1     183.280 175.898 170.304  0.00  0.00     0.052 A 
ENDBRANCH  10  12
ENDBRANCH   9  10
ENDBRANCH   8   9
ENDBRANCH   7   8
BRANCH   6  21
ATOM     21  O   LIG     1     177.037 174.214 170.133  0.00  0.00    -0.443 OA
BRANCH  21  22
ATOM     22  C   LIG     1     176.450 172.984 170.007  0.00  0.00     0.341 C 
ATOM     23  O   LIG     1     176.183 172.665 168.826  0.00  0.00    -0.245 OA
BRANCH  22  24
ATOM     24  C   LIG     1     176.077 172.115 171.066  0.00  0.00     0.082 A 
ATOM     25  C   LIG     1     176.576 172.299 172.375  0.00  0.00     0.052 A 
ATOM     26  C   LIG     1     176.172 171.469 173.439  0.00  0.00     0.238 A 
ATOM     27  C   LIG     1     175.235 170.446 173.204  0.00  0.00     0.273 A 
ATOM     28  O   LIG     1     176.674 171.651 174.689  0.00  0.00    -0.283 OA
ATOM     29  C   LIG     1     174.733 170.236 171.904  0.00  0.00     0.238 A 
ATOM     30  O   LIG     1     174.816 169.671 174.232  0.00  0.00    -0.280 OA
ATOM     31  O   LIG     1     173.848 169.235 171.672  0.00  0.00    -0.283 OA
ATOM     32  C   LIG     1     175.154 171.065 170.844  0.00  0.00     0.052 A 
ENDBRANCH  22  24
ENDBRANCH  21  22
ENDBRANCH   6  21
BRANCH   5  33
ATOM     33  O   LIG     1     175.320 176.252 169.097  0.00  0.00    -0.441 OA
BRANCH  33  34
ATOM     34  C   LIG     1     174.370 175.993 170.041  0.00  0.00     0.342 C 
ATOM     35  O   LIG     1     174.536 176.576 171.136  0.00  0.00    -0.245 OA
BRANCH  34  36
ATOM     36  C   LIG     1     173.194 175.233 169.794  0.00  0.00     0.082 A 
ATOM     37  C   LIG     1     172.959 174.047 170.608  0.00  0.00     0.052 A 
ATOM     38  C   LIG     1     171.752 173.339 170.430  0.00  0.00     0.238 A 
ATOM     39  O   LIG     1     171.516 172.246 171.197  0.00  0.00    -0.283 OA
ATOM     40  C   LIG     1     170.777 173.739 169.487  0.00  0.00     0.273 A 
ATOM     41  O   LIG     1     169.627 173.025 169.372  0.00  0.00    -0.280 OA
ATOM     42  C   LIG     1     171.056 174.904 168.665  0.00  0.00     0.238 A 
ATOM     43  C   LIG     1     172.281 175.713 168.773  0.00  0.00     0.052 A 
ATOM     44  O   LIG     1     170.034 175.183 167.752  0.00  0.00    -0.283 OA
ENDBRANCH  34  36
ENDBRANCH  33  34
ENDBRANCH   5  33
BRANCH   4  45
ATOM     45  O   LIG     1     176.636 178.849 168.680  0.00  0.00    -0.440 OA
BRANCH  45  46
ATOM     46  C   LIG     1     176.693 179.539 169.859  0.00  0.00     0.342 C 
ATOM     47  O   LIG     1     175.673 179.439 170.578  0.00  0.00    -0.245 OA
BRANCH  46  48
ATOM     48  C   LIG     1     177.760 180.407 170.228  0.00  0.00     0.082 A 
ATOM     49  C   LIG     1     178.032 181.590 169.502  0.00  0.00     0.052 A 
ATOM     50  C   LIG     1     179.067 182.467 169.883  0.00  0.00     0.238 A 
ATOM     51  O   LIG     1     179.293 183.596 169.165  0.00  0.00    -0.283 OA
ATOM     52  C   LIG     1     179.859 182.172 171.013  0.00  0.00     0.273 A 
ATOM     53  O   LIG     1     180.841 183.016 171.425  0.00  0.00    -0.280 OA
ATOM     54  C   LIG     1     179.621 180.987 171.737  0.00  0.00     0.238 A 
ATOM     55  O   LIG     1     180.385 180.660 172.812  0.00  0.00    -0.283 OA
ATOM     56  C   LIG     1     178.578 180.123 171.352  0.00  0.00     0.052 A 
ENDBRANCH  46  48
ENDBRANCH  45  46
ENDBRANCH   4  45
TORSDOF 13
ENDMDL
MODEL 6
REMARK VINA RESULT:      -8.9      7.416     12.671
REMARK  13 active torsions:
REMARK  status: ('A' for Active; 'I' for Inactive)
REMARK    1  A    between atoms: C_4  and  O_5 
REMARK    2  A    between atoms: C_17  and  O_18 
REMARK    3  A    between atoms: C_30  and  O_31 
REMARK    4  A    between atoms: C_43  and  C_44 
REMARK    5  A    between atoms: O_5  and  C_6 
REMARK    6  A    between atoms: C_6  and  C_8 
REMARK    7  A    between atoms: O_18  and  C_19 
REMARK    8  A    between atoms: C_19  and  C_21 
REMARK    9  A    between atoms: O_31  and  C_32 
REMARK   10  A    between atoms: C_32  and  C_34 
REMARK   11  A    between atoms: C_44  and  O_45 
REMARK   12  A    between atoms: O_45  and  C_46 
REMARK   13  A    between atoms: C_46  and  C_48 
ROOT
ATOM      1  O   LIG     1     180.740 184.719 169.971  0.00  0.00    -0.320 OA
ATOM      2  C   LIG     1     179.717 183.883 169.396  0.00  0.00     0.313 C 
ATOM      3  O   LIG     1     179.585 184.287 168.039  0.00  0.00    -0.186 OA
ATOM      4  C   LIG     1     180.094 182.377 169.495  0.00  0.00     0.271 C 
ATOM      5  C   LIG     1     180.396 182.023 170.983  0.00  0.00     0.256 C 
ATOM      6  C   LIG     1     181.440 183.003 171.597  0.00  0.00     0.243 C 
ATOM      7  C   LIG     1     180.995 184.484 171.374  0.00  0.00     0.205 C 
ENDROOT
BRANCH   7   8
ATOM      8  C   LIG     1     182.068 185.499 171.845  0.00  0.00     0.242 C 
BRANCH   8   9
ATOM      9  O   LIG     1     183.307 185.353 171.128  0.00  0.00    -0.443 OA
BRANCH   9  10
ATOM     10  C   LIG     1     184.537 185.812 171.535  0.00  0.00     0.341 C 
ATOM     11  O   LIG     1     184.587 186.671 172.450  0.00  0.00    -0.245 OA
BRANCH  10  12
ATOM     12  C   LIG     1     185.736 185.315 170.946  0.00  0.00     0.082 A 
ATOM     13  C   LIG     1     186.980 185.943 171.198  0.00  0.00     0.052 A 
ATOM     14  C   LIG     1     188.167 185.480 170.599  0.00  0.00     0.238 A 
ATOM     15  O   LIG     1     189.324 186.141 170.858  0.00  0.00    -0.283 OA
ATOM     16  C   LIG     1     188.138 184.355 169.748  0.00  0.00     0.273 A 
ATOM     17  O   LIG     1     189.293 183.907 169.187  0.00  0.00    -0.280 OA
ATOM     18  C   LIG     1     186.912 183.709 169.490  0.00  0.00     0.238 A 
ATOM     19  O   LIG     1     186.877 182.628 168.670  0.00  0.00    -0.283 OA
ATOM     20  C   LIG     1     185.726 184.191 170.081  0.00  0.00     0.052 A 
ENDBRANCH  10  12
ENDBRANCH   9  10
ENDBRANCH   8   9
ENDBRANCH   7   8
BRANCH   6  21
ATOM     21  O   LIG     1     181.557 182.739 173.008  0.00  0.00    -0.443 OA
BRANCH  21  22
ATOM     22  C   LIG     1     182.620 182.271 173.732  0.00  0.00     0.341 C 
ATOM     23  O   LIG     1     182.504 181.078 174.095  0.00  0.00    -0.245 OA
BRANCH  22  24
ATOM     24  C   LIG     1     183.757 183.017 174.141  0.00  0.00     0.082 A 
ATOM     25  C   LIG     1     185.052 182.691 173.679  0.00  0.00     0.052 A 
ATOM     26  C   LIG     1     186.176 183.457 174.044  0.00  0.00     0.238 A 
ATOM     27  C   LIG     1     186.010 184.584 174.869  0.00  0.00     0.273 A 
ATOM     28  O   LIG     1     187.417 183.121 173.601  0.00  0.00    -0.283 OA
ATOM     29  C   LIG     1     184.729 184.921 175.352  0.00  0.00     0.238 A 
ATOM     30  O   LIG     1     187.083 185.345 175.191  0.00  0.00    -0.280 OA
ATOM     31  O   LIG     1     184.572 185.994 176.167  0.00  0.00    -0.283 OA
ATOM     32  C   LIG     1     183.613 184.140 174.991  0.00  0.00     0.052 A 
ENDBRANCH  22  24
ENDBRANCH  21  22
ENDBRANCH   6  21
BRANCH   5  33
ATOM     33  O   LIG     1     180.921 180.690 171.118  0.00  0.00    -0.441 OA
BRANCH  33  34
ATOM     34  C   LIG     1     180.336 179.638 171.758  0.00  0.00     0.342 C 
ATOM     35  O   LIG     1     179.264 179.904 172.349  0.00  0.00    -0.245 OA
BRANCH  34  36
ATOM     36  C   LIG     1     180.801 178.297 171.670  0.00  0.00     0.082 A 
ATOM     37  C   LIG     1     179.971 177.243 172.238  0.00  0.00     0.052 A 
ATOM     38  C   LIG     1     180.383 175.904 172.076  0.00  0.00     0.238 A 
ATOM     39  O   LIG     1     179.606 174.915 172.585  0.00  0.00    -0.283 OA
ATOM     40  C   LIG     1     181.572 175.559 171.393  0.00  0.00     0.273 A 
ATOM     41  O   LIG     1     181.908 174.250 171.257  0.00  0.00    -0.280 OA
ATOM     42  C   LIG     1     182.398 176.634 170.870  0.00  0.00     0.238 A 
ATOM     43  C   LIG     1     182.058 178.062 170.982  0.00  0.00     0.052 A 
ATOM     44  O   LIG     1     183.558 176.172 170.242  0.00  0.00    -0.283 OA
ENDBRANCH  34  36
ENDBRANCH  33  34
ENDBRANCH   5  33
BRANCH   4  45
ATOM     45  O   LIG     1     179.038 181.522 169.017  0.00  0.00    -0.440 OA
BRANCH  45  46
ATOM     46  C   LIG     1     179.152 180.460 168.163  0.00  0.00     0.342 C 
ATOM     47  O   LIG     1     179.459 180.760 166.987  0.00  0.00    -0.245 OA
BRANCH  46  48
ATOM     48  C   LIG     1     178.845 179.114 168.513  0.00  0.00     0.082 A 
ATOM     49  C   LIG     1     177.693 178.796 169.270  0.00  0.00     0.052 A 
ATOM     50  C   LIG     1     177.369 177.463 169.592  0.00  0.00     0.238 A 
ATOM     51  O   LIG     1     176.252 177.196 170.315  0.00  0.00    -0.283 OA
ATOM     52  C   LIG     1     178.202 176.411 169.156  0.00  0.00     0.273 A 
ATOM     53  O   LIG     1     177.896 175.114 169.422  0.00  0.00    -0.280 OA
ATOM     54  C   LIG     1     179.367 176.707 168.421  0.00  0.00     0.238 A 
ATOM     55  O   LIG     1     180.205 175.719 168.012  0.00  0.00    -0.283 OA
ATOM     56  C   LIG     1     179.676 178.043 168.098  0.00  0.00     0.052 A 
ENDBRANCH  46  48
ENDBRANCH  45  46
ENDBRANCH   4  45
TORSDOF 13
ENDMDL
MODEL 7
REMARK VINA RESULT:      -8.9      7.272     12.576
REMARK  13 active torsions:
REMARK  status: ('A' for Active; 'I' for Inactive)
REMARK    1  A    between atoms: C_4  and  O_5 
REMARK    2  A    between atoms: C_17  and  O_18 
REMARK    3  A    between atoms: C_30  and  O_31 
REMARK    4  A    between atoms: C_43  and  C_44 
REMARK    5  A    between atoms: O_5  and  C_6 
REMARK    6  A    between atoms: C_6  and  C_8 
REMARK    7  A    between atoms: O_18  and  C_19 
REMARK    8  A    between atoms: C_19  and  C_21 
REMARK    9  A    between atoms: O_31  and  C_32 
REMARK   10  A    between atoms: C_32  and  C_34 
REMARK   11  A    between atoms: C_44  and  O_45 
REMARK   12  A    between atoms: O_45  and  C_46 
REMARK   13  A    between atoms: C_46  and  C_48 
ROOT
ATOM      1  O   LIG     1     178.890 182.632 170.045  0.00  0.00    -0.320 OA
ATOM      2  C   LIG     1     179.954 183.588 169.876  0.00  0.00     0.313 C 
ATOM      3  O   LIG     1     179.340 184.870 169.845  0.00  0.00    -0.186 OA
ATOM      4  C   LIG     1     180.990 183.494 171.034  0.00  0.00     0.271 C 
ATOM      5  C   LIG     1     181.509 182.029 171.137  0.00  0.00     0.256 C 
ATOM      6  C   LIG     1     180.328 181.016 171.229  0.00  0.00     0.243 C 
ATOM      7  C   LIG     1     179.316 181.251 170.061  0.00  0.00     0.205 C 
ENDROOT
BRANCH   7   8
ATOM      8  C   LIG     1     178.054 180.359 170.187  0.00  0.00     0.242 C 
BRANCH   8   9
ATOM      9  O   LIG     1     177.663 179.787 168.927  0.00  0.00    -0.443 OA
BRANCH   9  10
ATOM     10  C   LIG     1     178.381 178.870 168.197  0.00  0.00     0.341 C 
ATOM     11  O   LIG     1     178.930 179.244 167.131  0.00  0.00    -0.245 OA
BRANCH  10  12
ATOM     12  C   LIG     1     178.518 177.524 168.645  0.00  0.00     0.082 A 
ATOM     13  C   LIG     1     179.785 176.891 168.654  0.00  0.00     0.052 A 
ATOM     14  C   LIG     1     179.929 175.552 169.065  0.00  0.00     0.238 A 
ATOM     15  O   LIG     1     181.166 174.991 169.025  0.00  0.00    -0.283 OA
ATOM     16  C   LIG     1     178.805 174.820 169.503  0.00  0.00     0.273 A 
ATOM     17  O   LIG     1     178.958 173.533 169.912  0.00  0.00    -0.280 OA
ATOM     18  C   LIG     1     177.536 175.434 169.511  0.00  0.00     0.238 A 
ATOM     19  O   LIG     1     176.449 174.736 169.928  0.00  0.00    -0.283 OA
ATOM     20  C   LIG     1     177.398 176.770 169.080  0.00  0.00     0.052 A 
ENDBRANCH  10  12
ENDBRANCH   9  10
ENDBRANCH   8   9
ENDBRANCH   7   8
BRANCH   6  21
ATOM     21  O   LIG     1     180.853 179.677 171.153  0.00  0.00    -0.443 OA
BRANCH  21  22
ATOM     22  C   LIG     1     180.970 178.720 172.124  0.00  0.00     0.341 C 
ATOM     23  O   LIG     1     182.048 178.767 172.759  0.00  0.00    -0.245 OA
BRANCH  22  24
ATOM     24  C   LIG     1     180.038 177.687 172.407  0.00  0.00     0.082 A 
ATOM     25  C   LIG     1     180.466 176.368 172.681  0.00  0.00     0.052 A 
ATOM     26  C   LIG     1     179.549 175.351 173.009  0.00  0.00     0.238 A 
ATOM     27  C   LIG     1     178.177 175.652 173.088  0.00  0.00     0.273 A 
ATOM     28  O   LIG     1     179.978 174.084 173.256  0.00  0.00    -0.283 OA
ATOM     29  C   LIG     1     177.725 176.957 172.806  0.00  0.00     0.238 A 
ATOM     30  O   LIG     1     177.297 174.686 173.440  0.00  0.00    -0.280 OA
ATOM     31  O   LIG     1     176.400 177.242 172.858  0.00  0.00    -0.283 OA
ATOM     32  C   LIG     1     178.651 177.964 172.467  0.00  0.00     0.052 A 
ENDBRANCH  22  24
ENDBRANCH  21  22
ENDBRANCH   6  21
BRANCH   5  33
ATOM     33  O   LIG     1     182.335 181.836 172.299  0.00  0.00    -0.441 OA
BRANCH  33  34
ATOM     34  C   LIG     1     182.397 182.633 173.404  0.00  0.00     0.342 C 
ATOM     35  O   LIG     1     181.343 182.689 174.078  0.00  0.00    -0.245 OA
BRANCH  34  36
ATOM     36  C   LIG     1     183.587 183.261 173.864  0.00  0.00     0.082 A 
ATOM     37  C   LIG     1     183.459 184.391 174.775  0.00  0.00     0.052 A 
ATOM     38  C   LIG     1     184.635 184.961 175.306  0.00  0.00     0.238 A 
ATOM     39  O   LIG     1     184.525 186.001 176.170  0.00  0.00    -0.283 OA
ATOM     40  C   LIG     1     185.922 184.479 174.974  0.00  0.00     0.273 A 
ATOM     41  O   LIG     1     187.017 185.060 175.529  0.00  0.00    -0.280 OA
ATOM     42  C   LIG     1     186.018 183.375 174.033  0.00  0.00     0.238 A 
ATOM     43  C   LIG     1     184.856 182.707 173.427  0.00  0.00     0.052 A 
ATOM     44  O   LIG     1     187.339 183.005 173.762  0.00  0.00    -0.283 OA
ENDBRANCH  34  36
ENDBRANCH  33  34
ENDBRANCH   5  33
BRANCH   4  45
ATOM     45  O   LIG     1     182.112 184.374 170.828  0.00  0.00    -0.440 OA
BRANCH  45  46
ATOM     46  C   LIG     1     182.336 185.586 171.420  0.00  0.00     0.342 C 
ATOM     47  O   LIG     1     181.414 185.987 172.166  0.00  0.00    -0.245 OA
BRANCH  46  48
ATOM     48  C   LIG     1     183.464 186.413 171.149  0.00  0.00     0.082 A 
ATOM     49  C   LIG     1     184.688 186.233 171.834  0.00  0.00     0.052 A 
ATOM     50  C   LIG     1     185.816 187.029 171.546  0.00  0.00     0.238 A 
ATOM     51  O   LIG     1     186.976 186.823 172.219  0.00  0.00    -0.283 OA
ATOM     52  C   LIG     1     185.736 188.031 170.557  0.00  0.00     0.273 A 
ATOM     53  O   LIG     1     186.816 188.790 170.234  0.00  0.00    -0.280 OA
ATOM     54  C   LIG     1     184.519 188.243 169.879  0.00  0.00     0.238 A 
ATOM     55  O   LIG     1     184.402 189.219 168.941  0.00  0.00    -0.283 OA
ATOM     56  C   LIG     1     183.402 187.435 170.169  0.00  0.00     0.052 A 
ENDBRANCH  46  48
ENDBRANCH  45  46
ENDBRANCH   4  45
TORSDOF 13
ENDMDL
MODEL 8
REMARK VINA RESULT:      -8.9      1.734      3.100
REMARK  13 active torsions:
REMARK  status: ('A' for Active; 'I' for Inactive)
REMARK    1  A    between atoms: C_4  and  O_5 
REMARK    2  A    between atoms: C_17  and  O_18 
REMARK    3  A    between atoms: C_30  and  O_31 
REMARK    4  A    between atoms: C_43  and  C_44 
REMARK    5  A    between atoms: O_5  and  C_6 
REMARK    6  A    between atoms: C_6  and  C_8 
REMARK    7  A    between atoms: O_18  and  C_19 
REMARK    8  A    between atoms: C_19  and  C_21 
REMARK    9  A    between atoms: O_31  and  C_32 
REMARK   10  A    between atoms: C_32  and  C_34 
REMARK   11  A    between atoms: C_44  and  O_45 
REMARK   12  A    between atoms: O_45  and  C_46 
REMARK   13  A    between atoms: C_46  and  C_48 
ROOT
ATOM      1  O   LIG     1     175.320 171.212 170.753  0.00  0.00    -0.320 OA
ATOM      2  C   LIG     1     175.304 171.017 172.181  0.00  0.00     0.313 C 
ATOM      3  O   LIG     1     175.020 169.640 172.393  0.00  0.00    -0.186 OA
ATOM      4  C   LIG     1     176.665 171.411 172.823  0.00  0.00     0.271 C 
ATOM      5  C   LIG     1     177.014 172.875 172.420  0.00  0.00     0.256 C 
ATOM      6  C   LIG     1     176.936 173.071 170.876  0.00  0.00     0.243 C 
ATOM      7  C   LIG     1     175.557 172.575 170.333  0.00  0.00     0.205 C 
ENDROOT
BRANCH   7   8
ATOM      8  C   LIG     1     175.482 172.621 168.785  0.00  0.00     0.242 C 
BRANCH   8   9
ATOM      9  O   LIG     1     174.265 173.227 168.316  0.00  0.00    -0.443 OA
BRANCH   9  10
ATOM     10  C   LIG     1     173.487 174.122 169.011  0.00  0.00     0.341 C 
ATOM     11  O   LIG     1     172.453 173.702 169.587  0.00  0.00    -0.245 OA
BRANCH  10  12
ATOM     12  C   LIG     1     173.851 175.498 169.096  0.00  0.00     0.082 A 
ATOM     13  C   LIG     1     173.899 176.305 167.933  0.00  0.00     0.052 A 
ATOM     14  C   LIG     1     174.285 177.657 167.999  0.00  0.00     0.238 A 
ATOM     15  O   LIG     1     174.339 178.373 166.845  0.00  0.00    -0.283 OA
ATOM     16  C   LIG     1     174.610 178.242 169.241  0.00  0.00     0.273 A 
ATOM     17  O   LIG     1     174.968 179.552 169.294  0.00  0.00    -0.280 OA
ATOM     18  C   LIG     1     174.560 177.458 170.412  0.00  0.00     0.238 A 
ATOM     19  O   LIG     1     174.875 178.013 171.610  0.00  0.00    -0.283 OA
ATOM     20  C   LIG     1     174.189 176.100 170.334  0.00  0.00     0.052 A 
ENDBRANCH  10  12
ENDBRANCH   9  10
ENDBRANCH   8   9
ENDBRANCH   7   8
BRANCH   6  21
ATOM     21  O   LIG     1     177.101 174.469 170.572  0.00  0.00    -0.443 OA
BRANCH  21  22
ATOM     22  C   LIG     1     177.988 175.090 169.736  0.00  0.00     0.341 C 
ATOM     23  O   LIG     1     178.733 174.305 169.108  0.00  0.00    -0.245 OA
BRANCH  22  24
ATOM     24  C   LIG     1     178.167 176.491 169.585  0.00  0.00     0.082 A 
ATOM     25  C   LIG     1     178.409 177.067 168.318  0.00  0.00     0.052 A 
ATOM     26  C   LIG     1     178.540 178.460 168.156  0.00  0.00     0.238 A 
ATOM     27  C   LIG     1     178.405 179.304 169.273  0.00  0.00     0.273 A 
ATOM     28  O   LIG     1     178.787 178.995 166.930  0.00  0.00    -0.283 OA
ATOM     29  C   LIG     1     178.177 178.751 170.549  0.00  0.00     0.238 A 
ATOM     30  O   LIG     1     178.492 180.646 169.115  0.00  0.00    -0.280 OA
ATOM     31  O   LIG     1     178.071 179.563 171.631  0.00  0.00    -0.283 OA
ATOM     32  C   LIG     1     178.061 177.355 170.702  0.00  0.00     0.052 A 
ENDBRANCH  22  24
ENDBRANCH  21  22
ENDBRANCH   6  21
BRANCH   5  33
ATOM     33  O   LIG     1     178.343 173.240 172.835  0.00  0.00    -0.441 OA
BRANCH  33  34
ATOM     34  C   LIG     1     178.752 174.453 173.307  0.00  0.00     0.342 C 
ATOM     35  O   LIG     1     178.085 174.902 174.267  0.00  0.00    -0.245 OA
BRANCH  34  36
ATOM     36  C   LIG     1     179.922 175.124 172.859  0.00  0.00     0.082 A 
ATOM     37  C   LIG     1     180.835 174.401 171.982  0.00  0.00     0.052 A 
ATOM     38  C   LIG     1     181.952 175.089 171.462  0.00  0.00     0.238 A 
ATOM     39  O   LIG     1     182.796 174.431 170.629  0.00  0.00    -0.283 OA
ATOM     40  C   LIG     1     182.214 176.443 171.773  0.00  0.00     0.273 A 
ATOM     41  O   LIG     1     183.297 177.055 171.230  0.00  0.00    -0.280 OA
ATOM     42  C   LIG     1     181.306 177.126 172.680  0.00  0.00     0.238 A 
ATOM     43  C   LIG     1     180.112 176.502 173.273  0.00  0.00     0.052 A 
ATOM     44  O   LIG     1     181.683 178.448 172.934  0.00  0.00    -0.283 OA
ENDBRANCH  34  36
ENDBRANCH  33  34
ENDBRANCH   5  33
BRANCH   4  45
ATOM     45  O   LIG     1     176.633 171.317 174.260  0.00  0.00    -0.440 OA
BRANCH  45  46
ATOM     46  C   LIG     1     177.165 170.327 175.039  0.00  0.00     0.342 C 
ATOM     47  O   LIG     1     178.009 169.601 174.465  0.00  0.00    -0.245 OA
BRANCH  46  48
ATOM     48  C   LIG     1     176.740 170.038 176.368  0.00  0.00     0.082 A 
ATOM     49  C   LIG     1     177.561 169.311 177.260  0.00  0.00     0.052 A 
ATOM     50  C   LIG     1     177.158 169.050 178.585  0.00  0.00     0.238 A 
ATOM     51  O   LIG     1     177.976 168.355 179.415  0.00  0.00    -0.283 OA
ATOM     52  C   LIG     1     175.909 169.518 179.045  0.00  0.00     0.273 A 
ATOM     53  O   LIG     1     175.508 169.312 180.328  0.00  0.00    -0.280 OA
ATOM     54  C   LIG     1     175.065 170.224 178.166  0.00  0.00     0.238 A 
ATOM     55  O   LIG     1     173.844 170.664 178.570  0.00  0.00    -0.283 OA
ATOM     56  C   LIG     1     175.483 170.487 176.846  0.00  0.00     0.052 A 
ENDBRANCH  46  48
ENDBRANCH  45  46
ENDBRANCH   4  45
TORSDOF 13
ENDMDL
MODEL 9
REMARK VINA RESULT:      -8.8      8.084     12.740
REMARK  13 active torsions:
REMARK  status: ('A' for Active; 'I' for Inactive)
REMARK    1  A    between atoms: C_4  and  O_5 
REMARK    2  A    between atoms: C_17  and  O_18 
REMARK    3  A    between atoms: C_30  and  O_31 
REMARK    4  A    between atoms: C_43  and  C_44 
REMARK    5  A    between atoms: O_5  and  C_6 
REMARK    6  A    between atoms: C_6  and  C_8 
REMARK    7  A    between atoms: O_18  and  C_19 
REMARK    8  A    between atoms: C_19  and  C_21 
REMARK    9  A    between atoms: O_31  and  C_32 
REMARK   10  A    between atoms: C_32  and  C_34 
REMARK   11  A    between atoms: C_44  and  O_45 
REMARK   12  A    between atoms: O_45  and  C_46 
REMARK   13  A    between atoms: C_46  and  C_48 
ROOT
ATOM      1  O   LIG     1     180.457 184.434 170.008  0.00  0.00    -0.320 OA
ATOM      2  C   LIG     1     179.499 183.497 169.477  0.00  0.00     0.313 C 
ATOM      3  O   LIG     1     179.292 183.862 168.118  0.00  0.00    -0.186 OA
ATOM      4  C   LIG     1     180.016 182.033 169.588  0.00  0.00     0.271 C 
ATOM      5  C   LIG     1     180.391 181.736 171.072  0.00  0.00     0.256 C 
ATOM      6  C   LIG     1     181.358 182.818 171.639  0.00  0.00     0.243 C 
ATOM      7  C   LIG     1     180.772 184.248 171.406  0.00  0.00     0.205 C 
ENDROOT
BRANCH   7   8
ATOM      8  C   LIG     1     181.760 185.366 171.829  0.00  0.00     0.242 C 
BRANCH   8   9
ATOM      9  O   LIG     1     182.535 185.855 170.720  0.00  0.00    -0.443 OA
BRANCH   9  10
ATOM     10  C   LIG     1     182.481 187.123 170.192  0.00  0.00     0.341 C 
ATOM     11  O   LIG     1     181.357 187.619 169.931  0.00  0.00    -0.245 OA
BRANCH  10  12
ATOM     12  C   LIG     1     183.671 187.871 169.959  0.00  0.00     0.082 A 
ATOM     13  C   LIG     1     183.654 189.017 169.128  0.00  0.00     0.052 A 
ATOM     14  C   LIG     1     184.828 189.748 168.866  0.00  0.00     0.238 A 
ATOM     15  O   LIG     1     184.753 190.822 168.038  0.00  0.00    -0.283 OA
ATOM     16  C   LIG     1     186.050 189.359 169.455  0.00  0.00     0.273 A 
ATOM     17  O   LIG     1     187.176 190.080 169.206  0.00  0.00    -0.280 OA
ATOM     18  C   LIG     1     186.089 188.226 170.293  0.00  0.00     0.238 A 
ATOM     19  O   LIG     1     187.261 187.844 170.860  0.00  0.00    -0.283 OA
ATOM     20  C   LIG     1     184.910 187.490 170.535  0.00  0.00     0.052 A 
ENDBRANCH  10  12
ENDBRANCH   9  10
ENDBRANCH   8   9
ENDBRANCH   7   8
BRANCH   6  21
ATOM     21  O   LIG     1     181.538 182.592 173.050  0.00  0.00    -0.443 OA
BRANCH  21  22
ATOM     22  C   LIG     1     182.683 182.388 173.770  0.00  0.00     0.341 C 
ATOM     23  O   LIG     1     182.723 181.287 174.365  0.00  0.00    -0.245 OA
BRANCH  22  24
ATOM     24  C   LIG     1     183.748 183.312 173.942  0.00  0.00     0.082 A 
ATOM     25  C   LIG     1     184.827 183.364 173.031  0.00  0.00     0.052 A 
ATOM     26  C   LIG     1     185.862 184.310 173.170  0.00  0.00     0.238 A 
ATOM     27  C   LIG     1     185.814 185.240 174.224  0.00  0.00     0.273 A 
ATOM     28  O   LIG     1     186.900 184.336 172.292  0.00  0.00    -0.283 OA
ATOM     29  C   LIG     1     184.754 185.200 175.152  0.00  0.00     0.238 A 
ATOM     30  O   LIG     1     186.786 186.176 174.338  0.00  0.00    -0.280 OA
ATOM     31  O   LIG     1     184.720 186.081 176.182  0.00  0.00    -0.283 OA
ATOM     32  C   LIG     1     183.731 184.240 175.010  0.00  0.00     0.052 A 
ENDBRANCH  22  24
ENDBRANCH  21  22
ENDBRANCH   6  21
BRANCH   5  33
ATOM     33  O   LIG     1     181.040 180.459 171.212  0.00  0.00    -0.441 OA
BRANCH  33  34
ATOM     34  C   LIG     1     180.540 179.346 171.820  0.00  0.00     0.342 C 
ATOM     35  O   LIG     1     179.444 179.507 172.405  0.00  0.00    -0.245 OA
BRANCH  34  36
ATOM     36  C   LIG     1     181.118 178.052 171.707  0.00  0.00     0.082 A 
ATOM     37  C   LIG     1     180.422 176.932 172.327  0.00  0.00     0.052 A 
ATOM     38  C   LIG     1     180.942 175.634 172.143  0.00  0.00     0.238 A 
ATOM     39  O   LIG     1     180.291 174.583 172.700  0.00  0.00    -0.283 OA
ATOM     40  C   LIG     1     182.114 175.392 171.389  0.00  0.00     0.273 A 
ATOM     41  O   LIG     1     182.558 174.118 171.235  0.00  0.00    -0.280 OA
ATOM     42  C   LIG     1     182.806 176.534 170.814  0.00  0.00     0.238 A 
ATOM     43  C   LIG     1     182.346 177.925 170.943  0.00  0.00     0.052 A 
ATOM     44  O   LIG     1     183.964 176.173 170.117  0.00  0.00    -0.283 OA
ENDBRANCH  34  36
ENDBRANCH  33  34
ENDBRANCH   5  33
BRANCH   4  45
ATOM     45  O   LIG     1     179.030 181.077 169.155  0.00  0.00    -0.440 OA
BRANCH  45  46
ATOM     46  C   LIG     1     179.203 180.050 168.269  0.00  0.00     0.342 C 
ATOM     47  O   LIG     1     179.469 180.403 167.098  0.00  0.00    -0.245 OA
BRANCH  46  48
ATOM     48  C   LIG     1     178.996 178.676 168.585  0.00  0.00     0.082 A 
ATOM     49  C   LIG     1     179.866 177.671 168.104  0.00  0.00     0.052 A 
ATOM     50  C   LIG     1     179.683 176.315 168.440  0.00  0.00     0.238 A 
ATOM     51  O   LIG     1     180.543 175.380 167.965  0.00  0.00    -0.283 OA
ATOM     52  C   LIG     1     178.610 175.936 169.275  0.00  0.00     0.273 A 
ATOM     53  O   LIG     1     178.428 174.641 169.645  0.00  0.00    -0.280 OA
ATOM     54  C   LIG     1     177.716 176.918 169.746  0.00  0.00     0.238 A 
ATOM     55  O   LIG     1     176.658 176.582 170.529  0.00  0.00    -0.283 OA
ATOM     56  C   LIG     1     177.916 178.272 169.411  0.00  0.00     0.052 A 
ENDBRANCH  46  48
ENDBRANCH  45  46
ENDBRANCH   4  45
TORSDOF 13
ENDMDL
MODEL 10
REMARK VINA RESULT:      -8.8      8.997     14.043
REMARK  13 active torsions:
REMARK  status: ('A' for Active; 'I' for Inactive)
REMARK    1  A    between atoms: C_4  and  O_5 
REMARK    2  A    between atoms: C_17  and  O_18 
REMARK    3  A    between atoms: C_30  and  O_31 
REMARK    4  A    between atoms: C_43  and  C_44 
REMARK    5  A    between atoms: O_5  and  C_6 
REMARK    6  A    between atoms: C_6  and  C_8 
REMARK    7  A    between atoms: O_18  and  C_19 
REMARK    8  A    between atoms: C_19  and  C_21 
REMARK    9  A    between atoms: O_31  and  C_32 
REMARK   10  A    between atoms: C_32  and  C_34 
REMARK   11  A    between atoms: C_44  and  O_45 
REMARK   12  A    between atoms: O_45  and  C_46 
REMARK   13  A    between atoms: C_46  and  C_48 
ROOT
ATOM      1  O   LIG     1     182.352 181.520 174.008  0.00  0.00    -0.320 OA
ATOM      2  C   LIG     1     182.972 182.702 174.552  0.00  0.00     0.313 C 
ATOM      3  O   LIG     1     183.841 182.259 175.586  0.00  0.00    -0.186 OA
ATOM      4  C   LIG     1     183.758 183.483 173.459  0.00  0.00     0.271 C 
ATOM      5  C   LIG     1     182.802 183.798 172.270  0.00  0.00     0.256 C 
ATOM      6  C   LIG     1     182.082 182.511 171.766  0.00  0.00     0.243 C 
ATOM      7  C   LIG     1     181.392 181.771 172.958  0.00  0.00     0.205 C 
ENDROOT
BRANCH   7   8
ATOM      8  C   LIG     1     180.779 180.412 172.531  0.00  0.00     0.242 C 
BRANCH   8   9
ATOM      9  O   LIG     1     181.557 179.295 172.996  0.00  0.00    -0.443 OA
BRANCH   9  10
ATOM     10  C   LIG     1     182.300 178.444 172.213  0.00  0.00     0.341 C 
ATOM     11  O   LIG     1     183.323 178.892 171.639  0.00  0.00    -0.245 OA
BRANCH  10  12
ATOM     12  C   LIG     1     181.931 177.075 172.066  0.00  0.00     0.082 A 
ATOM     13  C   LIG     1     180.965 176.491 172.921  0.00  0.00     0.052 A 
ATOM     14  C   LIG     1     180.613 175.132 172.806  0.00  0.00     0.238 A 
ATOM     15  O   LIG     1     179.701 174.623 173.673  0.00  0.00    -0.283 OA
ATOM     16  C   LIG     1     181.207 174.329 171.809  0.00  0.00     0.273 A 
ATOM     17  O   LIG     1     180.850 173.022 171.697  0.00  0.00    -0.280 OA
ATOM     18  C   LIG     1     182.165 174.893 170.942  0.00  0.00     0.238 A 
ATOM     19  O   LIG     1     182.743 174.125 169.983  0.00  0.00    -0.283 OA
ATOM     20  C   LIG     1     182.523 176.250 171.076  0.00  0.00     0.052 A 
ENDBRANCH  10  12
ENDBRANCH   9  10
ENDBRANCH   8   9
ENDBRANCH   7   8
BRANCH   6  21
ATOM     21  O   LIG     1     181.093 182.880 170.786  0.00  0.00    -0.443 OA
BRANCH  21  22
ATOM     22  C   LIG     1     180.931 182.456 169.496  0.00  0.00     0.341 C 
ATOM     23  O   LIG     1     179.832 181.898 169.276  0.00  0.00    -0.245 OA
BRANCH  22  24
ATOM     24  C   LIG     1     181.894 182.535 168.454  0.00  0.00     0.082 A 
ATOM     25  C   LIG     1     181.903 183.616 167.545  0.00  0.00     0.052 A 
ATOM     26  C   LIG     1     182.885 183.724 166.541  0.00  0.00     0.238 A 
ATOM     27  C   LIG     1     183.893 182.748 166.449  0.00  0.00     0.273 A 
ATOM     28  O   LIG     1     182.869 184.765 165.666  0.00  0.00    -0.283 OA
ATOM     29  C   LIG     1     183.896 181.653 167.336  0.00  0.00     0.238 A 
ATOM     30  O   LIG     1     184.860 182.868 165.508  0.00  0.00    -0.280 OA
ATOM     31  O   LIG     1     184.854 180.698 167.232  0.00  0.00    -0.283 OA
ATOM     32  C   LIG     1     182.902 181.549 168.329  0.00  0.00     0.052 A 
ENDBRANCH  22  24
ENDBRANCH  21  22
ENDBRANCH   6  21
BRANCH   5  33
ATOM     33  O   LIG     1     183.510 184.363 171.152  0.00  0.00    -0.441 OA
BRANCH  33  34
ATOM     34  C   LIG     1     183.500 185.665 170.747  0.00  0.00     0.342 C 
ATOM     35  O   LIG     1     182.588 186.368 171.240  0.00  0.00    -0.245 OA
BRANCH  34  36
ATOM     36  C   LIG     1     184.510 186.252 169.936  0.00  0.00     0.082 A 
ATOM     37  C   LIG     1     185.099 187.510 170.377  0.00  0.00     0.052 A 
ATOM     38  C   LIG     1     186.163 188.051 169.625  0.00  0.00     0.238 A 
ATOM     39  O   LIG     1     186.731 189.212 170.038  0.00  0.00    -0.283 OA
ATOM     40  C   LIG     1     186.662 187.420 168.463  0.00  0.00     0.273 A 
ATOM     41  O   LIG     1     187.699 187.982 167.790  0.00  0.00    -0.280 OA
ATOM     42  C   LIG     1     186.030 186.185 168.028  0.00  0.00     0.238 A 
ATOM     43  C   LIG     1     184.918 185.536 168.741  0.00  0.00     0.052 A 
ATOM     44  O   LIG     1     186.589 185.671 166.855  0.00  0.00    -0.283 OA
ENDBRANCH  34  36
ENDBRANCH  33  34
ENDBRANCH   5  33
BRANCH   4  45
ATOM     45  O   LIG     1     184.300 184.719 173.963  0.00  0.00    -0.440 OA
BRANCH  45  46
ATOM     46  C   LIG     1     185.613 185.008 174.215  0.00  0.00     0.342 C 
ATOM     47  O   LIG     1     185.906 185.110 175.428  0.00  0.00    -0.245 OA
BRANCH  46  48
ATOM     48  C   LIG     1     186.578 185.291 173.207  0.00  0.00     0.082 A 
ATOM     49  C   LIG     1     187.411 186.432 173.285  0.00  0.00     0.052 A 
ATOM     50  C   LIG     1     188.389 186.698 172.306  0.00  0.00     0.238 A 
ATOM     51  O   LIG     1     189.174 187.799 172.419  0.00  0.00    -0.283 OA
ATOM     52  C   LIG     1     188.552 185.816 171.217  0.00  0.00     0.273 A 
ATOM     53  O   LIG     1     189.510 186.029 170.276  0.00  0.00    -0.280 OA
ATOM     54  C   LIG     1     187.718 184.687 171.106  0.00  0.00     0.238 A 
ATOM     55  O   LIG     1     187.831 183.834 170.055  0.00  0.00    -0.283 OA
ATOM     56  C   LIG     1     186.750 184.426 172.096  0.00  0.00     0.052 A 
ENDBRANCH  46  48
ENDBRANCH  45  46
ENDBRANCH   4  45
TORSDOF 13
ENDMDL
