REMARK VINA RESULT:      -8.9      7.416     12.671
REMARK  13 active torsions:
REMARK  status: ('A' for Active; 'I' for Inactive)
REMARK    1  A    between atoms: C_4  and  O_5 
REMARK    2  A    between atoms: C_17  and  O_18 
REMARK    3  A    between atoms: C_30  and  O_31 
REMARK    4  A    between atoms: C_43  and  C_44 
REMARK    5  A    between atoms: O_5  and  C_6 
REMARK    6  A    between atoms: C_6  and  C_8 
REMARK    7  A    between atoms: O_18  and  C_19 
REMARK    8  A    between atoms: C_19  and  C_21 
REMARK    9  A    between atoms: O_31  and  C_32 
REMARK   10  A    between atoms: C_32  and  C_34 
REMARK   11  A    between atoms: C_44  and  O_45 
REMARK   12  A    between atoms: O_45  and  C_46 
REMARK   13  A    between atoms: C_46  and  C_48 
ROOT
ATOM      1  O   LIG     1     180.740 184.719 169.971  0.00  0.00    -0.320 OA
ATOM      2  C   LIG     1     179.717 183.883 169.396  0.00  0.00     0.313 C 
ATOM      3  O   LIG     1     179.585 184.287 168.039  0.00  0.00    -0.186 OA
ATOM      4  C   LIG     1     180.094 182.377 169.495  0.00  0.00     0.271 C 
ATOM      5  C   LIG     1     180.396 182.023 170.983  0.00  0.00     0.256 C 
ATOM      6  C   LIG     1     181.440 183.003 171.597  0.00  0.00     0.243 C 
ATOM      7  C   LIG     1     180.995 184.484 171.374  0.00  0.00     0.205 C 
ENDROOT
BRANCH   7   8
ATOM      8  C   LIG     1     182.068 185.499 171.845  0.00  0.00     0.242 C 
BRANCH   8   9
ATOM      9  O   LIG     1     183.307 185.353 171.128  0.00  0.00    -0.443 OA
BRANCH   9  10
ATOM     10  C   LIG     1     184.537 185.812 171.535  0.00  0.00     0.341 C 
ATOM     11  O   LIG     1     184.587 186.671 172.450  0.00  0.00    -0.245 OA
BRANCH  10  12
ATOM     12  C   LIG     1     185.736 185.315 170.946  0.00  0.00     0.082 A 
ATOM     13  C   LIG     1     186.980 185.943 171.198  0.00  0.00     0.052 A 
ATOM     14  C   LIG     1     188.167 185.480 170.599  0.00  0.00     0.238 A 
ATOM     15  O   LIG     1     189.324 186.141 170.858  0.00  0.00    -0.283 OA
ATOM     16  C   LIG     1     188.138 184.355 169.748  0.00  0.00     0.273 A 
ATOM     17  O   LIG     1     189.293 183.907 169.187  0.00  0.00    -0.280 OA
ATOM     18  C   LIG     1     186.912 183.709 169.490  0.00  0.00     0.238 A 
ATOM     19  O   LIG     1     186.877 182.628 168.670  0.00  0.00    -0.283 OA
ATOM     20  C   LIG     1     185.726 184.191 170.081  0.00  0.00     0.052 A 
ENDBRANCH  10  12
ENDBRANCH   9  10
ENDBRANCH   8   9
ENDBRANCH   7   8
BRANCH   6  21
ATOM     21  O   LIG     1     181.557 182.739 173.008  0.00  0.00    -0.443 OA
BRANCH  21  22
ATOM     22  C   LIG     1     182.620 182.271 173.732  0.00  0.00     0.341 C 
ATOM     23  O   LIG     1     182.504 181.078 174.095  0.00  0.00    -0.245 OA
BRANCH  22  24
ATOM     24  C   LIG     1     183.757 183.017 174.141  0.00  0.00     0.082 A 
ATOM     25  C   LIG     1     185.052 182.691 173.679  0.00  0.00     0.052 A 
ATOM     26  C   LIG     1     186.176 183.457 174.044  0.00  0.00     0.238 A 
ATOM     27  C   LIG     1     186.010 184.584 174.869  0.00  0.00     0.273 A 
ATOM     28  O   LIG     1     187.417 183.121 173.601  0.00  0.00    -0.283 OA
ATOM     29  C   LIG     1     184.729 184.921 175.352  0.00  0.00     0.238 A 
ATOM     30  O   LIG     1     187.083 185.345 175.191  0.00  0.00    -0.280 OA
ATOM     31  O   LIG     1     184.572 185.994 176.167  0.00  0.00    -0.283 OA
ATOM     32  C   LIG     1     183.613 184.140 174.991  0.00  0.00     0.052 A 
ENDBRANCH  22  24
ENDBRANCH  21  22
ENDBRANCH   6  21
BRANCH   5  33
ATOM     33  O   LIG     1     180.921 180.690 171.118  0.00  0.00    -0.441 OA
BRANCH  33  34
ATOM     34  C   LIG     1     180.336 179.638 171.758  0.00  0.00     0.342 C 
ATOM     35  O   LIG     1     179.264 179.904 172.349  0.00  0.00    -0.245 OA
BRANCH  34  36
ATOM     36  C   LIG     1     180.801 178.297 171.670  0.00  0.00     0.082 A 
ATOM     37  C   LIG     1     179.971 177.243 172.238  0.00  0.00     0.052 A 
ATOM     38  C   LIG     1     180.383 175.904 172.076  0.00  0.00     0.238 A 
ATOM     39  O   LIG     1     179.606 174.915 172.585  0.00  0.00    -0.283 OA
ATOM     40  C   LIG     1     181.572 175.559 171.393  0.00  0.00     0.273 A 
ATOM     41  O   LIG     1     181.908 174.250 171.257  0.00  0.00    -0.280 OA
ATOM     42  C   LIG     1     182.398 176.634 170.870  0.00  0.00     0.238 A 
ATOM     43  C   LIG     1     182.058 178.062 170.982  0.00  0.00     0.052 A 
ATOM     44  O   LIG     1     183.558 176.172 170.242  0.00  0.00    -0.283 OA
ENDBRANCH  34  36
ENDBRANCH  33  34
ENDBRANCH   5  33
BRANCH   4  45
ATOM     45  O   LIG     1     179.038 181.522 169.017  0.00  0.00    -0.440 OA
BRANCH  45  46
ATOM     46  C   LIG     1     179.152 180.460 168.163  0.00  0.00     0.342 C 
ATOM     47  O   LIG     1     179.459 180.760 166.987  0.00  0.00    -0.245 OA
BRANCH  46  48
ATOM     48  C   LIG     1     178.845 179.114 168.513  0.00  0.00     0.082 A 
ATOM     49  C   LIG     1     177.693 178.796 169.270  0.00  0.00     0.052 A 
ATOM     50  C   LIG     1     177.369 177.463 169.592  0.00  0.00     0.238 A 
ATOM     51  O   LIG     1     176.252 177.196 170.315  0.00  0.00    -0.283 OA
ATOM     52  C   LIG     1     178.202 176.411 169.156  0.00  0.00     0.273 A 
ATOM     53  O   LIG     1     177.896 175.114 169.422  0.00  0.00    -0.280 OA
ATOM     54  C   LIG     1     179.367 176.707 168.421  0.00  0.00     0.238 A 
ATOM     55  O   LIG     1     180.205 175.719 168.012  0.00  0.00    -0.283 OA
ATOM     56  C   LIG     1     179.676 178.043 168.098  0.00  0.00     0.052 A 
ENDBRANCH  46  48
ENDBRANCH  45  46
ENDBRANCH   4  45
TORSDOF 13
