MODEL 1
REMARK VINA RESULT:      -9.0      0.000      0.000
REMARK  Name = 5280805
REMARK                            x       y       z     vdW  Elec       q    Type
REMARK                         _______ _______ _______ _____ _____    ______ ____
ROOT
ATOM      1  O   LIG    1       18.875   1.475  13.068  0.00  0.00    -0.331 OA
ATOM      2  C   LIG    1       20.235   1.075  13.221  0.00  0.00    +0.340 C 
ATOM      3  C   LIG    1       21.118   2.283  13.534  0.00  0.00    +0.214 C 
ATOM      4  C   LIG    1       20.590   3.060  14.740  0.00  0.00    +0.180 C 
ATOM      5  C   LIG    1       19.091   3.331  14.611  0.00  0.00    +0.177 C 
ATOM     38  C   LIG    1       18.335   2.048  14.261  0.00  0.00    +0.179 C 
ENDROOT
BRANCH   5   6
ATOM      6  O   LIG    1       18.598   3.846  15.846  0.00  0.00    -0.386 OA
ATOM      7  H   LIG    1       18.381   3.092  16.420  0.00  0.00    +0.210 HD
ENDBRANCH   5   6
BRANCH   4   8
ATOM      8  O   LIG    1       21.261   4.319  14.825  0.00  0.00    -0.386 OA
ATOM      9  H   LIG    1       21.836   4.396  14.045  0.00  0.00    +0.210 HD
ENDBRANCH   4   8
BRANCH   3  10
ATOM     10  O   LIG    1       22.437   1.815  13.812  0.00  0.00    -0.383 OA
ATOM     11  H   LIG    1       22.994   2.005  13.038  0.00  0.00    +0.210 HD
ENDBRANCH   3  10
BRANCH   2  12
ATOM     12  O   LIG    1       20.705   0.489  12.008  0.00  0.00    -0.453 OA
BRANCH  12  13
ATOM     13  C   LIG    1       19.663   0.072  11.210  0.00  0.00    +0.214 A 
ATOM     14  C   LIG    1       19.046  -1.245  11.500  0.00  0.00    +0.238 A 
ATOM     15  C   LIG    1       17.922  -1.644  10.639  0.00  0.00    +0.109 A 
ATOM     16  C   LIG    1       17.275  -2.868  10.831  0.00  0.00    +0.135 A 
ATOM     17  C   LIG    1       16.210  -3.220  10.000  0.00  0.00    +0.091 A 
ATOM     18  C   LIG    1       15.795  -2.356   8.986  0.00  0.00    +0.124 A 
ATOM     19  C   LIG    1       16.443  -1.135   8.798  0.00  0.00    +0.092 A 
ATOM     24  C   LIG    1       17.509  -0.780   9.627  0.00  0.00    +0.147 A 
ATOM     25  O   LIG    1       18.105   0.432   9.395  0.00  0.00    -0.451 OA
ATOM     26  O   LIG    1       19.449  -1.959  12.408  0.00  0.00    -0.283 OA
ATOM     27  C   LIG    1       19.173   0.808  10.195  0.00  0.00    +0.181 A 
BRANCH  27  28
ATOM     28  C   LIG    1       19.720   2.129   9.840  0.00  0.00    +0.025 A 
ATOM     29  C   LIG    1       18.980   3.284  10.098  0.00  0.00    +0.015 A 
ATOM     30  C   LIG    1       19.498   4.534   9.763  0.00  0.00    +0.050 A 
ATOM     31  C   LIG    1       20.756   4.631   9.167  0.00  0.00    +0.158 A 
ATOM     32  C   LIG    1       21.496   3.478   8.908  0.00  0.00    +0.159 A 
ATOM     37  C   LIG    1       20.978   2.227   9.245  0.00  0.00    +0.060 A 
BRANCH  32  33
ATOM     33  O   LIG    1       22.726   3.560   8.328  0.00  0.00    -0.503 OA
ATOM     34  H   LIG    1       22.720   3.083   7.482  0.00  0.00    +0.292 HD
ENDBRANCH  32  33
BRANCH  31  35
ATOM     35  O   LIG    1       21.250   5.858   8.842  0.00  0.00    -0.503 OA
ATOM     36  H   LIG    1       20.864   6.155   8.003  0.00  0.00    +0.292 HD
ENDBRANCH  31  35
ENDBRANCH  27  28
BRANCH  18  20
ATOM     20  O   LIG    1       14.756  -2.704   8.179  0.00  0.00    -0.507 OA
ATOM     21  H   LIG    1       14.035  -3.059   8.728  0.00  0.00    +0.292 HD
ENDBRANCH  18  20
BRANCH  16  22
ATOM     22  O   LIG    1       17.639  -3.747  11.805  0.00  0.00    -0.506 OA
ATOM     23  H   LIG    1       17.445  -3.363  12.677  0.00  0.00    +0.292 HD
ENDBRANCH  16  22
ENDBRANCH  12  13
ENDBRANCH   2  12
BRANCH  38  39
ATOM     39  C   LIG    1       16.854   2.314  14.012  0.00  0.00    +0.197 C 
BRANCH  39  40
ATOM     40  O   LIG    1       16.445   1.604  12.852  0.00  0.00    -0.346 OA
BRANCH  40  41
ATOM     41  C   LIG    1       15.642   0.477  13.187  0.00  0.00    +0.282 C 
ATOM     42  C   LIG    1       14.626   0.868  14.260  0.00  0.00    +0.201 C 
ATOM     43  C   LIG    1       13.555   1.796  13.684  0.00  0.00    +0.179 C 
ATOM     44  C   LIG    1       12.932   1.196  12.423  0.00  0.00    +0.174 C 
ATOM     45  C   LIG    1       14.031   0.792  11.432  0.00  0.00    +0.149 C 
ATOM     46  C   LIG    1       13.467   0.055  10.219  0.00  0.00    +0.041 C 
ATOM     53  O   LIG    1       14.983  -0.082  12.047  0.00  0.00    -0.343 OA
BRANCH  44  47
ATOM     47  O   LIG    1       12.078   2.178  11.840  0.00  0.00    -0.387 OA
ATOM     48  H   LIG    1       11.213   2.120  12.281  0.00  0.00    +0.210 HD
ENDBRANCH  44  47
BRANCH  43  49
ATOM     49  O   LIG    1       12.532   2.018  14.652  0.00  0.00    -0.386 OA
ATOM     50  H   LIG    1       12.361   2.974  14.688  0.00  0.00    +0.210 HD
ENDBRANCH  43  49
BRANCH  42  51
ATOM     51  O   LIG    1       14.021  -0.332  14.744  0.00  0.00    -0.384 OA
ATOM     52  H   LIG    1       13.066  -0.288  14.567  0.00  0.00    +0.210 HD
ENDBRANCH  42  51
ENDBRANCH  40  41
ENDBRANCH  39  40
ENDBRANCH  38  39
TORSDOF 16
ENDMDL
MODEL 2
REMARK VINA RESULT:      -8.7      1.424      7.808
REMARK  Name = 5280805
REMARK                            x       y       z     vdW  Elec       q    Type
REMARK                         _______ _______ _______ _____ _____    ______ ____
ROOT
ATOM      1  O   LIG    1       18.288  -0.375  11.005  0.00  0.00    -0.331 OA
ATOM      2  C   LIG    1       17.561  -1.460  11.578  0.00  0.00    +0.340 C 
ATOM      3  C   LIG    1       16.358  -1.820  10.705  0.00  0.00    +0.214 C 
ATOM      4  C   LIG    1       16.781  -2.087   9.260  0.00  0.00    +0.180 C 
ATOM      5  C   LIG    1       17.691  -0.977   8.735  0.00  0.00    +0.177 C 
ATOM     38  C   LIG    1       18.827  -0.694   9.721  0.00  0.00    +0.179 C 
ENDROOT
BRANCH   5   6
ATOM      6  O   LIG    1       18.243  -1.375   7.482  0.00  0.00    -0.386 OA
ATOM      7  H   LIG    1       19.052  -0.856   7.332  0.00  0.00    +0.210 HD
ENDBRANCH   5   6
BRANCH   4   8
ATOM      8  O   LIG    1       15.620  -2.138   8.428  0.00  0.00    -0.386 OA
ATOM      9  H   LIG    1       14.979  -2.729   8.857  0.00  0.00    +0.210 HD
ENDBRANCH   4   8
BRANCH   3  10
ATOM     10  O   LIG    1       15.748  -2.991  11.245  0.00  0.00    -0.383 OA
ATOM     11  H   LIG    1       15.217  -3.405  10.544  0.00  0.00    +0.210 HD
ENDBRANCH   3  10
BRANCH   2  12
ATOM     12  O   LIG    1       17.074  -1.086  12.866  0.00  0.00    -0.453 OA
BRANCH  12  13
ATOM     13  C   LIG    1       17.626   0.101  13.293  0.00  0.00    +0.214 A 
ATOM     14  C   LIG    1       19.049   0.097  13.712  0.00  0.00    +0.238 A 
ATOM     15  C   LIG    1       19.607   1.388  14.141  0.00  0.00    +0.109 A 
ATOM     16  C   LIG    1       20.937   1.489  14.557  0.00  0.00    +0.135 A 
ATOM     17  C   LIG    1       21.442   2.728  14.956  0.00  0.00    +0.091 A 
ATOM     18  C   LIG    1       20.622   3.857  14.939  0.00  0.00    +0.124 A 
ATOM     19  C   LIG    1       19.295   3.753  14.523  0.00  0.00    +0.092 A 
ATOM     24  C   LIG    1       18.788   2.515  14.124  0.00  0.00    +0.147 A 
ATOM     25  O   LIG    1       17.477   2.476  13.724  0.00  0.00    -0.451 OA
ATOM     26  O   LIG    1       19.721  -0.926  13.701  0.00  0.00    -0.283 OA
ATOM     27  C   LIG    1       16.942   1.259  13.331  0.00  0.00    +0.181 A 
BRANCH  27  28
ATOM     28  C   LIG    1       15.529   1.356  12.927  0.00  0.00    +0.025 A 
ATOM     29  C   LIG    1       15.185   1.329  11.575  0.00  0.00    +0.015 A 
ATOM     30  C   LIG    1       13.847   1.421  11.193  0.00  0.00    +0.050 A 
ATOM     31  C   LIG    1       12.851   1.542  12.162  0.00  0.00    +0.158 A 
ATOM     32  C   LIG    1       13.193   1.569  13.513  0.00  0.00    +0.159 A 
ATOM     37  C   LIG    1       14.532   1.477  13.896  0.00  0.00    +0.060 A 
BRANCH  32  33
ATOM     33  O   LIG    1       12.230   1.685  14.470  0.00  0.00    -0.503 OA
ATOM     34  H   LIG    1       11.352   1.652  14.054  0.00  0.00    +0.292 HD
ENDBRANCH  32  33
BRANCH  31  35
ATOM     35  O   LIG    1       11.548   1.633  11.776  0.00  0.00    -0.503 OA
ATOM     36  H   LIG    1       11.082   0.812  12.002  0.00  0.00    +0.292 HD
ENDBRANCH  31  35
ENDBRANCH  27  28
BRANCH  18  20
ATOM     20  O   LIG    1       21.119   5.063  15.329  0.00  0.00    -0.507 OA
ATOM     21  H   LIG    1       21.411   5.553  14.542  0.00  0.00    +0.292 HD
ENDBRANCH  18  20
BRANCH  16  22
ATOM     22  O   LIG    1       21.780   0.419  14.592  0.00  0.00    -0.506 OA
ATOM     23  H   LIG    1       22.339   0.472  15.385  0.00  0.00    +0.292 HD
ENDBRANCH  16  22
ENDBRANCH  12  13
ENDBRANCH   2  12
BRANCH  38  39
ATOM     39  C   LIG    1       19.681   0.489   9.274  0.00  0.00    +0.197 C 
BRANCH  39  40
ATOM     40  O   LIG    1       19.535   1.545  10.214  0.00  0.00    -0.346 OA
BRANCH  40  41
ATOM     41  C   LIG    1       20.783   1.892  10.804  0.00  0.00    +0.282 C 
ATOM     42  C   LIG    1       21.877   1.890   9.737  0.00  0.00    +0.201 C 
ATOM     43  C   LIG    1       21.702   3.066   8.774  0.00  0.00    +0.179 C 
ATOM     44  C   LIG    1       21.577   4.385   9.538  0.00  0.00    +0.174 C 
ATOM     45  C   LIG    1       20.490   4.270  10.614  0.00  0.00    +0.149 C 
ATOM     46  C   LIG    1       20.428   5.513  11.499  0.00  0.00    +0.041 C 
ATOM     53  O   LIG    1       20.736   3.154  11.477  0.00  0.00    -0.343 OA
BRANCH  44  47
ATOM     47  O   LIG    1       21.241   5.408   8.603  0.00  0.00    -0.387 OA
ATOM     48  H   LIG    1       20.291   5.595   8.695  0.00  0.00    +0.210 HD
ENDBRANCH  44  47
BRANCH  43  49
ATOM     49  O   LIG    1       22.818   3.139   7.889  0.00  0.00    -0.386 OA
ATOM     50  H   LIG    1       22.728   3.954   7.366  0.00  0.00    +0.210 HD
ENDBRANCH  43  49
BRANCH  42  51
ATOM     51  O   LIG    1       23.136   1.991  10.405  0.00  0.00    -0.384 OA
ATOM     52  H   LIG    1       23.417   1.097  10.666  0.00  0.00    +0.210 HD
ENDBRANCH  42  51
ENDBRANCH  40  41
ENDBRANCH  39  40
ENDBRANCH  38  39
TORSDOF 16
ENDMDL
MODEL 3
REMARK VINA RESULT:      -8.4      2.054      6.667
REMARK  Name = 5280805
REMARK                            x       y       z     vdW  Elec       q    Type
REMARK                         _______ _______ _______ _____ _____    ______ ____
ROOT
ATOM      1  O   LIG    1       18.263   0.360  14.228  0.00  0.00    -0.331 OA
ATOM      2  C   LIG    1       17.313  -0.038  13.242  0.00  0.00    +0.340 C 
ATOM      3  C   LIG    1       16.169  -0.824  13.884  0.00  0.00    +0.214 C 
ATOM      4  C   LIG    1       15.535  -0.043  15.034  0.00  0.00    +0.180 C 
ATOM      5  C   LIG    1       16.599   0.504  15.986  0.00  0.00    +0.177 C 
ATOM     38  C   LIG    1       17.699   1.232  15.210  0.00  0.00    +0.179 C 
ENDROOT
BRANCH   5   6
ATOM      6  O   LIG    1       15.991   1.410  16.903  0.00  0.00    -0.386 OA
ATOM      7  H   LIG    1       15.039   1.439  16.710  0.00  0.00    +0.210 HD
ENDBRANCH   5   6
BRANCH   4   8
ATOM      8  O   LIG    1       14.678  -0.908  15.782  0.00  0.00    -0.386 OA
ATOM      9  H   LIG    1       14.083  -0.346  16.307  0.00  0.00    +0.210 HD
ENDBRANCH   4   8
BRANCH   3  10
ATOM     10  O   LIG    1       15.184  -1.079  12.884  0.00  0.00    -0.383 OA
ATOM     11  H   LIG    1       15.322  -0.449  12.157  0.00  0.00    +0.210 HD
ENDBRANCH   3  10
BRANCH   2  12
ATOM     12  O   LIG    1       17.943  -0.885  12.281  0.00  0.00    -0.453 OA
BRANCH  12  13
ATOM     13  C   LIG    1       18.771  -0.171  11.443  0.00  0.00    +0.214 A 
ATOM     14  C   LIG    1       20.203  -0.057  11.809  0.00  0.00    +0.238 A 
ATOM     15  C   LIG    1       21.057   0.694  10.877  0.00  0.00    +0.109 A 
ATOM     16  C   LIG    1       22.421   0.861  11.134  0.00  0.00    +0.135 A 
ATOM     17  C   LIG    1       23.209   1.576  10.231  0.00  0.00    +0.091 A 
ATOM     18  C   LIG    1       22.639   2.121   9.081  0.00  0.00    +0.124 A 
ATOM     19  C   LIG    1       21.277   1.953   8.827  0.00  0.00    +0.092 A 
ATOM     24  C   LIG    1       20.487   1.238   9.728  0.00  0.00    +0.147 A 
ATOM     25  O   LIG    1       19.156   1.105   9.425  0.00  0.00    -0.451 OA
ATOM     26  O   LIG    1       20.650  -0.562  12.831  0.00  0.00    -0.283 OA
ATOM     27  C   LIG    1       18.343   0.409  10.306  0.00  0.00    +0.181 A 
BRANCH  27  28
ATOM     28  C   LIG    1       16.940   0.341   9.861  0.00  0.00    +0.025 A 
ATOM     29  C   LIG    1       16.486  -0.771   9.151  0.00  0.00    +0.015 A 
ATOM     30  C   LIG    1       15.158  -0.835   8.731  0.00  0.00    +0.050 A 
ATOM     31  C   LIG    1       14.283   0.212   9.019  0.00  0.00    +0.158 A 
ATOM     32  C   LIG    1       14.736   1.323   9.729  0.00  0.00    +0.159 A 
ATOM     37  C   LIG    1       16.065   1.388  10.150  0.00  0.00    +0.060 A 
BRANCH  32  33
ATOM     33  O   LIG    1       13.891   2.352  10.018  0.00  0.00    -0.503 OA
ATOM     34  H   LIG    1       13.219   2.428   9.322  0.00  0.00    +0.292 HD
ENDBRANCH  32  33
BRANCH  31  35
ATOM     35  O   LIG    1       12.989   0.138   8.602  0.00  0.00    -0.503 OA
ATOM     36  H   LIG    1       12.599   1.026   8.585  0.00  0.00    +0.292 HD
ENDBRANCH  31  35
ENDBRANCH  27  28
BRANCH  18  20
ATOM     20  O   LIG    1       23.411   2.818   8.203  0.00  0.00    -0.507 OA
ATOM     21  H   LIG    1       22.868   3.073   7.438  0.00  0.00    +0.292 HD
ENDBRANCH  18  20
BRANCH  16  22
ATOM     22  O   LIG    1       23.029   0.349  12.241  0.00  0.00    -0.506 OA
ATOM     23  H   LIG    1       23.779   0.915  12.490  0.00  0.00    +0.292 HD
ENDBRANCH  16  22
ENDBRANCH  12  13
ENDBRANCH   2  12
BRANCH  38  39
ATOM     39  C   LIG    1       18.832   1.685  16.125  0.00  0.00    +0.197 C 
BRANCH  39  40
ATOM     40  O   LIG    1       19.359   2.911  15.637  0.00  0.00    -0.346 OA
BRANCH  40  41
ATOM     41  C   LIG    1       20.012   2.734  14.384  0.00  0.00    +0.282 C 
ATOM     42  C   LIG    1       20.162   4.085  13.685  0.00  0.00    +0.201 C 
ATOM     43  C   LIG    1       21.194   4.957  14.402  0.00  0.00    +0.179 C 
ATOM     44  C   LIG    1       22.511   4.203  14.593  0.00  0.00    +0.174 C 
ATOM     45  C   LIG    1       22.249   2.844  15.256  0.00  0.00    +0.149 C 
ATOM     46  C   LIG    1       23.514   1.993  15.334  0.00  0.00    +0.041 C 
ATOM     53  O   LIG    1       21.282   2.089  14.517  0.00  0.00    -0.343 OA
BRANCH  44  47
ATOM     47  O   LIG    1       23.362   4.998  15.416  0.00  0.00    -0.387 OA
ATOM     48  H   LIG    1       23.117   4.835  16.342  0.00  0.00    +0.210 HD
ENDBRANCH  44  47
BRANCH  43  49
ATOM     49  O   LIG    1       21.437   6.142  13.646  0.00  0.00    -0.386 OA
ATOM     50  H   LIG    1       21.575   5.880  12.720  0.00  0.00    +0.210 HD
ENDBRANCH  43  49
BRANCH  42  51
ATOM     51  O   LIG    1       20.583   3.835  12.343  0.00  0.00    -0.384 OA
ATOM     52  H   LIG    1       20.974   4.652  11.987  0.00  0.00    +0.210 HD
ENDBRANCH  42  51
ENDBRANCH  40  41
ENDBRANCH  39  40
ENDBRANCH  38  39
TORSDOF 16
ENDMDL
MODEL 4
REMARK VINA RESULT:      -8.3      2.295      7.228
REMARK  Name = 5280805
REMARK                            x       y       z     vdW  Elec       q    Type
REMARK                         _______ _______ _______ _____ _____    ______ ____
ROOT
ATOM      1  O   LIG    1       17.788   1.908  11.190  0.00  0.00    -0.331 OA
ATOM      2  C   LIG    1       17.884   1.026  12.306  0.00  0.00    +0.340 C 
ATOM      3  C   LIG    1       19.085   0.093  12.151  0.00  0.00    +0.214 C 
ATOM      4  C   LIG    1       20.372   0.880  11.907  0.00  0.00    +0.180 C 
ATOM      5  C   LIG    1       20.182   1.927  10.809  0.00  0.00    +0.177 C 
ATOM     38  C   LIG    1       18.926   2.763  11.068  0.00  0.00    +0.179 C 
ENDROOT
BRANCH   5   6
ATOM      6  O   LIG    1       21.320   2.784  10.774  0.00  0.00    -0.386 OA
ATOM      7  H   LIG    1       21.714   2.724   9.887  0.00  0.00    +0.210 HD
ENDBRANCH   5   6
BRANCH   4   8
ATOM      8  O   LIG    1       21.405  -0.015  11.489  0.00  0.00    -0.386 OA
ATOM      9  H   LIG    1       21.350  -0.090  10.521  0.00  0.00    +0.210 HD
ENDBRANCH   4   8
BRANCH   3  10
ATOM     10  O   LIG    1       19.216  -0.671  13.350  0.00  0.00    -0.383 OA
ATOM     11  H   LIG    1       18.845  -0.150  14.081  0.00  0.00    +0.210 HD
ENDBRANCH   3  10
BRANCH   2  12
ATOM     12  O   LIG    1       16.708   0.221  12.386  0.00  0.00    -0.453 OA
BRANCH  12  13
ATOM     13  C   LIG    1       15.656   0.913  12.943  0.00  0.00    +0.214 A 
ATOM     14  C   LIG    1       14.326   0.798  12.297  0.00  0.00    +0.238 A 
ATOM     15  C   LIG    1       13.225   1.536  12.935  0.00  0.00    +0.109 A 
ATOM     16  C   LIG    1       11.934   1.494  12.401  0.00  0.00    +0.135 A 
ATOM     17  C   LIG    1       10.907   2.201  13.029  0.00  0.00    +0.091 A 
ATOM     18  C   LIG    1       11.168   2.944  14.180  0.00  0.00    +0.124 A 
ATOM     19  C   LIG    1       12.458   2.983  14.710  0.00  0.00    +0.092 A 
ATOM     24  C   LIG    1       13.487   2.278  14.085  0.00  0.00    +0.147 A 
ATOM     25  O   LIG    1       14.733   2.353  14.652  0.00  0.00    -0.451 OA
ATOM     26  O   LIG    1       14.154   0.126  11.289  0.00  0.00    -0.283 OA
ATOM     27  C   LIG    1       15.777   1.671  14.048  0.00  0.00    +0.181 A 
BRANCH  27  28
ATOM     28  C   LIG    1       17.058   1.836  14.758  0.00  0.00    +0.025 A 
ATOM     29  C   LIG    1       17.490   0.859  15.656  0.00  0.00    +0.015 A 
ATOM     30  C   LIG    1       18.702   1.015  16.327  0.00  0.00    +0.050 A 
ATOM     31  C   LIG    1       19.483   2.149  16.102  0.00  0.00    +0.158 A 
ATOM     32  C   LIG    1       19.052   3.126  15.205  0.00  0.00    +0.159 A 
ATOM     37  C   LIG    1       17.840   2.969  14.533  0.00  0.00    +0.060 A 
BRANCH  32  33
ATOM     33  O   LIG    1       19.807   4.237  14.976  0.00  0.00    -0.503 OA
ATOM     34  H   LIG    1       20.655   4.157  15.441  0.00  0.00    +0.292 HD
ENDBRANCH  32  33
BRANCH  31  35
ATOM     35  O   LIG    1       20.664   2.291  16.765  0.00  0.00    -0.503 OA
ATOM     36  H   LIG    1       21.369   1.834  16.280  0.00  0.00    +0.292 HD
ENDBRANCH  31  35
ENDBRANCH  27  28
BRANCH  18  20
ATOM     20  O   LIG    1       10.164   3.632  14.788  0.00  0.00    -0.507 OA
ATOM     21  H   LIG    1        9.409   3.034  14.924  0.00  0.00    +0.292 HD
ENDBRANCH  18  20
BRANCH  16  22
ATOM     22  O   LIG    1       11.624   0.784  11.281  0.00  0.00    -0.506 OA
ATOM     23  H   LIG    1       11.310   1.391  10.589  0.00  0.00    +0.292 HD
ENDBRANCH  16  22
ENDBRANCH  12  13
ENDBRANCH   2  12
BRANCH  38  39
ATOM     39  C   LIG    1       18.650   3.737   9.927  0.00  0.00    +0.197 C 
BRANCH  39  40
ATOM     40  O   LIG    1       19.885   4.252   9.450  0.00  0.00    -0.346 OA
BRANCH  40  41
ATOM     41  C   LIG    1       19.916   5.674   9.514  0.00  0.00    +0.282 C 
ATOM     42  C   LIG    1       19.757   6.128  10.964  0.00  0.00    +0.201 C 
ATOM     43  C   LIG    1       21.009   5.798  11.779  0.00  0.00    +0.179 C 
ATOM     44  C   LIG    1       22.266   6.332  11.091  0.00  0.00    +0.174 C 
ATOM     45  C   LIG    1       22.309   5.862   9.632  0.00  0.00    +0.149 C 
ATOM     46  C   LIG    1       23.470   6.488   8.862  0.00  0.00    +0.041 C 
ATOM     53  O   LIG    1       21.108   6.220   8.940  0.00  0.00    -0.343 OA
BRANCH  44  47
ATOM     47  O   LIG    1       23.402   5.842  11.801  0.00  0.00    -0.387 OA
ATOM     48  H   LIG    1       24.105   6.510  11.735  0.00  0.00    +0.210 HD
ENDBRANCH  44  47
BRANCH  43  49
ATOM     49  O   LIG    1       20.907   6.372  13.081  0.00  0.00    -0.386 OA
ATOM     50  H   LIG    1       20.298   5.820  13.600  0.00  0.00    +0.210 HD
ENDBRANCH  43  49
BRANCH  42  51
ATOM     51  O   LIG    1       19.540   7.540  10.956  0.00  0.00    -0.384 OA
ATOM     52  H   LIG    1       19.503   7.839  10.031  0.00  0.00    +0.210 HD
ENDBRANCH  42  51
ENDBRANCH  40  41
ENDBRANCH  39  40
ENDBRANCH  38  39
TORSDOF 16
ENDMDL
MODEL 5
REMARK VINA RESULT:      -8.2      2.002      5.942
REMARK  Name = 5280805
REMARK                            x       y       z     vdW  Elec       q    Type
REMARK                         _______ _______ _______ _____ _____    ______ ____
ROOT
ATOM      1  O   LIG    1       20.463   0.498  11.966  0.00  0.00    -0.331 OA
ATOM      2  C   LIG    1       19.827   0.031  13.153  0.00  0.00    +0.340 C 
ATOM      3  C   LIG    1       20.843  -0.635  14.081  0.00  0.00    +0.214 C 
ATOM      4  C   LIG    1       22.024   0.293  14.369  0.00  0.00    +0.180 C 
ATOM      5  C   LIG    1       22.578   0.900  13.080  0.00  0.00    +0.177 C 
ATOM     38  C   LIG    1       21.452   1.495  12.231  0.00  0.00    +0.179 C 
ENDROOT
BRANCH   5   6
ATOM      6  O   LIG    1       23.514   1.924  13.406  0.00  0.00    -0.386 OA
ATOM      7  H   LIG    1       23.111   2.781  13.187  0.00  0.00    +0.210 HD
ENDBRANCH   5   6
BRANCH   4   8
ATOM      8  O   LIG    1       23.072  -0.451  14.993  0.00  0.00    -0.386 OA
ATOM      9  H   LIG    1       23.272  -0.017  15.840  0.00  0.00    +0.210 HD
ENDBRANCH   4   8
BRANCH   3  10
ATOM     10  O   LIG    1       20.186  -0.960  15.306  0.00  0.00    -0.383 OA
ATOM     11  H   LIG    1       20.654  -1.710  15.709  0.00  0.00    +0.210 HD
ENDBRANCH   3  10
BRANCH   2  12
ATOM     12  O   LIG    1       18.835  -0.940  12.818  0.00  0.00    -0.453 OA
BRANCH  12  13
ATOM     13  C   LIG    1       17.739  -0.359  12.220  0.00  0.00    +0.214 A 
ATOM     14  C   LIG    1       17.220  -0.969  10.973  0.00  0.00    +0.238 A 
ATOM     15  C   LIG    1       16.035  -0.332  10.378  0.00  0.00    +0.109 A 
ATOM     16  C   LIG    1       15.471  -0.831   9.200  0.00  0.00    +0.135 A 
ATOM     17  C   LIG    1       14.345  -0.208   8.659  0.00  0.00    +0.091 A 
ATOM     18  C   LIG    1       13.787   0.904   9.290  0.00  0.00    +0.124 A 
ATOM     19  C   LIG    1       14.352   1.399  10.466  0.00  0.00    +0.092 A 
ATOM     24  C   LIG    1       15.478   0.778  11.009  0.00  0.00    +0.147 A 
ATOM     25  O   LIG    1       15.988   1.309  12.166  0.00  0.00    -0.451 OA
ATOM     26  O   LIG    1       17.748  -1.950  10.466  0.00  0.00    -0.283 OA
ATOM     27  C   LIG    1       17.112   0.721  12.724  0.00  0.00    +0.181 A 
BRANCH  27  28
ATOM     28  C   LIG    1       17.555   1.386  13.962  0.00  0.00    +0.025 A 
ATOM     29  C   LIG    1       17.186   0.869  15.203  0.00  0.00    +0.015 A 
ATOM     30  C   LIG    1       17.605   1.499  16.375  0.00  0.00    +0.050 A 
ATOM     31  C   LIG    1       18.393   2.648  16.305  0.00  0.00    +0.158 A 
ATOM     32  C   LIG    1       18.762   3.166  15.065  0.00  0.00    +0.159 A 
ATOM     37  C   LIG    1       18.343   2.536  13.893  0.00  0.00    +0.060 A 
BRANCH  32  33
ATOM     33  O   LIG    1       19.532   4.288  14.984  0.00  0.00    -0.503 OA
ATOM     34  H   LIG    1       20.205   4.272  15.683  0.00  0.00    +0.292 HD
ENDBRANCH  32  33
BRANCH  31  35
ATOM     35  O   LIG    1       18.795   3.256  17.456  0.00  0.00    -0.503 OA
ATOM     36  H   LIG    1       18.616   4.208  17.403  0.00  0.00    +0.292 HD
ENDBRANCH  31  35
ENDBRANCH  27  28
BRANCH  18  20
ATOM     20  O   LIG    1       12.689   1.508   8.759  0.00  0.00    -0.507 OA
ATOM     21  H   LIG    1       12.963   2.053   8.002  0.00  0.00    +0.292 HD
ENDBRANCH  18  20
BRANCH  16  22
ATOM     22  O   LIG    1       15.975  -1.913   8.545  0.00  0.00    -0.506 OA
ATOM     23  H   LIG    1       15.472  -2.059   7.725  0.00  0.00    +0.292 HD
ENDBRANCH  16  22
ENDBRANCH  12  13
ENDBRANCH   2  12
BRANCH  38  39
ATOM     39  C   LIG    1       21.965   2.002  10.887  0.00  0.00    +0.197 C 
BRANCH  39  40
ATOM     40  O   LIG    1       22.273   3.384  11.002  0.00  0.00    -0.346 OA
BRANCH  40  41
ATOM     41  C   LIG    1       21.338   4.059  11.838  0.00  0.00    +0.282 C 
ATOM     42  C   LIG    1       21.803   5.493  12.081  0.00  0.00    +0.201 C 
ATOM     43  C   LIG    1       21.674   6.331  10.808  0.00  0.00    +0.179 C 
ATOM     44  C   LIG    1       20.266   6.222  10.221  0.00  0.00    +0.174 C 
ATOM     45  C   LIG    1       19.873   4.748  10.061  0.00  0.00    +0.149 C 
ATOM     46  C   LIG    1       18.422   4.587   9.617  0.00  0.00    +0.041 C 
ATOM     53  O   LIG    1       20.013   4.041  11.299  0.00  0.00    -0.343 OA
BRANCH  44  47
ATOM     47  O   LIG    1       20.261   6.875   8.954  0.00  0.00    -0.387 OA
ATOM     48  H   LIG    1       19.337   7.062   8.718  0.00  0.00    +0.210 HD
ENDBRANCH  44  47
BRANCH  43  49
ATOM     49  O   LIG    1       21.958   7.699  11.095  0.00  0.00    -0.386 OA
ATOM     50  H   LIG    1       21.143   8.208  10.948  0.00  0.00    +0.210 HD
ENDBRANCH  43  49
BRANCH  42  51
ATOM     51  O   LIG    1       20.986   6.047  13.113  0.00  0.00    -0.384 OA
ATOM     52  H   LIG    1       20.498   5.322  13.540  0.00  0.00    +0.210 HD
ENDBRANCH  42  51
ENDBRANCH  40  41
ENDBRANCH  39  40
ENDBRANCH  38  39
TORSDOF 16
ENDMDL
MODEL 6
REMARK VINA RESULT:      -8.1      1.942      7.214
REMARK  Name = 5280805
REMARK                            x       y       z     vdW  Elec       q    Type
REMARK                         _______ _______ _______ _____ _____    ______ ____
ROOT
ATOM      1  O   LIG    1       18.323   0.700  12.561  0.00  0.00    -0.331 OA
ATOM      2  C   LIG    1       17.615   0.691  13.799  0.00  0.00    +0.340 C 
ATOM      3  C   LIG    1       18.567   0.402  14.960  0.00  0.00    +0.214 C 
ATOM      4  C   LIG    1       19.749   1.370  14.962  0.00  0.00    +0.180 C 
ATOM      5  C   LIG    1       20.384   1.473  13.576  0.00  0.00    +0.177 C 
ATOM     38  C   LIG    1       19.317   1.725  12.507  0.00  0.00    +0.179 C 
ENDROOT
BRANCH   5   6
ATOM      6  O   LIG    1       21.323   2.546  13.566  0.00  0.00    -0.386 OA
ATOM      7  H   LIG    1       21.505   2.795  14.488  0.00  0.00    +0.210 HD
ENDBRANCH   5   6
BRANCH   4   8
ATOM      8  O   LIG    1       20.747   0.899  15.871  0.00  0.00    -0.386 OA
ATOM      9  H   LIG    1       20.420   0.070  16.258  0.00  0.00    +0.210 HD
ENDBRANCH   4   8
BRANCH   3  10
ATOM     10  O   LIG    1       17.839   0.538  16.180  0.00  0.00    -0.383 OA
ATOM     11  H   LIG    1       17.376  -0.299  16.349  0.00  0.00    +0.210 HD
ENDBRANCH   3  10
BRANCH   2  12
ATOM     12  O   LIG    1       16.623  -0.335  13.778  0.00  0.00    -0.453 OA
BRANCH  12  13
ATOM     13  C   LIG    1       15.387   0.162  13.426  0.00  0.00    +0.214 A 
ATOM     14  C   LIG    1       14.827   1.274  14.233  0.00  0.00    +0.238 A 
ATOM     15  C   LIG    1       13.516   1.790  13.811  0.00  0.00    +0.109 A 
ATOM     16  C   LIG    1       12.903   2.835  14.508  0.00  0.00    +0.135 A 
ATOM     17  C   LIG    1       11.659   3.307  14.085  0.00  0.00    +0.091 A 
ATOM     18  C   LIG    1       11.034   2.738  12.975  0.00  0.00    +0.124 A 
ATOM     19  C   LIG    1       11.649   1.696  12.282  0.00  0.00    +0.092 A 
ATOM     24  C   LIG    1       12.892   1.222  12.703  0.00  0.00    +0.147 A 
ATOM     25  O   LIG    1       13.448   0.196  11.982  0.00  0.00    -0.451 OA
ATOM     26  O   LIG    1       15.425   1.737  15.195  0.00  0.00    -0.283 OA
ATOM     27  C   LIG    1       14.677  -0.303  12.381  0.00  0.00    +0.181 A 
BRANCH  27  28
ATOM     28  C   LIG    1       15.159  -1.399  11.523  0.00  0.00    +0.025 A 
ATOM     29  C   LIG    1       14.902  -1.378  10.152  0.00  0.00    +0.015 A 
ATOM     30  C   LIG    1       15.358  -2.415   9.340  0.00  0.00    +0.050 A 
ATOM     31  C   LIG    1       16.071  -3.476   9.898  0.00  0.00    +0.158 A 
ATOM     32  C   LIG    1       16.329  -3.499  11.268  0.00  0.00    +0.159 A 
ATOM     37  C   LIG    1       15.873  -2.461  12.080  0.00  0.00    +0.060 A 
BRANCH  32  33
ATOM     33  O   LIG    1       17.026  -4.529  11.824  0.00  0.00    -0.503 OA
ATOM     34  H   LIG    1       16.627  -5.374  11.559  0.00  0.00    +0.292 HD
ENDBRANCH  32  33
BRANCH  31  35
ATOM     35  O   LIG    1       16.510  -4.485   9.094  0.00  0.00    -0.503 OA
ATOM     36  H   LIG    1       16.102  -5.321   9.366  0.00  0.00    +0.292 HD
ENDBRANCH  31  35
ENDBRANCH  27  28
BRANCH  18  20
ATOM     20  O   LIG    1        9.821   3.202  12.566  0.00  0.00    -0.507 OA
ATOM     21  H   LIG    1        9.430   3.736  13.279  0.00  0.00    +0.292 HD
ENDBRANCH  18  20
BRANCH  16  22
ATOM     22  O   LIG    1       13.470   3.425  15.596  0.00  0.00    -0.506 OA
ATOM     23  H   LIG    1       14.394   3.133  15.679  0.00  0.00    +0.292 HD
ENDBRANCH  16  22
ENDBRANCH  12  13
ENDBRANCH   2  12
BRANCH  38  39
ATOM     39  C   LIG    1       19.911   1.716  11.102  0.00  0.00    +0.197 C 
BRANCH  39  40
ATOM     40  O   LIG    1       19.697   2.986  10.502  0.00  0.00    -0.346 OA
BRANCH  40  41
ATOM     41  C   LIG    1       20.928   3.642  10.219  0.00  0.00    +0.282 C 
ATOM     42  C   LIG    1       20.747   4.589   9.033  0.00  0.00    +0.201 C 
ATOM     43  C   LIG    1       19.887   5.792   9.422  0.00  0.00    +0.179 C 
ATOM     44  C   LIG    1       20.429   6.468  10.682  0.00  0.00    +0.174 C 
ATOM     45  C   LIG    1       20.621   5.430  11.796  0.00  0.00    +0.149 C 
ATOM     46  C   LIG    1       21.297   6.029  13.027  0.00  0.00    +0.041 C 
ATOM     53  O   LIG    1       21.444   4.346  11.353  0.00  0.00    -0.343 OA
BRANCH  44  47
ATOM     47  O   LIG    1       19.492   7.462  11.090  0.00  0.00    -0.387 OA
ATOM     48  H   LIG    1       18.697   7.365  10.540  0.00  0.00    +0.210 HD
ENDBRANCH  44  47
BRANCH  43  49
ATOM     49  O   LIG    1       19.865   6.738   8.355  0.00  0.00    -0.386 OA
ATOM     50  H   LIG    1       20.779   7.030   8.198  0.00  0.00    +0.210 HD
ENDBRANCH  43  49
BRANCH  42  51
ATOM     51  O   LIG    1       22.044   5.027   8.625  0.00  0.00    -0.384 OA
ATOM     52  H   LIG    1       22.515   4.272   8.234  0.00  0.00    +0.210 HD
ENDBRANCH  42  51
ENDBRANCH  40  41
ENDBRANCH  39  40
ENDBRANCH  38  39
TORSDOF 16
ENDMDL
MODEL 7
REMARK VINA RESULT:      -8.0      1.065      1.939
REMARK  Name = 5280805
REMARK                            x       y       z     vdW  Elec       q    Type
REMARK                         _______ _______ _______ _____ _____    ______ ____
ROOT
ATOM      1  O   LIG    1       19.437   1.560  13.276  0.00  0.00    -0.331 OA
ATOM      2  C   LIG    1       20.599   0.737  13.339  0.00  0.00    +0.340 C 
ATOM      3  C   LIG    1       21.751   1.484  14.012  0.00  0.00    +0.214 C 
ATOM      4  C   LIG    1       21.336   2.027  15.380  0.00  0.00    +0.180 C 
ATOM      5  C   LIG    1       20.002   2.768  15.300  0.00  0.00    +0.177 C 
ATOM     38  C   LIG    1       18.954   1.924  14.571  0.00  0.00    +0.179 C 
ENDROOT
BRANCH   5   6
ATOM      6  O   LIG    1       19.542   3.054  16.619  0.00  0.00    -0.386 OA
ATOM      7  H   LIG    1       18.573   3.118  16.592  0.00  0.00    +0.210 HD
ENDBRANCH   5   6
BRANCH   4   8
ATOM      8  O   LIG    1       22.325   2.947  15.846  0.00  0.00    -0.386 OA
ATOM      9  H   LIG    1       22.653   2.614  16.699  0.00  0.00    +0.210 HD
ENDBRANCH   4   8
BRANCH   3  10
ATOM     10  O   LIG    1       22.840   0.577  14.172  0.00  0.00    -0.383 OA
ATOM     11  H   LIG    1       23.653   1.098  14.284  0.00  0.00    +0.210 HD
ENDBRANCH   3  10
BRANCH   2  12
ATOM     12  O   LIG    1       21.014   0.389  12.018  0.00  0.00    -0.453 OA
BRANCH  12  13
ATOM     13  C   LIG    1       19.945   0.021  11.231  0.00  0.00    +0.214 A 
ATOM     14  C   LIG    1       19.252  -1.252  11.546  0.00  0.00    +0.238 A 
ATOM     15  C   LIG    1       18.102  -1.597  10.696  0.00  0.00    +0.109 A 
ATOM     16  C   LIG    1       17.384  -2.777  10.911  0.00  0.00    +0.135 A 
ATOM     17  C   LIG    1       16.296  -3.079  10.090  0.00  0.00    +0.091 A 
ATOM     18  C   LIG    1       15.929  -2.208   9.064  0.00  0.00    +0.124 A 
ATOM     19  C   LIG    1       16.647  -1.031   8.854  0.00  0.00    +0.092 A 
ATOM     24  C   LIG    1       17.736  -0.727   9.672  0.00  0.00    +0.147 A 
ATOM     25  O   LIG    1       18.402   0.444   9.417  0.00  0.00    -0.451 OA
ATOM     26  O   LIG    1       19.616  -1.974  12.464  0.00  0.00    -0.283 OA
ATOM     27  C   LIG    1       19.494   0.769  10.207  0.00  0.00    +0.181 A 
BRANCH  27  28
ATOM     28  C   LIG    1       20.117   2.049   9.828  0.00  0.00    +0.025 A 
ATOM     29  C   LIG    1       19.522   3.253  10.204  0.00  0.00    +0.015 A 
ATOM     30  C   LIG    1       20.111   4.465   9.845  0.00  0.00    +0.050 A 
ATOM     31  C   LIG    1       21.297   4.474   9.110  0.00  0.00    +0.158 A 
ATOM     32  C   LIG    1       21.893   3.271   8.734  0.00  0.00    +0.159 A 
ATOM     37  C   LIG    1       21.303   2.058   9.093  0.00  0.00    +0.060 A 
BRANCH  32  33
ATOM     33  O   LIG    1       23.051   3.266   8.017  0.00  0.00    -0.503 OA
ATOM     34  H   LIG    1       23.203   2.381   7.648  0.00  0.00    +0.292 HD
ENDBRANCH  32  33
BRANCH  31  35
ATOM     35  O   LIG    1       21.862   5.663   8.764  0.00  0.00    -0.503 OA
ATOM     36  H   LIG    1       21.222   6.199   8.270  0.00  0.00    +0.292 HD
ENDBRANCH  31  35
ENDBRANCH  27  28
BRANCH  18  20
ATOM     20  O   LIG    1       14.866  -2.506   8.267  0.00  0.00    -0.507 OA
ATOM     21  H   LIG    1       14.376  -1.689   8.075  0.00  0.00    +0.292 HD
ENDBRANCH  18  20
BRANCH  16  22
ATOM     22  O   LIG    1       17.700  -3.661  11.898  0.00  0.00    -0.506 OA
ATOM     23  H   LIG    1       17.525  -3.255  12.764  0.00  0.00    +0.292 HD
ENDBRANCH  16  22
ENDBRANCH  12  13
ENDBRANCH   2  12
BRANCH  38  39
ATOM     39  C   LIG    1       17.648   2.689  14.376  0.00  0.00    +0.197 C 
BRANCH  39  40
ATOM     40  O   LIG    1       16.912   2.085  13.321  0.00  0.00    -0.346 OA
BRANCH  40  41
ATOM     41  C   LIG    1       15.518   2.055  13.609  0.00  0.00    +0.282 C 
ATOM     42  C   LIG    1       14.754   1.510  12.404  0.00  0.00    +0.201 C 
ATOM     43  C   LIG    1       15.019   0.014  12.221  0.00  0.00    +0.179 C 
ATOM     44  C   LIG    1       14.763  -0.749  13.521  0.00  0.00    +0.174 C 
ATOM     45  C   LIG    1       15.534  -0.098  14.677  0.00  0.00    +0.149 C 
ATOM     46  C   LIG    1       15.196  -0.736  16.022  0.00  0.00    +0.041 C 
ATOM     53  O   LIG    1       15.220   1.295  14.784  0.00  0.00    -0.343 OA
BRANCH  44  47
ATOM     47  O   LIG    1       15.196  -2.096  13.337  0.00  0.00    -0.387 OA
ATOM     48  H   LIG    1       15.148  -2.296  12.387  0.00  0.00    +0.210 HD
ENDBRANCH  44  47
BRANCH  43  49
ATOM     49  O   LIG    1       14.176  -0.507  11.196  0.00  0.00    -0.386 OA
ATOM     50  H   LIG    1       14.263   0.070  10.419  0.00  0.00    +0.210 HD
ENDBRANCH  43  49
BRANCH  42  51
ATOM     51  O   LIG    1       13.362   1.733  12.634  0.00  0.00    -0.384 OA
ATOM     52  H   LIG    1       12.861   1.018  12.205  0.00  0.00    +0.210 HD
ENDBRANCH  42  51
ENDBRANCH  40  41
ENDBRANCH  39  40
ENDBRANCH  38  39
TORSDOF 16
ENDMDL
MODEL 8
REMARK VINA RESULT:      -7.8      2.150      6.159
REMARK  Name = 5280805
REMARK                            x       y       z     vdW  Elec       q    Type
REMARK                         _______ _______ _______ _____ _____    ______ ____
ROOT
ATOM      1  O   LIG    1       17.286   1.833  13.549  0.00  0.00    -0.331 OA
ATOM      2  C   LIG    1       18.436   1.685  14.379  0.00  0.00    +0.340 C 
ATOM      3  C   LIG    1       18.026   1.551  15.846  0.00  0.00    +0.214 C 
ATOM      4  C   LIG    1       17.009   0.425  16.037  0.00  0.00    +0.180 C 
ATOM      5  C   LIG    1       15.870   0.529  15.022  0.00  0.00    +0.177 C 
ATOM     38  C   LIG    1       16.421   0.697  13.604  0.00  0.00    +0.179 C 
ENDROOT
BRANCH   5   6
ATOM      6  O   LIG    1       15.077  -0.654  15.082  0.00  0.00    -0.386 OA
ATOM      7  H   LIG    1       14.440  -0.626  14.349  0.00  0.00    +0.210 HD
ENDBRANCH   5   6
BRANCH   4   8
ATOM      8  O   LIG    1       16.442   0.515  17.346  0.00  0.00    -0.386 OA
ATOM      9  H   LIG    1       17.163   0.731  17.962  0.00  0.00    +0.210 HD
ENDBRANCH   4   8
BRANCH   3  10
ATOM     10  O   LIG    1       19.195   1.269  16.614  0.00  0.00    -0.383 OA
ATOM     11  H   LIG    1       19.209   0.316  16.803  0.00  0.00    +0.210 HD
ENDBRANCH   3  10
BRANCH   2  12
ATOM     12  O   LIG    1       19.268   2.838  14.259  0.00  0.00    -0.453 OA
BRANCH  12  13
ATOM     13  C   LIG    1       20.152   2.718  13.209  0.00  0.00    +0.214 A 
ATOM     14  C   LIG    1       19.717   3.192  11.873  0.00  0.00    +0.238 A 
ATOM     15  C   LIG    1       20.699   3.065  10.785  0.00  0.00    +0.109 A 
ATOM     16  C   LIG    1       20.384   3.481   9.488  0.00  0.00    +0.135 A 
ATOM     17  C   LIG    1       21.335   3.352   8.474  0.00  0.00    +0.091 A 
ATOM     18  C   LIG    1       22.590   2.812   8.755  0.00  0.00    +0.124 A 
ATOM     19  C   LIG    1       22.901   2.398  10.050  0.00  0.00    +0.092 A 
ATOM     24  C   LIG    1       21.952   2.526  11.065  0.00  0.00    +0.147 A 
ATOM     25  O   LIG    1       22.315   2.103  12.318  0.00  0.00    -0.451 OA
ATOM     26  O   LIG    1       18.603   3.663  11.687  0.00  0.00    -0.283 OA
ATOM     27  C   LIG    1       21.391   2.207  13.346  0.00  0.00    +0.181 A 
BRANCH  27  28
ATOM     28  C   LIG    1       21.908   1.719  14.636  0.00  0.00    +0.025 A 
ATOM     29  C   LIG    1       22.402   2.623  15.577  0.00  0.00    +0.015 A 
ATOM     30  C   LIG    1       22.891   2.161  16.798  0.00  0.00    +0.050 A 
ATOM     31  C   LIG    1       22.887   0.794  17.079  0.00  0.00    +0.158 A 
ATOM     32  C   LIG    1       22.393  -0.109  16.140  0.00  0.00    +0.159 A 
ATOM     37  C   LIG    1       21.903   0.353  14.918  0.00  0.00    +0.060 A 
BRANCH  32  33
ATOM     33  O   LIG    1       22.382  -1.446  16.403  0.00  0.00    -0.503 OA
ATOM     34  H   LIG    1       22.672  -1.601  17.317  0.00  0.00    +0.292 HD
ENDBRANCH  32  33
BRANCH  31  35
ATOM     35  O   LIG    1       23.369   0.355  18.275  0.00  0.00    -0.503 OA
ATOM     36  H   LIG    1       23.617   1.113  18.827  0.00  0.00    +0.292 HD
ENDBRANCH  31  35
ENDBRANCH  27  28
BRANCH  18  20
ATOM     20  O   LIG    1       23.514   2.688   7.763  0.00  0.00    -0.507 OA
ATOM     21  H   LIG    1       23.902   3.562   7.582  0.00  0.00    +0.292 HD
ENDBRANCH  18  20
BRANCH  16  22
ATOM     22  O   LIG    1       19.174   4.016   9.160  0.00  0.00    -0.506 OA
ATOM     23  H   LIG    1       19.030   3.929   8.202  0.00  0.00    +0.292 HD
ENDBRANCH  16  22
ENDBRANCH  12  13
ENDBRANCH   2  12
BRANCH  38  39
ATOM     39  C   LIG    1       15.306   0.919  12.587  0.00  0.00    +0.197 C 
BRANCH  39  40
ATOM     40  O   LIG    1       15.164  -0.252  11.794  0.00  0.00    -0.346 OA
BRANCH  40  41
ATOM     41  C   LIG    1       16.267  -1.135  11.969  0.00  0.00    +0.282 C 
ATOM     42  C   LIG    1       15.941  -2.495  11.353  0.00  0.00    +0.201 C 
ATOM     43  C   LIG    1       15.910  -2.408   9.826  0.00  0.00    +0.179 C 
ATOM     44  C   LIG    1       17.191  -1.770   9.287  0.00  0.00    +0.174 C 
ATOM     45  C   LIG    1       17.456  -0.437  10.000  0.00  0.00    +0.149 C 
ATOM     46  C   LIG    1       18.800   0.168   9.602  0.00  0.00    +0.041 C 
ATOM     53  O   LIG    1       17.480  -0.610  11.421  0.00  0.00    -0.343 OA
BRANCH  44  47
ATOM     47  O   LIG    1       17.025  -1.556   7.887  0.00  0.00    -0.387 OA
ATOM     48  H   LIG    1       16.073  -1.579   7.693  0.00  0.00    +0.210 HD
ENDBRANCH  44  47
BRANCH  43  49
ATOM     49  O   LIG    1       15.765  -3.713   9.268  0.00  0.00    -0.386 OA
ATOM     50  H   LIG    1       15.173  -4.219   9.849  0.00  0.00    +0.210 HD
ENDBRANCH  43  49
BRANCH  42  51
ATOM     51  O   LIG    1       16.953  -3.414  11.768  0.00  0.00    -0.384 OA
ATOM     52  H   LIG    1       16.553  -4.053  12.382  0.00  0.00    +0.210 HD
ENDBRANCH  42  51
ENDBRANCH  40  41
ENDBRANCH  39  40
ENDBRANCH  38  39
TORSDOF 16
ENDMDL
MODEL 9
REMARK VINA RESULT:      -7.8      1.938      3.672
REMARK  Name = 5280805
REMARK                            x       y       z     vdW  Elec       q    Type
REMARK                         _______ _______ _______ _____ _____    ______ ____
ROOT
ATOM      1  O   LIG    1       20.701   0.474  11.423  0.00  0.00    -0.331 OA
ATOM      2  C   LIG    1       21.446   1.108  10.386  0.00  0.00    +0.340 C 
ATOM      3  C   LIG    1       22.196   2.324  10.930  0.00  0.00    +0.214 C 
ATOM      4  C   LIG    1       23.060   1.951  12.135  0.00  0.00    +0.180 C 
ATOM      5  C   LIG    1       22.265   1.134  13.154  0.00  0.00    +0.177 C 
ATOM     38  C   LIG    1       21.536  -0.025  12.470  0.00  0.00    +0.179 C 
ENDROOT
BRANCH   5   6
ATOM      6  O   LIG    1       23.155   0.615  14.138  0.00  0.00    -0.386 OA
ATOM      7  H   LIG    1       24.045   0.575  13.748  0.00  0.00    +0.210 HD
ENDBRANCH   5   6
BRANCH   4   8
ATOM      8  O   LIG    1       23.513   3.142  12.781  0.00  0.00    -0.386 OA
ATOM      9  H   LIG    1       23.087   3.180  13.655  0.00  0.00    +0.210 HD
ENDBRANCH   4   8
BRANCH   3  10
ATOM     10  O   LIG    1       23.029   2.838   9.891  0.00  0.00    -0.383 OA
ATOM     11  H   LIG    1       22.625   3.657   9.558  0.00  0.00    +0.210 HD
ENDBRANCH   3  10
BRANCH   2  12
ATOM     12  O   LIG    1       20.559   1.559   9.363  0.00  0.00    -0.453 OA
BRANCH  12  13
ATOM     13  C   LIG    1       19.242   1.447   9.748  0.00  0.00    +0.214 A 
ATOM     14  C   LIG    1       18.535   0.177   9.455  0.00  0.00    +0.238 A 
ATOM     15  C   LIG    1       17.136   0.090   9.902  0.00  0.00    +0.109 A 
ATOM     16  C   LIG    1       16.384  -1.065   9.670  0.00  0.00    +0.135 A 
ATOM     17  C   LIG    1       15.059  -1.122  10.108  0.00  0.00    +0.091 A 
ATOM     18  C   LIG    1       14.492  -0.033  10.770  0.00  0.00    +0.124 A 
ATOM     19  C   LIG    1       15.247   1.118  10.999  0.00  0.00    +0.092 A 
ATOM     24  C   LIG    1       16.571   1.177  10.563  0.00  0.00    +0.147 A 
ATOM     25  O   LIG    1       17.262   2.333  10.818  0.00  0.00    -0.451 OA
ATOM     26  O   LIG    1       19.086  -0.749   8.874  0.00  0.00    -0.283 OA
ATOM     27  C   LIG    1       18.577   2.427  10.388  0.00  0.00    +0.181 A 
BRANCH  27  28
ATOM     28  C   LIG    1       19.202   3.717  10.726  0.00  0.00    +0.025 A 
ATOM     29  C   LIG    1       19.676   3.947  12.017  0.00  0.00    +0.015 A 
ATOM     30  C   LIG    1       20.268   5.169  12.336  0.00  0.00    +0.050 A 
ATOM     31  C   LIG    1       20.385   6.162  11.364  0.00  0.00    +0.158 A 
ATOM     32  C   LIG    1       19.911   5.934  10.073  0.00  0.00    +0.159 A 
ATOM     37  C   LIG    1       19.320   4.711   9.754  0.00  0.00    +0.060 A 
BRANCH  32  33
ATOM     33  O   LIG    1       20.021   6.896   9.114  0.00  0.00    -0.503 OA
ATOM     34  H   LIG    1       19.474   6.657   8.348  0.00  0.00    +0.292 HD
ENDBRANCH  32  33
BRANCH  31  35
ATOM     35  O   LIG    1       20.963   7.352  11.688  0.00  0.00    -0.503 OA
ATOM     36  H   LIG    1       21.809   7.443  11.222  0.00  0.00    +0.292 HD
ENDBRANCH  31  35
ENDBRANCH  27  28
BRANCH  18  20
ATOM     20  O   LIG    1       13.200  -0.093  11.195  0.00  0.00    -0.507 OA
ATOM     21  H   LIG    1       12.815  -0.941  10.915  0.00  0.00    +0.292 HD
ENDBRANCH  18  20
BRANCH  16  22
ATOM     22  O   LIG    1       16.888  -2.156   9.030  0.00  0.00    -0.506 OA
ATOM     23  H   LIG    1       17.855  -2.178   9.138  0.00  0.00    +0.292 HD
ENDBRANCH  16  22
ENDBRANCH  12  13
ENDBRANCH   2  12
BRANCH  38  39
ATOM     39  C   LIG    1       20.643  -0.786  13.446  0.00  0.00    +0.197 C 
BRANCH  39  40
ATOM     40  O   LIG    1       19.396  -0.114  13.552  0.00  0.00    -0.346 OA
BRANCH  40  41
ATOM     41  C   LIG    1       19.009   0.056  14.911  0.00  0.00    +0.282 C 
ATOM     42  C   LIG    1       19.155   1.523  15.311  0.00  0.00    +0.201 C 
ATOM     43  C   LIG    1       18.094   2.384  14.623  0.00  0.00    +0.179 C 
ATOM     44  C   LIG    1       16.694   1.811  14.850  0.00  0.00    +0.174 C 
ATOM     45  C   LIG    1       16.663   0.326  14.467  0.00  0.00    +0.149 C 
ATOM     46  C   LIG    1       15.327  -0.327  14.813  0.00  0.00    +0.041 C 
ATOM     53  O   LIG    1       17.678  -0.406  15.161  0.00  0.00    -0.343 OA
BRANCH  44  47
ATOM     47  O   LIG    1       15.777   2.549  14.044  0.00  0.00    -0.387 OA
ATOM     48  H   LIG    1       15.453   3.298  14.572  0.00  0.00    +0.210 HD
ENDBRANCH  44  47
BRANCH  43  49
ATOM     49  O   LIG    1       18.144   3.715  15.131  0.00  0.00    -0.386 OA
ATOM     50  H   LIG    1       17.748   4.302  14.464  0.00  0.00    +0.210 HD
ENDBRANCH  43  49
BRANCH  42  51
ATOM     51  O   LIG    1       19.005   1.605  16.729  0.00  0.00    -0.384 OA
ATOM     52  H   LIG    1       18.873   2.538  16.970  0.00  0.00    +0.210 HD
ENDBRANCH  42  51
ENDBRANCH  40  41
ENDBRANCH  39  40
ENDBRANCH  38  39
TORSDOF 16
ENDMDL
