REMARK VINA RESULT:      -5.4      2.104      5.703
REMARK  Name = 3PE
REMARK  37 active torsions:
REMARK  status: ('A' for Active; 'I' for Inactive)
REMARK    1  A    between atoms: P_1  and  O_3
REMARK    2  A    between atoms: P_1  and  O_5
REMARK    3  A    between atoms: O_3  and  C_9
REMARK    4  A    between atoms: O_5  and  C_7
REMARK    5  A    between atoms: C_7  and  C_8
REMARK    6  A    between atoms: C_9  and  C_10
REMARK    7  A    between atoms: C_10  and  C_11
REMARK    8  A    between atoms: C_10  and  O_31
REMARK    9  A    between atoms: C_11  and  O_12
REMARK   10  A    between atoms: O_12  and  C_14
REMARK   11  A    between atoms: C_14  and  C_15
REMARK   12  A    between atoms: C_15  and  C_16
REMARK   13  A    between atoms: C_16  and  C_17
REMARK   14  A    between atoms: C_17  and  C_18
REMARK   15  A    between atoms: C_18  and  C_19
REMARK   16  A    between atoms: C_19  and  C_20
REMARK   17  A    between atoms: C_20  and  C_21
REMARK   18  A    between atoms: C_21  and  C_22
REMARK   19  A    between atoms: C_22  and  C_23
REMARK   20  A    between atoms: C_23  and  C_24
REMARK   21  A    between atoms: C_24  and  C_25
REMARK   22  A    between atoms: C_25  and  C_26
REMARK   23  A    between atoms: C_26  and  C_27
REMARK   24  A    between atoms: C_27  and  C_28
REMARK   25  A    between atoms: C_28  and  C_29
REMARK   26  A    between atoms: O_31  and  C_33
REMARK   27  A    between atoms: C_33  and  C_34
REMARK   28  A    between atoms: C_34  and  C_35
REMARK   29  A    between atoms: C_35  and  C_36
REMARK   30  A    between atoms: C_36  and  C_37
REMARK   31  A    between atoms: C_37  and  C_38
REMARK   32  A    between atoms: C_38  and  C_39
REMARK   33  A    between atoms: C_39  and  C_40
REMARK   34  A    between atoms: C_40  and  C_41
REMARK   35  A    between atoms: C_41  and  C_42
REMARK   36  A    between atoms: C_42  and  C_43
REMARK   37  A    between atoms: C_43  and  C_44
REMARK                            x       y       z     vdW  Elec       q    Type
REMARK                         _______ _______ _______ _____ _____    ______ ____
ROOT
ATOM      1  C   UNL     1     181.984 176.197 171.016  0.00  0.00    +0.242 C 
ENDROOT
BRANCH   1   2
ATOM      2  C   UNL     1     182.782 177.496 170.955  0.00  0.00    +0.196 C 
BRANCH   2   3
ATOM      3  O   UNL     1     181.914 178.538 170.577  0.00  0.00    -0.310 OA
BRANCH   3   4
ATOM      4  P   UNL     1     181.466 179.667 171.684  0.00  0.00    +0.214 P 
ATOM      5  O   UNL     1     180.113 180.199 171.356  0.00  0.00    -0.517 OA
ATOM      6  O   UNL     1     181.833 179.083 173.005  0.00  0.00    -0.437 OA
BRANCH   4   7
ATOM      7  O   UNL     1     182.492 180.912 171.324  0.00  0.00    -0.312 OA
BRANCH   7   8
ATOM      8  C   UNL     1     183.187 181.554 172.365  0.00  0.00    +0.170 C 
BRANCH   8   9
ATOM      9  C   UNL     1     182.217 182.446 173.108  0.00  0.00    +0.142 C 
ATOM     10  N   UNL     1     182.541 182.526 174.554  0.00  0.00    -0.129 NA
ENDBRANCH   8   9
ENDBRANCH   7   8
ENDBRANCH   4   7
ENDBRANCH   3   4
ENDBRANCH   2   3
ENDBRANCH   1   2
BRANCH   1  11
ATOM     11  C   UNL     1     181.605 175.847 172.439  0.00  0.00    +0.254 C 
BRANCH  11  12
ATOM     12  O   UNL     1     180.185 175.927 172.516  0.00  0.00    -0.444 OA
BRANCH  12  13
ATOM     13  C   UNL     1     179.618 175.975 173.718  0.00  0.00    +0.317 C 
ATOM     14  O   UNL     1     180.206 175.704 174.732  0.00  0.00    -0.250 OA
BRANCH  13  15
ATOM     15  C   UNL     1     178.184 176.412 173.624  0.00  0.00    +0.110 C 
BRANCH  15  16
ATOM     16  C   UNL     1     177.871 177.261 172.405  0.00  0.00    +0.012 C 
BRANCH  16  17
ATOM     17  C   UNL     1     176.377 177.274 172.116  0.00  0.00    +0.001 C 
BRANCH  17  18
ATOM     18  C   UNL     1     175.882 176.004 171.438  0.00  0.00    +0.000 C 
BRANCH  18  19
ATOM     19  C   UNL     1     176.683 175.633 170.199  0.00  0.00    +0.000 C 
BRANCH  19  20
ATOM     20  C   UNL     1     177.394 174.293 170.327  0.00  0.00    +0.000 C 
BRANCH  20  21
ATOM     21  C   UNL     1     177.201 173.396 169.113  0.00  0.00    +0.000 C 
BRANCH  21  22
ATOM     22  C   UNL     1     175.784 172.862 168.967  0.00  0.00    +0.000 C 
BRANCH  22  23
ATOM     23  C   UNL     1     175.380 171.929 170.101  0.00  0.00    +0.000 C 
BRANCH  23  24
ATOM     24  C   UNL     1     174.019 172.260 170.698  0.00  0.00    +0.000 C 
BRANCH  24  25
ATOM     25  C   UNL     1     174.115 173.070 171.984  0.00  0.00    +0.000 C 
BRANCH  25  26
ATOM     26  C   UNL     1     174.837 172.352 173.114  0.00  0.00    +0.000 C 
BRANCH  26  27
ATOM     27  C   UNL     1     176.200 172.954 173.420  0.00  0.00    +0.000 C 
BRANCH  27  28
ATOM     28  C   UNL     1     177.348 171.976 173.216  0.00  0.00    +0.000 C 
BRANCH  28  29
ATOM     29  C   UNL     1     178.719 172.630 173.316  0.00  0.00    +0.000 C 
ATOM     30  C   UNL     1     179.818 171.667 173.750  0.00  0.00    +0.000 C 
ENDBRANCH  28  29
ENDBRANCH  27  28
ENDBRANCH  26  27
ENDBRANCH  25  26
ENDBRANCH  24  25
ENDBRANCH  23  24
ENDBRANCH  22  23
ENDBRANCH  21  22
ENDBRANCH  20  21
ENDBRANCH  19  20
ENDBRANCH  18  19
ENDBRANCH  17  18
ENDBRANCH  16  17
ENDBRANCH  15  16
ENDBRANCH  13  15
ENDBRANCH  12  13
ENDBRANCH  11  12
ENDBRANCH   1  11
BRANCH   1  31
ATOM     31  O   UNL     1     180.729 176.243 170.319  0.00  0.00    -0.446 OA
BRANCH  31  32
ATOM     32  C   UNL     1     180.559 175.764 169.104  0.00  0.00    +0.317 C 
ATOM     33  O   UNL     1     181.120 174.769 168.699  0.00  0.00    -0.250 OA
BRANCH  32  34
ATOM     34  C   UNL     1     179.587 176.590 168.308  0.00  0.00    +0.110 C 
BRANCH  34  35
ATOM     35  C   UNL     1     179.343 177.987 168.853  0.00  0.00    +0.012 C 
BRANCH  35  36
ATOM     36  C   UNL     1     178.074 178.594 168.273  0.00  0.00    +0.001 C 
BRANCH  36  37
ATOM     37  C   UNL     1     177.322 179.469 169.267  0.00  0.00    +0.000 C 
BRANCH  37  38
ATOM     38  C   UNL     1     175.811 179.324 169.145  0.00  0.00    +0.000 C 
BRANCH  38  39
ATOM     39  C   UNL     1     175.378 178.145 168.285  0.00  0.00    +0.000 C 
BRANCH  39  40
ATOM     40  C   UNL     1     173.877 177.887 168.319  0.00  0.00    +0.000 C 
BRANCH  40  41
ATOM     41  C   UNL     1     173.468 176.616 167.586  0.00  0.00    +0.000 C 
BRANCH  41  42
ATOM     42  C   UNL     1     173.171 175.450 168.521  0.00  0.00    +0.000 C 
BRANCH  42  43
ATOM     43  C   UNL     1     171.769 175.482 169.115  0.00  0.00    +0.000 C 
BRANCH  43  44
ATOM     44  C   UNL     1     171.753 175.887 170.584  0.00  0.00    +0.000 C 
ATOM     45  C   UNL     1     170.352 175.984 171.176  0.00  0.00    +0.000 C 
ENDBRANCH  43  44
ENDBRANCH  42  43
ENDBRANCH  41  42
ENDBRANCH  40  41
ENDBRANCH  39  40
ENDBRANCH  38  39
ENDBRANCH  37  38
ENDBRANCH  36  37
ENDBRANCH  35  36
ENDBRANCH  34  35
ENDBRANCH  32  34
ENDBRANCH  31  32
ENDBRANCH   1  31
TORSDOF 37
