MODEL 1
REMARK VINA RESULT:     -10.3      0.000      0.000
REMARK  12 active torsions:
REMARK  status: ('A' for Active; 'I' for Inactive)
REMARK    1  A    between atoms: O_1  and  C_10 
REMARK    2  A    between atoms: O_2  and  C_17 
REMARK    3  A    between atoms: O_3  and  C_20 
REMARK    4  A    between atoms: O_4  and  C_27 
REMARK    5  A    between atoms: O_6  and  C_29 
REMARK    6  A    between atoms: O_7  and  C_28 
REMARK    7  A    between atoms: O_8  and  C_33 
REMARK    8  A    between atoms: C_11  and  C_20 
REMARK    9  A    between atoms: C_20  and  C_28 
REMARK   10  A    between atoms: C_28  and  C_31 
REMARK   11  A    between atoms: C_31  and  C_32 
REMARK   12  A    between atoms: C_32  and  C_33 
ROOT
HETATM    1  O   UNK     0      17.816  37.617  29.070  0.00  0.00    -0.384 OA
HETATM    2  H   UNK     0      17.256  37.434  29.838  0.00  0.00     0.211 HD
ENDROOT
BRANCH   1   3
HETATM    3  C   UNK     0      17.024  37.779  27.871  0.00  0.00     0.090 C 
HETATM    4  C   UNK     0      17.595  38.947  27.026  0.00  0.00    -0.000 C 
HETATM    5  C   UNK     0      17.353  40.143  27.984  0.00  0.00     0.034 C 
HETATM    6  C   UNK     0      19.076  38.665  26.739  0.00  0.00     0.045 C 
HETATM    7  C   UNK     0      16.836  39.153  25.685  0.00  0.00     0.019 C 
HETATM    8  C   UNK     0      15.965  39.847  28.598  0.00  0.00     0.012 C 
HETATM    9  C   UNK     0      15.680  38.350  28.344  0.00  0.00     0.044 C 
HETATM   10  C   UNK     0      19.263  37.323  26.001  0.00  0.00     0.128 C 
HETATM   11  C   UNK     0      18.564  36.095  26.692  0.00  0.00     0.055 C 
HETATM   12  C   UNK     0      18.654  34.745  25.851  0.00  0.00    -0.021 C 
HETATM   13  C   UNK     0      17.130  36.464  27.127  0.00  0.00    -0.034 C 
HETATM   14  C   UNK     0      17.597  33.722  26.359  0.00  0.00     0.071 C 
HETATM   15  C   UNK     0      20.090  34.108  25.937  0.00  0.00     0.045 C 
HETATM   16  C   UNK     0      18.359  35.015  24.349  0.00  0.00     0.017 C 
HETATM   17  C   UNK     0      17.879  33.120  27.748  0.00  0.00     0.047 C 
HETATM   18  C   UNK     0      16.209  34.329  26.366  0.00  0.00     0.154 C 
HETATM   19  C   UNK     0      19.363  33.014  28.082  0.00  0.00     0.147 C 
HETATM   20  C   UNK     0      20.218  32.870  26.830  0.00  0.00     0.147 C 
HETATM   21  O   UNK     0      15.219  33.697  26.003  0.00  0.00    -0.293 OA
HETATM   22  C   UNK     0      16.056  35.688  26.920  0.00  0.00     0.057 C 
BRANCH   5  23
HETATM   23  C   UNK     0      17.445  41.534  27.373  0.00  0.00     0.084 C 
HETATM   24  C   UNK     0      18.694  41.630  26.481  0.00  0.00     0.049 C 
BRANCH  23  25
HETATM   25  O   UNK     0      16.302  41.736  26.532  0.00  0.00    -0.387 OA
HETATM   26  H   UNK     0      15.621  42.212  27.035  0.00  0.00     0.210 HD
ENDBRANCH  23  25
BRANCH  23  27
HETATM   27  C   UNK     0      17.455  42.650  28.452  0.00  0.00     0.152 C 
BRANCH  27  28
HETATM   28  O   UNK     0      17.638  42.064  29.746  0.00  0.00    -0.393 OA
HETATM   29  H   UNK     0      17.565  42.779  30.401  0.00  0.00     0.210 HD
ENDBRANCH  27  28
BRANCH  27  30
HETATM   30  C   UNK     0      16.177  43.509  28.486  0.00  0.00     0.037 C 
BRANCH  30  31
HETATM   31  C   UNK     0      16.381  44.875  27.806  0.00  0.00     0.040 C 
BRANCH  31  32
HETATM   32  C   UNK     0      15.721  46.061  28.540  0.00  0.00     0.051 C 
HETATM   33  C   UNK     0      15.274  47.113  27.519  0.00  0.00     0.045 C 
HETATM   34  C   UNK     0      14.528  45.629  29.399  0.00  0.00     0.045 C 
BRANCH  32  35
HETATM   35  O   UNK     0      16.697  46.663  29.392  0.00  0.00    -0.391 OA
HETATM   36  H   UNK     0      16.330  46.723  30.291  0.00  0.00     0.210 HD
ENDBRANCH  32  35
ENDBRANCH  31  32
ENDBRANCH  30  31
ENDBRANCH  27  30
ENDBRANCH  23  27
ENDBRANCH   5  23
BRANCH  10  37
HETATM   37  O   UNK     0      20.665  37.101  25.883  0.00  0.00    -0.395 OA
HETATM   38  H   UNK     0      21.081  37.385  26.714  0.00  0.00     0.210 HD
ENDBRANCH  10  37
BRANCH  19  39
HETATM   39  O   UNK     0      19.560  31.901  28.948  0.00  0.00    -0.393 OA
HETATM   40  H   UNK     0      18.791  31.835  29.539  0.00  0.00     0.210 HD
ENDBRANCH  19  39
BRANCH  20  41
HETATM   41  O   UNK     0      19.821  31.717  26.087  0.00  0.00    -0.393 OA
HETATM   42  H   UNK     0      19.346  31.125  26.693  0.00  0.00     0.210 HD
ENDBRANCH  20  41
ENDBRANCH   1   3
TORSDOF 12
ENDMDL
MODEL 2
REMARK VINA RESULT:     -10.0     15.223     22.343
REMARK  12 active torsions:
REMARK  status: ('A' for Active; 'I' for Inactive)
REMARK    1  A    between atoms: O_1  and  C_10 
REMARK    2  A    between atoms: O_2  and  C_17 
REMARK    3  A    between atoms: O_3  and  C_20 
REMARK    4  A    between atoms: O_4  and  C_27 
REMARK    5  A    between atoms: O_6  and  C_29 
REMARK    6  A    between atoms: O_7  and  C_28 
REMARK    7  A    between atoms: O_8  and  C_33 
REMARK    8  A    between atoms: C_11  and  C_20 
REMARK    9  A    between atoms: C_20  and  C_28 
REMARK   10  A    between atoms: C_28  and  C_31 
REMARK   11  A    between atoms: C_31  and  C_32 
REMARK   12  A    between atoms: C_32  and  C_33 
ROOT
HETATM    1  O   UNK     0      26.129  20.145  25.650  0.00  0.00    -0.384 OA
HETATM    2  H   UNK     0      25.921  20.936  26.166  0.00  0.00     0.211 HD
ENDROOT
BRANCH   1   3
HETATM    3  C   UNK     0      27.043  20.449  24.571  0.00  0.00     0.090 C 
HETATM    4  C   UNK     0      26.472  19.903  23.237  0.00  0.00    -0.000 C 
HETATM    5  C   UNK     0      26.480  18.378  23.521  0.00  0.00     0.034 C 
HETATM    6  C   UNK     0      25.071  20.492  23.027  0.00  0.00     0.045 C 
HETATM    7  C   UNK     0      27.366  20.240  22.011  0.00  0.00     0.019 C 
HETATM    8  C   UNK     0      27.804  18.154  24.288  0.00  0.00     0.012 C 
HETATM    9  C   UNK     0      28.259  19.540  24.798  0.00  0.00     0.044 C 
HETATM   10  C   UNK     0      25.103  22.034  23.009  0.00  0.00     0.128 C 
HETATM   11  C   UNK     0      25.826  22.687  24.245  0.00  0.00     0.055 C 
HETATM   12  C   UNK     0      25.968  24.270  24.146  0.00  0.00    -0.021 C 
HETATM   13  C   UNK     0      27.155  21.960  24.539  0.00  0.00    -0.034 C 
HETATM   14  C   UNK     0      27.047  24.779  25.146  0.00  0.00     0.071 C 
HETATM   15  C   UNK     0      24.599  24.991  24.434  0.00  0.00     0.045 C 
HETATM   16  C   UNK     0      26.418  24.692  22.719  0.00  0.00     0.017 C 
HETATM   17  C   UNK     0      26.655  24.698  26.632  0.00  0.00     0.047 C 
HETATM   18  C   UNK     0      28.359  24.049  24.949  0.00  0.00     0.154 C 
HETATM   19  C   UNK     0      25.158  24.845  26.882  0.00  0.00     0.147 C 
HETATM   20  C   UNK     0      24.480  25.674  25.800  0.00  0.00     0.147 C 
HETATM   21  O   UNK     0      29.442  24.629  24.995  0.00  0.00    -0.293 OA
HETATM   22  C   UNK     0      28.314  22.582  24.796  0.00  0.00     0.057 C 
BRANCH   5  23
HETATM   23  C   UNK     0      26.332  17.460  22.316  0.00  0.00     0.084 C 
HETATM   24  C   UNK     0      24.897  16.912  22.251  0.00  0.00     0.049 C 
BRANCH  23  25
HETATM   25  O   UNK     0      26.550  18.233  21.128  0.00  0.00    -0.387 OA
HETATM   26  H   UNK     0      25.936  17.931  20.438  0.00  0.00     0.210 HD
ENDBRANCH  23  25
BRANCH  23  27
HETATM   27  C   UNK     0      27.362  16.298  22.333  0.00  0.00     0.152 C 
BRANCH  27  28
HETATM   28  O   UNK     0      27.229  15.521  21.137  0.00  0.00    -0.393 OA
HETATM   29  H   UNK     0      27.445  14.601  21.363  0.00  0.00     0.210 HD
ENDBRANCH  27  28
BRANCH  27  30
HETATM   30  C   UNK     0      27.230  15.353  23.542  0.00  0.00     0.037 C 
BRANCH  30  31
HETATM   31  C   UNK     0      28.555  14.637  23.864  0.00  0.00     0.040 C 
BRANCH  31  32
HETATM   32  C   UNK     0      28.768  14.328  25.360  0.00  0.00     0.051 C 
HETATM   33  C   UNK     0      30.134  14.862  25.805  0.00  0.00     0.045 C 
HETATM   34  C   UNK     0      27.666  14.917  26.244  0.00  0.00     0.045 C 
BRANCH  32  35
HETATM   35  O   UNK     0      28.775  12.909  25.531  0.00  0.00    -0.391 OA
HETATM   36  H   UNK     0      28.489  12.496  24.699  0.00  0.00     0.210 HD
ENDBRANCH  32  35
ENDBRANCH  31  32
ENDBRANCH  30  31
ENDBRANCH  27  30
ENDBRANCH  23  27
ENDBRANCH   5  23
BRANCH  10  37
HETATM   37  O   UNK     0      23.753  22.482  22.923  0.00  0.00    -0.395 OA
HETATM   38  H   UNK     0      23.359  22.404  23.808  0.00  0.00     0.210 HD
ENDBRANCH  10  37
BRANCH  19  39
HETATM   39  O   UNK     0      24.964  25.442  28.161  0.00  0.00    -0.393 OA
HETATM   40  H   UNK     0      24.152  25.075  28.549  0.00  0.00     0.210 HD
ENDBRANCH  19  39
BRANCH  20  41
HETATM   41  O   UNK     0      25.073  26.972  25.724  0.00  0.00    -0.393 OA
HETATM   42  H   UNK     0      25.751  27.027  26.417  0.00  0.00     0.210 HD
ENDBRANCH  20  41
ENDBRANCH   1   3
TORSDOF 12
ENDMDL
MODEL 3
REMARK VINA RESULT:      -9.9     15.426     21.383
REMARK  12 active torsions:
REMARK  status: ('A' for Active; 'I' for Inactive)
REMARK    1  A    between atoms: O_1  and  C_10 
REMARK    2  A    between atoms: O_2  and  C_17 
REMARK    3  A    between atoms: O_3  and  C_20 
REMARK    4  A    between atoms: O_4  and  C_27 
REMARK    5  A    between atoms: O_6  and  C_29 
REMARK    6  A    between atoms: O_7  and  C_28 
REMARK    7  A    between atoms: O_8  and  C_33 
REMARK    8  A    between atoms: C_11  and  C_20 
REMARK    9  A    between atoms: C_20  and  C_28 
REMARK   10  A    between atoms: C_28  and  C_31 
REMARK   11  A    between atoms: C_31  and  C_32 
REMARK   12  A    between atoms: C_32  and  C_33 
ROOT
HETATM    1  O   UNK     0      25.529  18.166  24.724  0.00  0.00    -0.384 OA
HETATM    2  H   UNK     0      25.340  18.117  25.672  0.00  0.00     0.211 HD
ENDROOT
BRANCH   1   3
HETATM    3  C   UNK     0      26.896  18.570  24.484  0.00  0.00     0.090 C 
HETATM    4  C   UNK     0      27.088  20.044  24.926  0.00  0.00    -0.000 C 
HETATM    5  C   UNK     0      26.141  20.770  23.935  0.00  0.00     0.034 C 
HETATM    6  C   UNK     0      26.669  20.171  26.398  0.00  0.00     0.045 C 
HETATM    7  C   UNK     0      28.550  20.544  24.758  0.00  0.00     0.019 C 
HETATM    8  C   UNK     0      26.360  20.018  22.601  0.00  0.00     0.012 C 
HETATM    9  C   UNK     0      27.030  18.673  22.958  0.00  0.00     0.044 C 
HETATM   10  C   UNK     0      27.487  19.226  27.301  0.00  0.00     0.128 C 
HETATM   11  C   UNK     0      27.502  17.723  26.832  0.00  0.00     0.055 C 
HETATM   12  C   UNK     0      28.456  16.787  27.697  0.00  0.00    -0.021 C 
HETATM   13  C   UNK     0      27.754  17.636  25.312  0.00  0.00    -0.034 C 
HETATM   14  C   UNK     0      28.757  15.467  26.930  0.00  0.00     0.071 C 
HETATM   15  C   UNK     0      27.819  16.452  29.096  0.00  0.00     0.045 C 
HETATM   16  C   UNK     0      29.815  17.491  27.968  0.00  0.00     0.017 C 
HETATM   17  C   UNK     0      27.570  14.495  26.805  0.00  0.00     0.047 C 
HETATM   18  C   UNK     0      29.298  15.753  25.545  0.00  0.00     0.154 C 
HETATM   19  C   UNK     0      26.586  14.572  27.968  0.00  0.00     0.147 C 
HETATM   20  C   UNK     0      27.261  15.034  29.252  0.00  0.00     0.147 C 
HETATM   21  O   UNK     0      30.221  15.103  25.058  0.00  0.00    -0.293 OA
HETATM   22  C   UNK     0      28.616  16.784  24.739  0.00  0.00     0.057 C 
BRANCH   5  23
HETATM   23  C   UNK     0      26.320  22.276  23.801  0.00  0.00     0.084 C 
HETATM   24  C   UNK     0      27.393  22.763  24.789  0.00  0.00     0.049 C 
BRANCH  23  25
HETATM   25  O   UNK     0      26.794  22.560  22.478  0.00  0.00    -0.387 OA
HETATM   26  H   UNK     0      27.753  22.408  22.448  0.00  0.00     0.210 HD
ENDBRANCH  23  25
BRANCH  23  27
HETATM   27  C   UNK     0      24.989  23.046  24.014  0.00  0.00     0.152 C 
BRANCH  27  28
HETATM   28  O   UNK     0      24.028  22.622  23.041  0.00  0.00    -0.393 OA
HETATM   29  H   UNK     0      23.148  22.712  23.443  0.00  0.00     0.210 HD
ENDBRANCH  27  28
BRANCH  27  30
HETATM   30  C   UNK     0      25.123  24.579  23.927  0.00  0.00     0.037 C 
BRANCH  30  31
HETATM   31  C   UNK     0      24.145  25.299  24.871  0.00  0.00     0.040 C 
BRANCH  31  32
HETATM   32  C   UNK     0      24.820  26.092  26.010  0.00  0.00     0.051 C 
HETATM   33  C   UNK     0      23.865  27.177  26.517  0.00  0.00     0.045 C 
HETATM   34  C   UNK     0      25.253  25.195  27.173  0.00  0.00     0.045 C 
BRANCH  32  35
HETATM   35  O   UNK     0      25.980  26.739  25.482  0.00  0.00    -0.391 OA
HETATM   36  H   UNK     0      25.870  26.838  24.522  0.00  0.00     0.210 HD
ENDBRANCH  32  35
ENDBRANCH  31  32
ENDBRANCH  30  31
ENDBRANCH  27  30
ENDBRANCH  23  27
ENDBRANCH   5  23
BRANCH  10  37
HETATM   37  O   UNK     0      26.951  19.334  28.617  0.00  0.00    -0.395 OA
HETATM   38  H   UNK     0      26.135  19.860  28.562  0.00  0.00     0.210 HD
ENDBRANCH  10  37
BRANCH  19  39
HETATM   39  O   UNK     0      25.992  13.291  28.151  0.00  0.00    -0.393 OA
HETATM   40  H   UNK     0      26.271  12.718  27.417  0.00  0.00     0.210 HD
ENDBRANCH  19  39
BRANCH  20  41
HETATM   41  O   UNK     0      28.328  14.149  29.599  0.00  0.00    -0.393 OA
HETATM   42  H   UNK     0      27.951  13.260  29.702  0.00  0.00     0.210 HD
ENDBRANCH  20  41
ENDBRANCH   1   3
TORSDOF 12
ENDMDL
MODEL 4
REMARK VINA RESULT:      -9.7      2.968      9.044
REMARK  12 active torsions:
REMARK  status: ('A' for Active; 'I' for Inactive)
REMARK    1  A    between atoms: O_1  and  C_10 
REMARK    2  A    between atoms: O_2  and  C_17 
REMARK    3  A    between atoms: O_3  and  C_20 
REMARK    4  A    between atoms: O_4  and  C_27 
REMARK    5  A    between atoms: O_6  and  C_29 
REMARK    6  A    between atoms: O_7  and  C_28 
REMARK    7  A    between atoms: O_8  and  C_33 
REMARK    8  A    between atoms: C_11  and  C_20 
REMARK    9  A    between atoms: C_20  and  C_28 
REMARK   10  A    between atoms: C_28  and  C_31 
REMARK   11  A    between atoms: C_31  and  C_32 
REMARK   12  A    between atoms: C_32  and  C_33 
ROOT
HETATM    1  O   UNK     0      18.424  40.477  29.232  0.00  0.00    -0.384 OA
HETATM    2  H   UNK     0      18.334  41.303  29.728  0.00  0.00     0.211 HD
ENDROOT
BRANCH   1   3
HETATM    3  C   UNK     0      17.139  39.999  28.773  0.00  0.00     0.090 C 
HETATM    4  C   UNK     0      17.164  38.452  28.675  0.00  0.00    -0.000 C 
HETATM    5  C   UNK     0      18.230  38.250  27.566  0.00  0.00     0.034 C 
HETATM    6  C   UNK     0      17.569  37.883  30.041  0.00  0.00     0.045 C 
HETATM    7  C   UNK     0      15.799  37.848  28.244  0.00  0.00     0.019 C 
HETATM    8  C   UNK     0      17.927  39.379  26.554  0.00  0.00     0.012 C 
HETATM    9  C   UNK     0      17.053  40.414  27.297  0.00  0.00     0.044 C 
HETATM   10  C   UNK     0      16.599  38.337  31.152  0.00  0.00     0.128 C 
HETATM   11  C   UNK     0      16.366  39.892  31.219  0.00  0.00     0.055 C 
HETATM   12  C   UNK     0      15.264  40.332  32.281  0.00  0.00    -0.021 C 
HETATM   13  C   UNK     0      16.133  40.465  29.805  0.00  0.00    -0.034 C 
HETATM   14  C   UNK     0      14.781  41.782  31.987  0.00  0.00     0.071 C 
HETATM   15  C   UNK     0      15.814  40.246  33.752  0.00  0.00     0.045 C 
HETATM   16  C   UNK     0      14.022  39.401  32.200  0.00  0.00     0.017 C 
HETATM   17  C   UNK     0      15.809  42.889  32.284  0.00  0.00     0.047 C 
HETATM   18  C   UNK     0      14.316  41.922  30.553  0.00  0.00     0.154 C 
HETATM   19  C   UNK     0      16.769  42.549  33.418  0.00  0.00     0.147 C 
HETATM   20  C   UNK     0      16.147  41.585  34.419  0.00  0.00     0.147 C 
HETATM   21  O   UNK     0      13.315  42.568  30.251  0.00  0.00    -0.293 OA
HETATM   22  C   UNK     0      15.163  41.336  29.495  0.00  0.00     0.057 C 
BRANCH   5  23
HETATM   23  C   UNK     0      18.285  36.874  26.917  0.00  0.00     0.084 C 
HETATM   24  C   UNK     0      17.724  36.948  25.488  0.00  0.00     0.049 C 
BRANCH  23  25
HETATM   25  O   UNK     0      19.658  36.474  26.818  0.00  0.00    -0.387 OA
HETATM   26  H   UNK     0      20.185  37.231  26.513  0.00  0.00     0.210 HD
ENDBRANCH  23  25
BRANCH  23  27
HETATM   27  C   UNK     0      17.528  35.802  27.748  0.00  0.00     0.152 C 
BRANCH  27  28
HETATM   28  O   UNK     0      18.450  35.120  28.605  0.00  0.00    -0.393 OA
HETATM   29  H   UNK     0      19.192  35.725  28.774  0.00  0.00     0.210 HD
ENDBRANCH  27  28
BRANCH  27  30
HETATM   30  C   UNK     0      16.787  34.751  26.900  0.00  0.00     0.037 C 
BRANCH  30  31
HETATM   31  C   UNK     0      17.338  33.332  27.128  0.00  0.00     0.040 C 
BRANCH  31  32
HETATM   32  C   UNK     0      17.952  32.674  25.874  0.00  0.00     0.051 C 
HETATM   33  C   UNK     0      17.006  32.859  24.683  0.00  0.00     0.045 C 
HETATM   34  C   UNK     0      19.334  33.237  25.534  0.00  0.00     0.045 C 
BRANCH  32  35
HETATM   35  O   UNK     0      18.082  31.272  26.119  0.00  0.00    -0.391 OA
HETATM   36  H   UNK     0      17.671  30.789  25.382  0.00  0.00     0.210 HD
ENDBRANCH  32  35
ENDBRANCH  31  32
ENDBRANCH  30  31
ENDBRANCH  27  30
ENDBRANCH  23  27
ENDBRANCH   5  23
BRANCH  10  37
HETATM   37  O   UNK     0      17.119  37.854  32.387  0.00  0.00    -0.395 OA
HETATM   38  H   UNK     0      16.669  37.016  32.590  0.00  0.00     0.210 HD
ENDBRANCH  10  37
BRANCH  19  39
HETATM   39  O   UNK     0      17.159  43.756  34.066  0.00  0.00    -0.393 OA
HETATM   40  H   UNK     0      17.391  44.408  33.384  0.00  0.00     0.210 HD
ENDBRANCH  19  39
BRANCH  20  41
HETATM   41  O   UNK     0      14.951  42.141  34.968  0.00  0.00    -0.393 OA
HETATM   42  H   UNK     0      14.205  41.603  34.653  0.00  0.00     0.210 HD
ENDBRANCH  20  41
ENDBRANCH   1   3
TORSDOF 12
ENDMDL
MODEL 5
REMARK VINA RESULT:      -9.5     16.136     22.130
REMARK  12 active torsions:
REMARK  status: ('A' for Active; 'I' for Inactive)
REMARK    1  A    between atoms: O_1  and  C_10 
REMARK    2  A    between atoms: O_2  and  C_17 
REMARK    3  A    between atoms: O_3  and  C_20 
REMARK    4  A    between atoms: O_4  and  C_27 
REMARK    5  A    between atoms: O_6  and  C_29 
REMARK    6  A    between atoms: O_7  and  C_28 
REMARK    7  A    between atoms: O_8  and  C_33 
REMARK    8  A    between atoms: C_11  and  C_20 
REMARK    9  A    between atoms: C_20  and  C_28 
REMARK   10  A    between atoms: C_28  and  C_31 
REMARK   11  A    between atoms: C_31  and  C_32 
REMARK   12  A    between atoms: C_32  and  C_33 
ROOT
HETATM    1  O   UNK     0      25.956  17.224  24.816  0.00  0.00    -0.384 OA
HETATM    2  H   UNK     0      26.005  16.280  24.607  0.00  0.00     0.211 HD
ENDROOT
BRANCH   1   3
HETATM    3  C   UNK     0      27.243  17.863  24.653  0.00  0.00     0.090 C 
HETATM    4  C   UNK     0      27.140  19.353  25.069  0.00  0.00    -0.000 C 
HETATM    5  C   UNK     0      26.148  19.883  24.000  0.00  0.00     0.034 C 
HETATM    6  C   UNK     0      26.606  19.424  26.506  0.00  0.00     0.045 C 
HETATM    7  C   UNK     0      28.497  20.104  24.982  0.00  0.00     0.019 C 
HETATM    8  C   UNK     0      26.586  19.164  22.703  0.00  0.00     0.012 C 
HETATM    9  C   UNK     0      27.459  17.965  23.137  0.00  0.00     0.044 C 
HETATM   10  C   UNK     0      27.515  18.653  27.485  0.00  0.00     0.128 C 
HETATM   11  C   UNK     0      27.828  17.171  27.057  0.00  0.00     0.055 C 
HETATM   12  C   UNK     0      28.872  16.433  28.006  0.00  0.00    -0.021 C 
HETATM   13  C   UNK     0      28.195  17.108  25.559  0.00  0.00    -0.034 C 
HETATM   14  C   UNK     0      29.455  15.177  27.294  0.00  0.00     0.071 C 
HETATM   15  C   UNK     0      28.212  16.009  29.370  0.00  0.00     0.045 C 
HETATM   16  C   UNK     0      30.064  17.373  28.345  0.00  0.00     0.017 C 
HETATM   17  C   UNK     0      28.470  14.007  27.118  0.00  0.00     0.047 C 
HETATM   18  C   UNK     0      30.030  15.536  25.940  0.00  0.00     0.154 C 
HETATM   19  C   UNK     0      27.412  13.924  28.213  0.00  0.00     0.147 C 
HETATM   20  C   UNK     0      27.905  14.516  29.526  0.00  0.00     0.147 C 
HETATM   21  O   UNK     0      31.084  15.055  25.531  0.00  0.00    -0.293 OA
HETATM   22  C   UNK     0      29.231  16.417  25.065  0.00  0.00     0.057 C 
BRANCH   5  23
HETATM   23  C   UNK     0      26.065  21.395  23.839  0.00  0.00     0.084 C 
HETATM   24  C   UNK     0      26.869  21.832  22.604  0.00  0.00     0.049 C 
BRANCH  23  25
HETATM   25  O   UNK     0      24.696  21.751  23.608  0.00  0.00    -0.387 OA
HETATM   26  H   UNK     0      24.148  20.951  23.666  0.00  0.00     0.210 HD
ENDBRANCH  23  25
BRANCH  23  27
HETATM   27  C   UNK     0      26.554  22.148  25.106  0.00  0.00     0.152 C 
BRANCH  27  28
HETATM   28  O   UNK     0      25.426  22.553  25.888  0.00  0.00    -0.393 OA
HETATM   29  H   UNK     0      24.626  22.319  25.388  0.00  0.00     0.210 HD
ENDBRANCH  27  28
BRANCH  27  30
HETATM   30  C   UNK     0      27.411  23.394  24.810  0.00  0.00     0.037 C 
BRANCH  30  31
HETATM   31  C   UNK     0      26.990  24.601  25.668  0.00  0.00     0.040 C 
BRANCH  31  32
HETATM   32  C   UNK     0      26.379  25.772  24.869  0.00  0.00     0.051 C 
HETATM   33  C   UNK     0      26.546  25.513  23.368  0.00  0.00     0.045 C 
HETATM   34  C   UNK     0      24.901  25.998  25.197  0.00  0.00     0.045 C 
BRANCH  32  35
HETATM   35  O   UNK     0      27.101  26.963  25.192  0.00  0.00    -0.391 OA
HETATM   36  H   UNK     0      27.769  26.748  25.864  0.00  0.00     0.210 HD
ENDBRANCH  32  35
ENDBRANCH  31  32
ENDBRANCH  30  31
ENDBRANCH  27  30
ENDBRANCH  23  27
ENDBRANCH   5  23
BRANCH  10  37
HETATM   37  O   UNK     0      26.881  18.683  28.760  0.00  0.00    -0.395 OA
HETATM   38  H   UNK     0      27.039  17.824  29.190  0.00  0.00     0.210 HD
ENDBRANCH  10  37
BRANCH  19  39
HETATM   39  O   UNK     0      27.044  12.559  28.391  0.00  0.00    -0.393 OA
HETATM   40  H   UNK     0      26.143  12.439  28.046  0.00  0.00     0.210 HD
ENDBRANCH  19  39
BRANCH  20  41
HETATM   41  O   UNK     0      29.087  13.842  29.963  0.00  0.00    -0.393 OA
HETATM   42  H   UNK     0      29.592  14.463  30.515  0.00  0.00     0.210 HD
ENDBRANCH  20  41
ENDBRANCH   1   3
TORSDOF 12
ENDMDL
MODEL 6
REMARK VINA RESULT:      -8.8     14.000     17.773
REMARK  12 active torsions:
REMARK  status: ('A' for Active; 'I' for Inactive)
REMARK    1  A    between atoms: O_1  and  C_10 
REMARK    2  A    between atoms: O_2  and  C_17 
REMARK    3  A    between atoms: O_3  and  C_20 
REMARK    4  A    between atoms: O_4  and  C_27 
REMARK    5  A    between atoms: O_6  and  C_29 
REMARK    6  A    between atoms: O_7  and  C_28 
REMARK    7  A    between atoms: O_8  and  C_33 
REMARK    8  A    between atoms: C_11  and  C_20 
REMARK    9  A    between atoms: C_20  and  C_28 
REMARK   10  A    between atoms: C_28  and  C_31 
REMARK   11  A    between atoms: C_31  and  C_32 
REMARK   12  A    between atoms: C_32  and  C_33 
ROOT
HETATM    1  O   UNK     0      26.431  40.973  13.248  0.00  0.00    -0.384 OA
HETATM    2  H   UNK     0      26.730  40.205  12.741  0.00  0.00     0.211 HD
ENDROOT
BRANCH   1   3
HETATM    3  C   UNK     0      25.566  41.818  12.454  0.00  0.00     0.090 C 
HETATM    4  C   UNK     0      24.398  40.975  11.881  0.00  0.00    -0.000 C 
HETATM    5  C   UNK     0      25.172  39.998  10.959  0.00  0.00     0.034 C 
HETATM    6  C   UNK     0      23.672  40.291  13.047  0.00  0.00     0.045 C 
HETATM    7  C   UNK     0      23.384  41.820  11.061  0.00  0.00     0.019 C 
HETATM    8  C   UNK     0      26.264  40.885  10.317  0.00  0.00     0.012 C 
HETATM    9  C   UNK     0      26.372  42.154  11.191  0.00  0.00     0.044 C 
HETATM   10  C   UNK     0      23.143  41.322  14.066  0.00  0.00     0.128 C 
HETATM   11  C   UNK     0      24.223  42.346  14.579  0.00  0.00     0.055 C 
HETATM   12  C   UNK     0      23.634  43.482  15.526  0.00  0.00    -0.021 C 
HETATM   13  C   UNK     0      25.056  42.888  13.398  0.00  0.00    -0.034 C 
HETATM   14  C   UNK     0      24.632  44.672  15.626  0.00  0.00     0.071 C 
HETATM   15  C   UNK     0      23.324  42.929  16.966  0.00  0.00     0.045 C 
HETATM   16  C   UNK     0      22.301  44.038  14.951  0.00  0.00     0.017 C 
HETATM   17  C   UNK     0      25.918  44.384  16.422  0.00  0.00     0.047 C 
HETATM   18  C   UNK     0      25.015  45.180  14.252  0.00  0.00     0.154 C 
HETATM   19  C   UNK     0      25.736  43.358  17.535  0.00  0.00     0.147 C 
HETATM   20  C   UNK     0      24.309  43.342  18.065  0.00  0.00     0.147 C 
HETATM   21  O   UNK     0      25.122  46.379  14.006  0.00  0.00    -0.293 OA
HETATM   22  C   UNK     0      25.359  44.182  13.220  0.00  0.00     0.057 C 
BRANCH   5  23
HETATM   23  C   UNK     0      24.349  39.236   9.930  0.00  0.00     0.084 C 
HETATM   24  C   UNK     0      22.923  39.809   9.875  0.00  0.00     0.049 C 
BRANCH  23  25
HETATM   25  O   UNK     0      24.941  39.435   8.639  0.00  0.00    -0.387 OA
HETATM   26  H   UNK     0      25.398  38.620   8.373  0.00  0.00     0.210 HD
ENDBRANCH  23  25
BRANCH  23  27
HETATM   27  C   UNK     0      24.315  37.710  10.217  0.00  0.00     0.152 C 
BRANCH  27  28
HETATM   28  O   UNK     0      23.842  37.015   9.059  0.00  0.00    -0.393 OA
HETATM   29  H   UNK     0      22.885  36.881   9.171  0.00  0.00     0.210 HD
ENDBRANCH  27  28
BRANCH  27  30
HETATM   30  C   UNK     0      23.434  37.311  11.416  0.00  0.00     0.037 C 
BRANCH  30  31
HETATM   31  C   UNK     0      23.610  35.829  11.794  0.00  0.00     0.040 C 
BRANCH  31  32
HETATM   32  C   UNK     0      23.416  35.523  13.294  0.00  0.00     0.051 C 
HETATM   33  C   UNK     0      22.535  36.604  13.928  0.00  0.00     0.045 C 
HETATM   34  C   UNK     0      22.800  34.142  13.535  0.00  0.00     0.045 C 
BRANCH  32  35
HETATM   35  O   UNK     0      24.693  35.567  13.932  0.00  0.00    -0.391 OA
HETATM   36  H   UNK     0      24.560  35.547  14.894  0.00  0.00     0.210 HD
ENDBRANCH  32  35
ENDBRANCH  31  32
ENDBRANCH  30  31
ENDBRANCH  27  30
ENDBRANCH  23  27
ENDBRANCH   5  23
BRANCH  10  37
HETATM   37  O   UNK     0      22.590  40.589  15.156  0.00  0.00    -0.395 OA
HETATM   38  H   UNK     0      22.348  41.227  15.849  0.00  0.00     0.210 HD
ENDBRANCH  10  37
BRANCH  19  39
HETATM   39  O   UNK     0      26.652  43.654  18.585  0.00  0.00    -0.393 OA
HETATM   40  H   UNK     0      26.627  44.612  18.752  0.00  0.00     0.210 HD
ENDBRANCH  19  39
BRANCH  20  41
HETATM   41  O   UNK     0      23.945  44.635  18.553  0.00  0.00    -0.393 OA
HETATM   42  H   UNK     0      23.589  45.142  17.805  0.00  0.00     0.210 HD
ENDBRANCH  20  41
ENDBRANCH   1   3
TORSDOF 12
ENDMDL
MODEL 7
REMARK VINA RESULT:      -8.7     14.597     18.025
REMARK  12 active torsions:
REMARK  status: ('A' for Active; 'I' for Inactive)
REMARK    1  A    between atoms: O_1  and  C_10 
REMARK    2  A    between atoms: O_2  and  C_17 
REMARK    3  A    between atoms: O_3  and  C_20 
REMARK    4  A    between atoms: O_4  and  C_27 
REMARK    5  A    between atoms: O_6  and  C_29 
REMARK    6  A    between atoms: O_7  and  C_28 
REMARK    7  A    between atoms: O_8  and  C_33 
REMARK    8  A    between atoms: C_11  and  C_20 
REMARK    9  A    between atoms: C_20  and  C_28 
REMARK   10  A    between atoms: C_28  and  C_31 
REMARK   11  A    between atoms: C_31  and  C_32 
REMARK   12  A    between atoms: C_32  and  C_33 
ROOT
HETATM    1  O   UNK     0      22.466  43.617  12.334  0.00  0.00    -0.384 OA
HETATM    2  H   UNK     0      21.754  44.268  12.414  0.00  0.00     0.211 HD
ENDROOT
BRANCH   1   3
HETATM    3  C   UNK     0      22.294  42.535  13.278  0.00  0.00     0.090 C 
HETATM    4  C   UNK     0      22.957  41.249  12.721  0.00  0.00    -0.000 C 
HETATM    5  C   UNK     0      22.085  40.996  11.463  0.00  0.00     0.034 C 
HETATM    6  C   UNK     0      24.429  41.553  12.410  0.00  0.00     0.045 C 
HETATM    7  C   UNK     0      22.871  40.047  13.702  0.00  0.00     0.019 C 
HETATM    8  C   UNK     0      20.653  41.342  11.933  0.00  0.00     0.012 C 
HETATM    9  C   UNK     0      20.802  42.179  13.223  0.00  0.00     0.044 C 
HETATM   10  C   UNK     0      25.180  42.047  13.663  0.00  0.00     0.128 C 
HETATM   11  C   UNK     0      24.488  43.247  14.410  0.00  0.00     0.055 C 
HETATM   12  C   UNK     0      25.203  43.657  15.772  0.00  0.00    -0.021 C 
HETATM   13  C   UNK     0      22.973  42.990  14.554  0.00  0.00    -0.034 C 
HETATM   14  C   UNK     0      24.245  44.516  16.647  0.00  0.00     0.071 C 
HETATM   15  C   UNK     0      26.533  44.455  15.506  0.00  0.00     0.045 C 
HETATM   16  C   UNK     0      25.582  42.394  16.594  0.00  0.00     0.017 C 
HETATM   17  C   UNK     0      23.970  45.936  16.121  0.00  0.00     0.047 C 
HETATM   18  C   UNK     0      22.921  43.811  16.858  0.00  0.00     0.154 C 
HETATM   19  C   UNK     0      25.128  46.533  15.329  0.00  0.00     0.147 C 
HETATM   20  C   UNK     0      26.470  45.963  15.768  0.00  0.00     0.147 C 
HETATM   21  O   UNK     0      22.344  43.817  17.943  0.00  0.00    -0.293 OA
HETATM   22  C   UNK     0      22.279  43.187  15.685  0.00  0.00     0.057 C 
BRANCH   5  23
HETATM   23  C   UNK     0      22.182  39.613  10.834  0.00  0.00     0.084 C 
HETATM   24  C   UNK     0      22.424  38.559  11.926  0.00  0.00     0.049 C 
BRANCH  23  25
HETATM   25  O   UNK     0      20.926  39.308  10.214  0.00  0.00    -0.387 OA
HETATM   26  H   UNK     0      20.903  38.361   9.998  0.00  0.00     0.210 HD
ENDBRANCH  23  25
BRANCH  23  27
HETATM   27  C   UNK     0      23.289  39.540   9.746  0.00  0.00     0.152 C 
BRANCH  27  28
HETATM   28  O   UNK     0      22.724  39.069   8.518  0.00  0.00    -0.393 OA
HETATM   29  H   UNK     0      23.235  39.466   7.792  0.00  0.00     0.210 HD
ENDBRANCH  27  28
BRANCH  27  30
HETATM   30  C   UNK     0      24.477  38.630  10.113  0.00  0.00     0.037 C 
BRANCH  30  31
HETATM   31  C   UNK     0      25.399  38.371   8.908  0.00  0.00     0.040 C 
BRANCH  31  32
HETATM   32  C   UNK     0      26.543  39.394   8.744  0.00  0.00     0.051 C 
HETATM   33  C   UNK     0      26.237  40.320   7.562  0.00  0.00     0.045 C 
HETATM   34  C   UNK     0      26.773  40.224  10.009  0.00  0.00     0.045 C 
BRANCH  32  35
HETATM   35  O   UNK     0      27.745  38.682   8.445  0.00  0.00    -0.391 OA
HETATM   36  H   UNK     0      28.407  39.314   8.119  0.00  0.00     0.210 HD
ENDBRANCH  32  35
ENDBRANCH  31  32
ENDBRANCH  30  31
ENDBRANCH  27  30
ENDBRANCH  23  27
ENDBRANCH   5  23
BRANCH  10  37
HETATM   37  O   UNK     0      26.496  42.406  13.250  0.00  0.00    -0.395 OA
HETATM   38  H   UNK     0      26.539  43.377  13.211  0.00  0.00     0.210 HD
ENDBRANCH  10  37
BRANCH  19  39
HETATM   39  O   UNK     0      25.112  47.948  15.492  0.00  0.00    -0.393 OA
HETATM   40  H   UNK     0      25.705  48.178  16.226  0.00  0.00     0.210 HD
ENDBRANCH  19  39
BRANCH  20  41
HETATM   41  O   UNK     0      26.680  46.203  17.160  0.00  0.00    -0.393 OA
HETATM   42  H   UNK     0      27.564  46.595  17.261  0.00  0.00     0.210 HD
ENDBRANCH  20  41
ENDBRANCH   1   3
TORSDOF 12
ENDMDL
MODEL 8
REMARK VINA RESULT:      -8.6     14.236     18.261
REMARK  12 active torsions:
REMARK  status: ('A' for Active; 'I' for Inactive)
REMARK    1  A    between atoms: O_1  and  C_10 
REMARK    2  A    between atoms: O_2  and  C_17 
REMARK    3  A    between atoms: O_3  and  C_20 
REMARK    4  A    between atoms: O_4  and  C_27 
REMARK    5  A    between atoms: O_6  and  C_29 
REMARK    6  A    between atoms: O_7  and  C_28 
REMARK    7  A    between atoms: O_8  and  C_33 
REMARK    8  A    between atoms: C_11  and  C_20 
REMARK    9  A    between atoms: C_20  and  C_28 
REMARK   10  A    between atoms: C_28  and  C_31 
REMARK   11  A    between atoms: C_31  and  C_32 
REMARK   12  A    between atoms: C_32  and  C_33 
ROOT
HETATM    1  O   UNK     0      24.479  39.322  11.313  0.00  0.00    -0.384 OA
HETATM    2  H   UNK     0      25.302  39.605  11.736  0.00  0.00     0.211 HD
ENDROOT
BRANCH   1   3
HETATM    3  C   UNK     0      23.327  39.705  12.098  0.00  0.00     0.090 C 
HETATM    4  C   UNK     0      23.500  39.202  13.555  0.00  0.00    -0.000 C 
HETATM    5  C   UNK     0      23.500  37.667  13.332  0.00  0.00     0.034 C 
HETATM    6  C   UNK     0      24.822  39.753  14.108  0.00  0.00     0.045 C 
HETATM    7  C   UNK     0      22.330  39.624  14.487  0.00  0.00     0.019 C 
HETATM    8  C   UNK     0      22.417  37.453  12.250  0.00  0.00     0.012 C 
HETATM    9  C   UNK     0      22.175  38.828  11.589  0.00  0.00     0.044 C 
HETATM   10  C   UNK     0      24.853  41.295  14.063  0.00  0.00     0.128 C 
HETATM   11  C   UNK     0      24.513  41.914  12.657  0.00  0.00     0.055 C 
HETATM   12  C   UNK     0      24.420  43.504  12.659  0.00  0.00    -0.021 C 
HETATM   13  C   UNK     0      23.278  41.219  12.046  0.00  0.00    -0.034 C 
HETATM   14  C   UNK     0      23.667  44.002  11.391  0.00  0.00     0.071 C 
HETATM   15  C   UNK     0      25.847  44.164  12.720  0.00  0.00     0.045 C 
HETATM   16  C   UNK     0      23.628  44.005  13.900  0.00  0.00     0.017 C 
HETATM   17  C   UNK     0      24.433  43.840  10.066  0.00  0.00     0.047 C 
HETATM   18  C   UNK     0      22.318  43.326  11.258  0.00  0.00     0.154 C 
HETATM   19  C   UNK     0      25.948  43.926  10.218  0.00  0.00     0.147 C 
HETATM   20  C   UNK     0      26.352  44.781  11.411  0.00  0.00     0.147 C 
HETATM   21  O   UNK     0      21.313  43.940  10.906  0.00  0.00    -0.293 OA
HETATM   22  C   UNK     0      22.256  41.867  11.469  0.00  0.00     0.057 C 
BRANCH   5  23
HETATM   23  C   UNK     0      23.284  36.801  14.565  0.00  0.00     0.084 C 
HETATM   24  C   UNK     0      24.639  36.456  15.205  0.00  0.00     0.049 C 
BRANCH  23  25
HETATM   25  O   UNK     0      22.537  37.559  15.526  0.00  0.00    -0.387 OA
HETATM   26  H   UNK     0      21.677  37.795  15.142  0.00  0.00     0.210 HD
ENDBRANCH  23  25
BRANCH  23  27
HETATM   27  C   UNK     0      22.486  35.508  14.242  0.00  0.00     0.152 C 
BRANCH  27  28
HETATM   28  O   UNK     0      21.631  35.184  15.344  0.00  0.00    -0.393 OA
HETATM   29  H   UNK     0      22.099  35.435  16.158  0.00  0.00     0.210 HD
ENDBRANCH  27  28
BRANCH  27  30
HETATM   30  C   UNK     0      23.365  34.281  13.934  0.00  0.00     0.037 C 
BRANCH  30  31
HETATM   31  C   UNK     0      23.092  33.712  12.530  0.00  0.00     0.040 C 
BRANCH  31  32
HETATM   32  C   UNK     0      22.651  32.233  12.513  0.00  0.00     0.051 C 
HETATM   33  C   UNK     0      22.014  31.903  11.160  0.00  0.00     0.045 C 
HETATM   34  C   UNK     0      23.811  31.273  12.791  0.00  0.00     0.045 C 
BRANCH  32  35
HETATM   35  O   UNK     0      21.658  32.047  13.524  0.00  0.00    -0.391 OA
HETATM   36  H   UNK     0      21.617  31.103  13.749  0.00  0.00     0.210 HD
ENDBRANCH  32  35
ENDBRANCH  31  32
ENDBRANCH  30  31
ENDBRANCH  27  30
ENDBRANCH  23  27
ENDBRANCH   5  23
BRANCH  10  37
HETATM   37  O   UNK     0      26.151  41.701  14.488  0.00  0.00    -0.395 OA
HETATM   38  H   UNK     0      26.458  42.396  13.881  0.00  0.00     0.210 HD
ENDBRANCH  10  37
BRANCH  19  39
HETATM   39  O   UNK     0      26.500  44.457   9.016  0.00  0.00    -0.393 OA
HETATM   40  H   UNK     0      26.075  44.013   8.264  0.00  0.00     0.210 HD
ENDBRANCH  19  39
BRANCH  20  41
HETATM   41  O   UNK     0      25.818  46.099  11.282  0.00  0.00    -0.393 OA
HETATM   42  H   UNK     0      26.532  46.675  10.958  0.00  0.00     0.210 HD
ENDBRANCH  20  41
ENDBRANCH   1   3
TORSDOF 12
ENDMDL
MODEL 9
REMARK VINA RESULT:      -8.6     13.163     16.956
REMARK  12 active torsions:
REMARK  status: ('A' for Active; 'I' for Inactive)
REMARK    1  A    between atoms: O_1  and  C_10 
REMARK    2  A    between atoms: O_2  and  C_17 
REMARK    3  A    between atoms: O_3  and  C_20 
REMARK    4  A    between atoms: O_4  and  C_27 
REMARK    5  A    between atoms: O_6  and  C_29 
REMARK    6  A    between atoms: O_7  and  C_28 
REMARK    7  A    between atoms: O_8  and  C_33 
REMARK    8  A    between atoms: C_11  and  C_20 
REMARK    9  A    between atoms: C_20  and  C_28 
REMARK   10  A    between atoms: C_28  and  C_31 
REMARK   11  A    between atoms: C_31  and  C_32 
REMARK   12  A    between atoms: C_32  and  C_33 
ROOT
HETATM    1  O   UNK     0      22.287  43.713  12.667  0.00  0.00    -0.384 OA
HETATM    2  H   UNK     0      21.816  43.497  11.849  0.00  0.00     0.211 HD
ENDROOT
BRANCH   1   3
HETATM    3  C   UNK     0      21.959  42.780  13.722  0.00  0.00     0.090 C 
HETATM    4  C   UNK     0      22.465  41.365  13.341  0.00  0.00    -0.000 C 
HETATM    5  C   UNK     0      21.595  41.075  12.089  0.00  0.00     0.034 C 
HETATM    6  C   UNK     0      23.970  41.446  13.051  0.00  0.00     0.045 C 
HETATM    7  C   UNK     0      22.206  40.308  14.449  0.00  0.00     0.019 C 
HETATM    8  C   UNK     0      20.209  41.648  12.464  0.00  0.00     0.012 C 
HETATM    9  C   UNK     0      20.435  42.607  13.654  0.00  0.00     0.044 C 
HETATM   10  C   UNK     0      24.750  41.989  14.265  0.00  0.00     0.128 C 
HETATM   11  C   UNK     0      24.199  43.345  14.843  0.00  0.00     0.055 C 
HETATM   12  C   UNK     0      24.932  43.823  16.175  0.00  0.00    -0.021 C 
HETATM   13  C   UNK     0      22.661  43.296  14.961  0.00  0.00    -0.034 C 
HETATM   14  C   UNK     0      24.071  44.890  16.910  0.00  0.00     0.071 C 
HETATM   15  C   UNK     0      26.357  44.413  15.867  0.00  0.00     0.045 C 
HETATM   16  C   UNK     0      25.129  42.628  17.150  0.00  0.00     0.017 C 
HETATM   17  C   UNK     0      23.989  46.261  16.214  0.00  0.00     0.047 C 
HETATM   18  C   UNK     0      22.664  44.384  17.152  0.00  0.00     0.154 C 
HETATM   19  C   UNK     0      25.231  46.613  15.402  0.00  0.00     0.147 C 
HETATM   20  C   UNK     0      26.480  45.938  15.952  0.00  0.00     0.147 C 
HETATM   21  O   UNK     0      22.069  44.590  18.208  0.00  0.00    -0.293 OA
HETATM   22  C   UNK     0      21.974  43.710  16.035  0.00  0.00     0.057 C 
BRANCH   5  23
HETATM   23  C   UNK     0      21.531  39.626  11.627  0.00  0.00     0.084 C 
HETATM   24  C   UNK     0      20.718  38.793  12.632  0.00  0.00     0.049 C 
BRANCH  23  25
HETATM   25  O   UNK     0      20.836  39.581  10.373  0.00  0.00    -0.387 OA
HETATM   26  H   UNK     0      19.894  39.762  10.528  0.00  0.00     0.210 HD
ENDBRANCH  23  25
BRANCH  23  27
HETATM   27  C   UNK     0      22.942  39.012  11.420  0.00  0.00     0.152 C 
BRANCH  27  28
HETATM   28  O   UNK     0      23.347  39.188  10.059  0.00  0.00    -0.393 OA
HETATM   29  H   UNK     0      24.285  39.443  10.065  0.00  0.00     0.210 HD
ENDBRANCH  27  28
BRANCH  27  30
HETATM   30  C   UNK     0      23.036  37.513  11.764  0.00  0.00     0.037 C 
BRANCH  30  31
HETATM   31  C   UNK     0      23.767  37.271  13.097  0.00  0.00     0.040 C 
BRANCH  31  32
HETATM   32  C   UNK     0      23.587  35.852  13.678  0.00  0.00     0.051 C 
HETATM   33  C   UNK     0      22.427  35.851  14.680  0.00  0.00     0.045 C 
HETATM   34  C   UNK     0      23.339  34.801  12.593  0.00  0.00     0.045 C 
BRANCH  32  35
HETATM   35  O   UNK     0      24.778  35.500  14.385  0.00  0.00    -0.391 OA
HETATM   36  H   UNK     0      25.374  35.034  13.776  0.00  0.00     0.210 HD
ENDBRANCH  32  35
ENDBRANCH  31  32
ENDBRANCH  30  31
ENDBRANCH  27  30
ENDBRANCH  23  27
ENDBRANCH   5  23
BRANCH  10  37
HETATM   37  O   UNK     0      26.110  42.132  13.862  0.00  0.00    -0.395 OA
HETATM   38  H   UNK     0      26.554  42.700  14.514  0.00  0.00     0.210 HD
ENDBRANCH  10  37
BRANCH  19  39
HETATM   39  O   UNK     0      25.391  48.029  15.400  0.00  0.00    -0.393 OA
HETATM   40  H   UNK     0      25.540  48.320  16.315  0.00  0.00     0.210 HD
ENDBRANCH  19  39
BRANCH  20  41
HETATM   41  O   UNK     0      26.688  46.313  17.315  0.00  0.00    -0.393 OA
HETATM   42  H   UNK     0      27.406  45.759  17.665  0.00  0.00     0.210 HD
ENDBRANCH  20  41
ENDBRANCH   1   3
TORSDOF 12
ENDMDL
