MODEL 1
REMARK VINA RESULT:      -8.6      0.000      0.000
REMARK  6 active torsions:
REMARK  status: ('A' for Active; 'I' for Inactive)
REMARK    1  A    between atoms: O_2  and  C_12 
REMARK    2  A    between atoms: O_3  and  C_14 
REMARK    3  A    between atoms: O_5  and  C_16 
REMARK    4  A    between atoms: O_6  and  C_20 
REMARK    5  A    between atoms: O_7  and  C_22 
REMARK    6  A    between atoms: C_10  and  C_11 
ROOT
HETATM    1  O   UNK     0       4.484  43.583  22.940  0.00  0.00    -0.306 OA
HETATM    2  O   UNK     0       1.825  41.043  21.185  0.00  0.00    -0.284 OA
HETATM    3  C   UNK     0       2.844  41.809  23.169  0.00  0.00     0.084 A 
HETATM    4  C   UNK     0       3.768  42.702  23.707  0.00  0.00     0.096 A 
HETATM    5  C   UNK     0       4.268  43.595  21.571  0.00  0.00     0.123 A 
HETATM    6  C   UNK     0       3.412  42.781  20.926  0.00  0.00     0.152 A 
HETATM    7  C   UNK     0       2.620  41.807  21.715  0.00  0.00     0.223 A 
HETATM    8  C   UNK     0       2.144  40.932  24.001  0.00  0.00     0.085 A 
HETATM    9  C   UNK     0       4.000  42.721  25.083  0.00  0.00     0.075 A 
HETATM   10  C   UNK     0       3.303  41.847  25.917  0.00  0.00     0.071 A 
HETATM   11  C   UNK     0       2.377  40.954  25.376  0.00  0.00     0.074 A 
ENDROOT
BRANCH   5  12
HETATM   12  C   UNK     0       5.099  44.587  20.866  0.00  0.00     0.004 A 
HETATM   13  C   UNK     0       4.745  45.936  20.888  0.00  0.00     0.053 A 
HETATM   14  C   UNK     0       5.532  46.875  20.221  0.00  0.00     0.099 A 
HETATM   15  C   UNK     0       6.674  46.464  19.531  0.00  0.00     0.098 A 
HETATM   16  C   UNK     0       7.028  45.116  19.510  0.00  0.00     0.040 A 
HETATM   17  C   UNK     0       6.241  44.177  20.177  0.00  0.00     0.017 A 
BRANCH  14  18
HETATM   18  O   UNK     0       5.176  48.189  20.248  0.00  0.00    -0.358 OA
HETATM   19  H   UNK     0       4.677  48.410  19.445  0.00  0.00     0.217 HD
ENDBRANCH  14  18
BRANCH  15  20
HETATM   20  O   UNK     0       7.452  47.372  18.878  0.00  0.00    -0.358 OA
HETATM   21  H   UNK     0       8.032  47.823  19.512  0.00  0.00     0.217 HD
ENDBRANCH  15  20
ENDBRANCH   5  12
BRANCH   6  22
HETATM   22  O   UNK     0       3.245  42.795  19.559  0.00  0.00    -0.355 OA
HETATM   23  H   UNK     0       3.125  43.708  19.250  0.00  0.00     0.218 HD
ENDBRANCH   6  22
BRANCH   8  24
HETATM   24  O   UNK     0       1.230  40.040  23.526  0.00  0.00    -0.360 OA
HETATM   25  H   UNK     0       0.401  40.104  24.025  0.00  0.00     0.217 HD
ENDBRANCH   8  24
BRANCH  10  26
HETATM   26  O   UNK     0       3.528  41.865  27.260  0.00  0.00    -0.361 OA
HETATM   27  H   UNK     0       4.487  41.900  27.418  0.00  0.00     0.217 HD
ENDBRANCH  10  26
TORSDOF 6
ENDMDL
MODEL 2
REMARK VINA RESULT:      -8.2      1.457      3.291
REMARK  6 active torsions:
REMARK  status: ('A' for Active; 'I' for Inactive)
REMARK    1  A    between atoms: O_2  and  C_12 
REMARK    2  A    between atoms: O_3  and  C_14 
REMARK    3  A    between atoms: O_5  and  C_16 
REMARK    4  A    between atoms: O_6  and  C_20 
REMARK    5  A    between atoms: O_7  and  C_22 
REMARK    6  A    between atoms: C_10  and  C_11 
ROOT
HETATM    1  O   UNK     0       4.288  43.583  21.851  0.00  0.00    -0.306 OA
HETATM    2  O   UNK     0       4.846  43.646  25.887  0.00  0.00    -0.284 OA
HETATM    3  C   UNK     0       3.845  42.600  24.025  0.00  0.00     0.084 A 
HETATM    4  C   UNK     0       3.693  42.635  22.640  0.00  0.00     0.096 A 
HETATM    5  C   UNK     0       5.086  44.542  22.456  0.00  0.00     0.123 A 
HETATM    6  C   UNK     0       5.308  44.625  23.781  0.00  0.00     0.152 A 
HETATM    7  C   UNK     0       4.680  43.622  24.675  0.00  0.00     0.223 A 
HETATM    8  C   UNK     0       3.212  41.609  24.780  0.00  0.00     0.085 A 
HETATM    9  C   UNK     0       2.904  41.677  22.001  0.00  0.00     0.075 A 
HETATM   10  C   UNK     0       2.271  40.686  22.752  0.00  0.00     0.071 A 
HETATM   11  C   UNK     0       2.425  40.653  24.138  0.00  0.00     0.074 A 
ENDROOT
BRANCH   5  12
HETATM   12  C   UNK     0       5.664  45.498  21.496  0.00  0.00     0.004 A 
HETATM   13  C   UNK     0       7.014  45.414  21.153  0.00  0.00     0.053 A 
HETATM   14  C   UNK     0       7.561  46.320  20.244  0.00  0.00     0.099 A 
HETATM   15  C   UNK     0       6.757  47.310  19.677  0.00  0.00     0.098 A 
HETATM   16  C   UNK     0       5.408  47.393  20.018  0.00  0.00     0.040 A 
HETATM   17  C   UNK     0       4.861  46.488  20.927  0.00  0.00     0.017 A 
BRANCH  14  18
HETATM   18  O   UNK     0       8.880  46.230  19.919  0.00  0.00    -0.358 OA
HETATM   19  H   UNK     0       9.358  47.000  20.268  0.00  0.00     0.217 HD
ENDBRANCH  14  18
BRANCH  15  20
HETATM   20  O   UNK     0       7.280  48.198  18.785  0.00  0.00    -0.358 OA
HETATM   21  H   UNK     0       8.180  47.929  18.544  0.00  0.00     0.217 HD
ENDBRANCH  15  20
ENDBRANCH   5  12
BRANCH   6  22
HETATM   22  O   UNK     0       6.081  45.611  24.354  0.00  0.00    -0.355 OA
HETATM   23  H   UNK     0       6.932  45.240  24.637  0.00  0.00     0.218 HD
ENDBRANCH   6  22
BRANCH   8  24
HETATM   24  O   UNK     0       3.328  41.531  26.135  0.00  0.00    -0.360 OA
HETATM   25  H   UNK     0       4.114  41.020  26.380  0.00  0.00     0.217 HD
ENDBRANCH   8  24
BRANCH  10  26
HETATM   26  O   UNK     0       1.501  39.751  22.129  0.00  0.00    -0.361 OA
HETATM   27  H   UNK     0       1.505  38.936  22.661  0.00  0.00     0.217 HD
ENDBRANCH  10  26
TORSDOF 6
ENDMDL
MODEL 3
REMARK VINA RESULT:      -7.4      1.466      3.090
REMARK  6 active torsions:
REMARK  status: ('A' for Active; 'I' for Inactive)
REMARK    1  A    between atoms: O_2  and  C_12 
REMARK    2  A    between atoms: O_3  and  C_14 
REMARK    3  A    between atoms: O_5  and  C_16 
REMARK    4  A    between atoms: O_6  and  C_20 
REMARK    5  A    between atoms: O_7  and  C_22 
REMARK    6  A    between atoms: C_10  and  C_11 
ROOT
HETATM    1  O   UNK     0       3.212  42.225  22.638  0.00  0.00    -0.306 OA
HETATM    2  O   UNK     0       4.133  42.830  26.561  0.00  0.00    -0.284 OA
HETATM    3  C   UNK     0       2.972  41.550  24.957  0.00  0.00     0.084 A 
HETATM    4  C   UNK     0       2.694  41.397  23.600  0.00  0.00     0.096 A 
HETATM    5  C   UNK     0       4.057  43.251  23.033  0.00  0.00     0.123 A 
HETATM    6  C   UNK     0       4.398  43.510  24.309  0.00  0.00     0.152 A 
HETATM    7  C   UNK     0       3.858  42.643  25.384  0.00  0.00     0.223 A 
HETATM    8  C   UNK     0       2.414  40.675  25.893  0.00  0.00     0.085 A 
HETATM    9  C   UNK     0       1.854  40.369  23.170  0.00  0.00     0.075 A 
HETATM   10  C   UNK     0       1.297  39.494  24.103  0.00  0.00     0.071 A 
HETATM   11  C   UNK     0       1.576  39.647  25.461  0.00  0.00     0.074 A 
ENDROOT
BRANCH   5  12
HETATM   12  C   UNK     0       4.542  44.063  21.903  0.00  0.00     0.004 A 
HETATM   13  C   UNK     0       4.463  45.455  21.960  0.00  0.00     0.053 A 
HETATM   14  C   UNK     0       4.923  46.224  20.891  0.00  0.00     0.099 A 
HETATM   15  C   UNK     0       5.461  45.601  19.764  0.00  0.00     0.098 A 
HETATM   16  C   UNK     0       5.541  44.210  19.708  0.00  0.00     0.040 A 
HETATM   17  C   UNK     0       5.081  43.440  20.777  0.00  0.00     0.017 A 
BRANCH  14  18
HETATM   18  O   UNK     0       4.838  47.581  20.956  0.00  0.00    -0.358 OA
HETATM   19  H   UNK     0       4.257  47.909  20.250  0.00  0.00     0.217 HD
ENDBRANCH  14  18
BRANCH  15  20
HETATM   20  O   UNK     0       5.915  46.341  18.714  0.00  0.00    -0.358 OA
HETATM   21  H   UNK     0       5.263  47.024  18.489  0.00  0.00     0.217 HD
ENDBRANCH  15  20
ENDBRANCH   5  12
BRANCH   6  22
HETATM   22  O   UNK     0       5.216  44.558  24.671  0.00  0.00    -0.355 OA
HETATM   23  H   UNK     0       5.941  44.233  25.228  0.00  0.00     0.218 HD
ENDBRANCH   6  22
BRANCH   8  24
HETATM   24  O   UNK     0       2.653  40.780  27.230  0.00  0.00    -0.360 OA
HETATM   25  H   UNK     0       2.346  39.987  27.694  0.00  0.00     0.217 HD
ENDBRANCH   8  24
BRANCH  10  26
HETATM   26  O   UNK     0       0.477  38.489  23.685  0.00  0.00    -0.361 OA
HETATM   27  H   UNK     0       0.759  38.201  22.799  0.00  0.00     0.217 HD
ENDBRANCH  10  26
TORSDOF 6
ENDMDL
MODEL 4
REMARK VINA RESULT:      -7.2      2.853      7.119
REMARK  6 active torsions:
REMARK  status: ('A' for Active; 'I' for Inactive)
REMARK    1  A    between atoms: O_2  and  C_12 
REMARK    2  A    between atoms: O_3  and  C_14 
REMARK    3  A    between atoms: O_5  and  C_16 
REMARK    4  A    between atoms: O_6  and  C_20 
REMARK    5  A    between atoms: O_7  and  C_22 
REMARK    6  A    between atoms: C_10  and  C_11 
ROOT
HETATM    1  O   UNK     0       7.291  43.328  20.634  0.00  0.00    -0.306 OA
HETATM    2  O   UNK     0       7.913  45.778  17.437  0.00  0.00    -0.284 OA
HETATM    3  C   UNK     0       8.844  44.387  19.099  0.00  0.00     0.084 A 
HETATM    4  C   UNK     0       8.565  43.561  20.186  0.00  0.00     0.096 A 
HETATM    5  C   UNK     0       6.235  43.930  19.967  0.00  0.00     0.123 A 
HETATM    6  C   UNK     0       6.369  44.753  18.912  0.00  0.00     0.152 A 
HETATM    7  C   UNK     0       7.729  45.039  18.395  0.00  0.00     0.223 A 
HETATM    8  C   UNK     0      10.164  44.589  18.688  0.00  0.00     0.085 A 
HETATM    9  C   UNK     0       9.606  42.934  20.871  0.00  0.00     0.075 A 
HETATM   10  C   UNK     0      10.925  43.134  20.463  0.00  0.00     0.071 A 
HETATM   11  C   UNK     0      11.203  43.960  19.374  0.00  0.00     0.074 A 
ENDROOT
BRANCH   5  12
HETATM   12  C   UNK     0       4.923  43.596  20.549  0.00  0.00     0.004 A 
HETATM   13  C   UNK     0       3.958  42.953  19.774  0.00  0.00     0.053 A 
HETATM   14  C   UNK     0       2.716  42.637  20.325  0.00  0.00     0.099 A 
HETATM   15  C   UNK     0       2.439  42.964  21.653  0.00  0.00     0.098 A 
HETATM   16  C   UNK     0       3.404  43.607  22.429  0.00  0.00     0.040 A 
HETATM   17  C   UNK     0       4.646  43.923  21.877  0.00  0.00     0.017 A 
BRANCH  14  18
HETATM   18  O   UNK     0       1.781  42.011  19.558  0.00  0.00    -0.358 OA
HETATM   19  H   UNK     0       1.708  41.080  19.824  0.00  0.00     0.217 HD
ENDBRANCH  14  18
BRANCH  15  20
HETATM   20  O   UNK     0       1.231  42.659  22.203  0.00  0.00    -0.358 OA
HETATM   21  H   UNK     0       1.307  41.850  22.733  0.00  0.00     0.217 HD
ENDBRANCH  15  20
ENDBRANCH   5  12
BRANCH   6  22
HETATM   22  O   UNK     0       5.299  45.362  18.291  0.00  0.00    -0.355 OA
HETATM   23  H   UNK     0       4.923  46.041  18.874  0.00  0.00     0.218 HD
ENDBRANCH   6  22
BRANCH   8  24
HETATM   24  O   UNK     0      10.491  45.386  17.631  0.00  0.00    -0.360 OA
HETATM   25  H   UNK     0      11.164  44.959  17.079  0.00  0.00     0.217 HD
ENDBRANCH   8  24
BRANCH  10  26
HETATM   26  O   UNK     0      11.942  42.521  21.130  0.00  0.00    -0.361 OA
HETATM   27  H   UNK     0      12.754  42.590  20.599  0.00  0.00     0.217 HD
ENDBRANCH  10  26
TORSDOF 6
ENDMDL
MODEL 5
REMARK VINA RESULT:      -7.0      4.214      7.841
REMARK  6 active torsions:
REMARK  status: ('A' for Active; 'I' for Inactive)
REMARK    1  A    between atoms: O_2  and  C_12 
REMARK    2  A    between atoms: O_3  and  C_14 
REMARK    3  A    between atoms: O_5  and  C_16 
REMARK    4  A    between atoms: O_6  and  C_20 
REMARK    5  A    between atoms: O_7  and  C_22 
REMARK    6  A    between atoms: C_10  and  C_11 
ROOT
HETATM    1  O   UNK     0       9.215  43.317  20.683  0.00  0.00    -0.306 OA
HETATM    2  O   UNK     0      10.896  45.209  17.489  0.00  0.00    -0.284 OA
HETATM    3  C   UNK     0      11.158  43.694  19.278  0.00  0.00     0.084 A 
HETATM    4  C   UNK     0      10.525  43.081  20.357  0.00  0.00     0.096 A 
HETATM    5  C   UNK     0       8.485  44.194  19.896  0.00  0.00     0.123 A 
HETATM    6  C   UNK     0       8.979  44.857  18.833  0.00  0.00     0.152 A 
HETATM    7  C   UNK     0      10.393  44.636  18.447  0.00  0.00     0.223 A 
HETATM    8  C   UNK     0      12.497  43.416  18.994  0.00  0.00     0.085 A 
HETATM    9  C   UNK     0      11.231  42.185  21.162  0.00  0.00     0.075 A 
HETATM   10  C   UNK     0      12.568  41.905  20.881  0.00  0.00     0.071 A 
HETATM   11  C   UNK     0      13.199  42.519  19.800  0.00  0.00     0.074 A 
ENDROOT
BRANCH   5  12
HETATM   12  C   UNK     0       7.095  44.357  20.354  0.00  0.00     0.004 A 
HETATM   13  C   UNK     0       6.086  43.553  19.824  0.00  0.00     0.053 A 
HETATM   14  C   UNK     0       4.770  43.707  20.258  0.00  0.00     0.099 A 
HETATM   15  C   UNK     0       4.462  44.667  21.224  0.00  0.00     0.098 A 
HETATM   16  C   UNK     0       5.470  45.470  21.755  0.00  0.00     0.040 A 
HETATM   17  C   UNK     0       6.787  45.316  21.320  0.00  0.00     0.017 A 
BRANCH  14  18
HETATM   18  O   UNK     0       3.792  42.919  19.731  0.00  0.00    -0.358 OA
HETATM   19  H   UNK     0       2.994  43.447  19.572  0.00  0.00     0.217 HD
ENDBRANCH  14  18
BRANCH  15  20
HETATM   20  O   UNK     0       3.180  44.825  21.657  0.00  0.00    -0.358 OA
HETATM   21  H   UNK     0       3.133  44.651  22.611  0.00  0.00     0.217 HD
ENDBRANCH  15  20
ENDBRANCH   5  12
BRANCH   6  22
HETATM   22  O   UNK     0       8.235  45.748  18.091  0.00  0.00    -0.355 OA
HETATM   23  H   UNK     0       8.560  46.651  18.238  0.00  0.00     0.218 HD
ENDBRANCH   6  22
BRANCH   8  24
HETATM   24  O   UNK     0      13.162  43.988  17.951  0.00  0.00    -0.360 OA
HETATM   25  H   UNK     0      14.111  44.041  18.141  0.00  0.00     0.217 HD
ENDBRANCH   8  24
BRANCH  10  26
HETATM   26  O   UNK     0      13.257  41.030  21.666  0.00  0.00    -0.361 OA
HETATM   27  H   UNK     0      12.740  40.211  21.752  0.00  0.00     0.217 HD
ENDBRANCH  10  26
TORSDOF 6
ENDMDL
MODEL 6
REMARK VINA RESULT:      -7.0      2.114      3.743
REMARK  6 active torsions:
REMARK  status: ('A' for Active; 'I' for Inactive)
REMARK    1  A    between atoms: O_2  and  C_12 
REMARK    2  A    between atoms: O_3  and  C_14 
REMARK    3  A    between atoms: O_5  and  C_16 
REMARK    4  A    between atoms: O_6  and  C_20 
REMARK    5  A    between atoms: O_7  and  C_22 
REMARK    6  A    between atoms: C_10  and  C_11 
ROOT
HETATM    1  O   UNK     0       5.642  42.812  21.258  0.00  0.00    -0.306 OA
HETATM    2  O   UNK     0       5.821  44.246  25.068  0.00  0.00    -0.284 OA
HETATM    3  C   UNK     0       4.708  42.883  23.496  0.00  0.00     0.084 A 
HETATM    4  C   UNK     0       4.702  42.430  22.179  0.00  0.00     0.096 A 
HETATM    5  C   UNK     0       6.649  43.675  21.659  0.00  0.00     0.123 A 
HETATM    6  C   UNK     0       6.764  44.190  22.896  0.00  0.00     0.152 A 
HETATM    7  C   UNK     0       5.767  43.810  23.925  0.00  0.00     0.223 A 
HETATM    8  C   UNK     0       3.722  42.461  24.392  0.00  0.00     0.085 A 
HETATM    9  C   UNK     0       3.706  41.553  21.747  0.00  0.00     0.075 A 
HETATM   10  C   UNK     0       2.720  41.129  22.639  0.00  0.00     0.071 A 
HETATM   11  C   UNK     0       2.729  41.583  23.958  0.00  0.00     0.074 A 
ENDROOT
BRANCH   5  12
HETATM   12  C   UNK     0       7.591  44.003  20.574  0.00  0.00     0.004 A 
HETATM   13  C   UNK     0       7.181  44.811  19.514  0.00  0.00     0.053 A 
HETATM   14  C   UNK     0       8.074  45.122  18.488  0.00  0.00     0.099 A 
HETATM   15  C   UNK     0       9.377  44.624  18.522  0.00  0.00     0.098 A 
HETATM   16  C   UNK     0       9.787  43.817  19.583  0.00  0.00     0.040 A 
HETATM   17  C   UNK     0       8.895  43.506  20.609  0.00  0.00     0.017 A 
BRANCH  14  18
HETATM   18  O   UNK     0       7.662  45.910  17.456  0.00  0.00    -0.358 OA
HETATM   19  H   UNK     0       7.000  45.437  16.926  0.00  0.00     0.217 HD
ENDBRANCH  14  18
BRANCH  15  20
HETATM   20  O   UNK     0      10.258  44.922  17.527  0.00  0.00    -0.358 OA
HETATM   21  H   UNK     0      10.307  45.884  17.410  0.00  0.00     0.217 HD
ENDBRANCH  15  20
ENDBRANCH   5  12
BRANCH   6  22
HETATM   22  O   UNK     0       7.760  45.073  23.255  0.00  0.00    -0.355 OA
HETATM   23  H   UNK     0       7.563  45.458  24.124  0.00  0.00     0.218 HD
ENDBRANCH   6  22
BRANCH   8  24
HETATM   24  O   UNK     0       3.683  42.874  25.690  0.00  0.00    -0.360 OA
HETATM   25  H   UNK     0       4.091  42.214  26.269  0.00  0.00     0.217 HD
ENDBRANCH   8  24
BRANCH  10  26
HETATM   26  O   UNK     0       1.749  40.272  22.220  0.00  0.00    -0.361 OA
HETATM   27  H   UNK     0       1.135  40.753  21.638  0.00  0.00     0.217 HD
ENDBRANCH  10  26
TORSDOF 6
ENDMDL
MODEL 7
REMARK VINA RESULT:      -7.0      2.435      7.204
REMARK  6 active torsions:
REMARK  status: ('A' for Active; 'I' for Inactive)
REMARK    1  A    between atoms: O_2  and  C_12 
REMARK    2  A    between atoms: O_3  and  C_14 
REMARK    3  A    between atoms: O_5  and  C_16 
REMARK    4  A    between atoms: O_6  and  C_20 
REMARK    5  A    between atoms: O_7  and  C_22 
REMARK    6  A    between atoms: C_10  and  C_11 
ROOT
HETATM    1  O   UNK     0       6.257  43.662  21.357  0.00  0.00    -0.306 OA
HETATM    2  O   UNK     0       8.120  45.784  24.295  0.00  0.00    -0.284 OA
HETATM    3  C   UNK     0       8.038  45.172  22.019  0.00  0.00     0.084 A 
HETATM    4  C   UNK     0       7.357  44.423  21.061  0.00  0.00     0.096 A 
HETATM    5  C   UNK     0       5.794  43.647  22.664  0.00  0.00     0.123 A 
HETATM    6  C   UNK     0       6.364  44.318  23.682  0.00  0.00     0.152 A 
HETATM    7  C   UNK     0       7.560  45.151  23.410  0.00  0.00     0.223 A 
HETATM    8  C   UNK     0       9.155  45.929  21.658  0.00  0.00     0.085 A 
HETATM    9  C   UNK     0       7.792  44.425  19.735  0.00  0.00     0.075 A 
HETATM   10  C   UNK     0       8.908  45.181  19.372  0.00  0.00     0.071 A 
HETATM   11  C   UNK     0       9.587  45.930  20.332  0.00  0.00     0.074 A 
ENDROOT
BRANCH   5  12
HETATM   12  C   UNK     0       4.609  42.792  22.845  0.00  0.00     0.004 A 
HETATM   13  C   UNK     0       3.398  43.141  22.247  0.00  0.00     0.053 A 
HETATM   14  C   UNK     0       2.276  42.330  22.418  0.00  0.00     0.099 A 
HETATM   15  C   UNK     0       2.364  41.170  23.189  0.00  0.00     0.098 A 
HETATM   16  C   UNK     0       3.575  40.821  23.786  0.00  0.00     0.040 A 
HETATM   17  C   UNK     0       4.697  41.631  23.615  0.00  0.00     0.017 A 
BRANCH  14  18
HETATM   18  O   UNK     0       1.098  42.682  21.832  0.00  0.00    -0.358 OA
HETATM   19  H   UNK     0       1.159  43.590  21.491  0.00  0.00     0.217 HD
ENDBRANCH  14  18
BRANCH  15  20
HETATM   20  O   UNK     0       1.276  40.370  23.361  0.00  0.00    -0.358 OA
HETATM   21  H   UNK     0       1.358  39.881  24.195  0.00  0.00     0.217 HD
ENDBRANCH  15  20
ENDBRANCH   5  12
BRANCH   6  22
HETATM   22  O   UNK     0       5.899  44.256  24.978  0.00  0.00    -0.355 OA
HETATM   23  H   UNK     0       5.138  44.850  25.084  0.00  0.00     0.218 HD
ENDBRANCH   6  22
BRANCH   8  24
HETATM   24  O   UNK     0       9.856  46.679  22.555  0.00  0.00    -0.360 OA
HETATM   25  H   UNK     0      10.078  46.152  23.338  0.00  0.00     0.217 HD
ENDBRANCH   8  24
BRANCH  10  26
HETATM   26  O   UNK     0       9.333  45.184  18.078  0.00  0.00    -0.361 OA
HETATM   27  H   UNK     0       9.622  46.083  17.844  0.00  0.00     0.217 HD
ENDBRANCH  10  26
TORSDOF 6
ENDMDL
MODEL 8
REMARK VINA RESULT:      -7.0      1.736      6.994
REMARK  6 active torsions:
REMARK  status: ('A' for Active; 'I' for Inactive)
REMARK    1  A    between atoms: O_2  and  C_12 
REMARK    2  A    between atoms: O_3  and  C_14 
REMARK    3  A    between atoms: O_5  and  C_16 
REMARK    4  A    between atoms: O_6  and  C_20 
REMARK    5  A    between atoms: O_7  and  C_22 
REMARK    6  A    between atoms: C_10  and  C_11 
ROOT
HETATM    1  O   UNK     0       4.785  44.177  21.710  0.00  0.00    -0.306 OA
HETATM    2  O   UNK     0       8.472  42.834  20.608  0.00  0.00    -0.284 OA
HETATM    3  C   UNK     0       6.881  44.575  20.553  0.00  0.00     0.084 A 
HETATM    4  C   UNK     0       5.610  44.975  20.960  0.00  0.00     0.096 A 
HETATM    5  C   UNK     0       5.242  42.925  22.090  0.00  0.00     0.123 A 
HETATM    6  C   UNK     0       6.443  42.417  21.756  0.00  0.00     0.152 A 
HETATM    7  C   UNK     0       7.367  43.242  20.941  0.00  0.00     0.223 A 
HETATM    8  C   UNK     0       7.678  45.431  19.788  0.00  0.00     0.085 A 
HETATM    9  C   UNK     0       5.126  46.234  20.602  0.00  0.00     0.075 A 
HETATM   10  C   UNK     0       5.919  47.090  19.838  0.00  0.00     0.071 A 
HETATM   11  C   UNK     0       7.192  46.689  19.432  0.00  0.00     0.074 A 
ENDROOT
BRANCH   5  12
HETATM   12  C   UNK     0       4.260  42.173  22.890  0.00  0.00     0.004 A 
HETATM   13  C   UNK     0       4.121  42.437  24.253  0.00  0.00     0.053 A 
HETATM   14  C   UNK     0       3.191  41.725  25.011  0.00  0.00     0.099 A 
HETATM   15  C   UNK     0       2.399  40.749  24.405  0.00  0.00     0.098 A 
HETATM   16  C   UNK     0       2.537  40.485  23.043  0.00  0.00     0.040 A 
HETATM   17  C   UNK     0       3.467  41.197  22.285  0.00  0.00     0.017 A 
BRANCH  14  18
HETATM   18  O   UNK     0       3.066  41.990  26.341  0.00  0.00    -0.358 OA
HETATM   19  H   UNK     0       2.228  41.627  26.670  0.00  0.00     0.217 HD
ENDBRANCH  14  18
BRANCH  15  20
HETATM   20  O   UNK     0       1.486  40.049  25.135  0.00  0.00    -0.358 OA
HETATM   21  H   UNK     0       1.694  40.123  26.079  0.00  0.00     0.217 HD
ENDBRANCH  15  20
ENDBRANCH   5  12
BRANCH   6  22
HETATM   22  O   UNK     0       6.854  41.154  22.122  0.00  0.00    -0.355 OA
HETATM   23  H   UNK     0       6.166  40.505  21.900  0.00  0.00     0.218 HD
ENDBRANCH   6  22
BRANCH   8  24
HETATM   24  O   UNK     0       8.927  45.089  19.364  0.00  0.00    -0.360 OA
HETATM   25  H   UNK     0       8.879  44.561  18.553  0.00  0.00     0.217 HD
ENDBRANCH   8  24
BRANCH  10  26
HETATM   26  O   UNK     0       5.448  48.319  19.489  0.00  0.00    -0.361 OA
HETATM   27  H   UNK     0       5.322  48.849  20.295  0.00  0.00     0.217 HD
ENDBRANCH  10  26
TORSDOF 6
ENDMDL
MODEL 9
REMARK VINA RESULT:      -6.9     28.801     30.545
REMARK  6 active torsions:
REMARK  status: ('A' for Active; 'I' for Inactive)
REMARK    1  A    between atoms: O_2  and  C_12 
REMARK    2  A    between atoms: O_3  and  C_14 
REMARK    3  A    between atoms: O_5  and  C_16 
REMARK    4  A    between atoms: O_6  and  C_20 
REMARK    5  A    between atoms: O_7  and  C_22 
REMARK    6  A    between atoms: C_10  and  C_11 
ROOT
HETATM    1  O   UNK     0      15.864  67.506   7.742  0.00  0.00    -0.306 OA
HETATM    2  O   UNK     0      12.629  69.353   9.393  0.00  0.00    -0.284 OA
HETATM    3  C   UNK     0      13.679  68.520   7.452  0.00  0.00     0.084 A 
HETATM    4  C   UNK     0      14.814  67.887   6.949  0.00  0.00     0.096 A 
HETATM    5  C   UNK     0      15.788  67.751   9.105  0.00  0.00     0.123 A 
HETATM    6  C   UNK     0      14.755  68.361   9.713  0.00  0.00     0.152 A 
HETATM    7  C   UNK     0      13.597  68.795   8.895  0.00  0.00     0.223 A 
HETATM    8  C   UNK     0      12.638  68.887   6.595  0.00  0.00     0.085 A 
HETATM    9  C   UNK     0      14.916  67.618   5.584  0.00  0.00     0.075 A 
HETATM   10  C   UNK     0      13.878  67.983   4.726  0.00  0.00     0.071 A 
HETATM   11  C   UNK     0      12.742  68.616   5.231  0.00  0.00     0.074 A 
ENDROOT
BRANCH   5  12
HETATM   12  C   UNK     0      16.981  67.292   9.839  0.00  0.00     0.004 A 
HETATM   13  C   UNK     0      17.407  65.969   9.722  0.00  0.00     0.053 A 
HETATM   14  C   UNK     0      18.536  65.536  10.418  0.00  0.00     0.099 A 
HETATM   15  C   UNK     0      19.239  66.427  11.230  0.00  0.00     0.098 A 
HETATM   16  C   UNK     0      18.814  67.750  11.345  0.00  0.00     0.040 A 
HETATM   17  C   UNK     0      17.685  68.183  10.650  0.00  0.00     0.017 A 
BRANCH  14  18
HETATM   18  O   UNK     0      18.942  64.242  10.298  0.00  0.00    -0.358 OA
HETATM   19  H   UNK     0      19.025  64.009   9.359  0.00  0.00     0.217 HD
ENDBRANCH  14  18
BRANCH  15  20
HETATM   20  O   UNK     0      20.345  66.016  11.912  0.00  0.00    -0.358 OA
HETATM   21  H   UNK     0      20.470  65.062  11.789  0.00  0.00     0.217 HD
ENDBRANCH  15  20
ENDBRANCH   5  12
BRANCH   6  22
HETATM   22  O   UNK     0      14.724  68.619  11.067  0.00  0.00    -0.355 OA
HETATM   23  H   UNK     0      13.861  68.989  11.313  0.00  0.00     0.218 HD
ENDBRANCH   6  22
BRANCH   8  24
HETATM   24  O   UNK     0      11.508  69.508   7.035  0.00  0.00    -0.360 OA
HETATM   25  H   UNK     0      10.977  68.904   7.575  0.00  0.00     0.217 HD
ENDBRANCH   8  24
BRANCH  10  26
HETATM   26  O   UNK     0      13.976  67.720   3.393  0.00  0.00    -0.361 OA
HETATM   27  H   UNK     0      13.130  67.941   2.966  0.00  0.00     0.217 HD
ENDBRANCH  10  26
TORSDOF 6
ENDMDL
