MODEL 1
REMARK VINA RESULT:      -7.3      0.000      0.000
REMARK  10 active torsions:
REMARK  status: ('A' for Active; 'I' for Inactive)
REMARK    1  A    between atoms: O_2  and  C_12 
REMARK    2  A    between atoms: O_2  and  C_14 
REMARK    3  A    between atoms: O_3  and  C_8 
REMARK    4  A    between atoms: O_4  and  C_9 
REMARK    5  A    between atoms: O_5  and  C_10 
REMARK    6  A    between atoms: O_6  and  C_13 
REMARK    7  A    between atoms: O_7  and  C_21 
REMARK    8  A    between atoms: C_11  and  C_13 
REMARK    9  A    between atoms: C_14  and  C_15 
REMARK   10  A    between atoms: C_15  and  C_16 
ROOT
HETATM    1  O   UNK     0     153.273 156.251 151.369  0.00  0.00    -0.348 OA
HETATM    2  C   UNK     0     154.711 153.926 152.252  0.00  0.00     0.183 C 
HETATM    3  C   UNK     0     155.384 155.287 152.069  0.00  0.00     0.180 C 
HETATM    4  C   UNK     0     153.428 153.828 151.426  0.00  0.00     0.204 C 
HETATM    5  C   UNK     0     154.376 156.422 152.261  0.00  0.00     0.179 C 
HETATM    6  C   UNK     0     152.540 155.055 151.628  0.00  0.00     0.291 C 
ENDROOT
BRANCH   5   7
HETATM    7  C   UNK     0     154.996 157.784 151.968  0.00  0.00     0.198 C 
BRANCH   7   8
HETATM    8  O   UNK     0     155.908 158.097 153.004  0.00  0.00    -0.398 OA
HETATM    9  H   UNK     0     155.511 157.809 153.843  0.00  0.00     0.209 HD
ENDBRANCH   7   8
ENDBRANCH   5   7
BRANCH   6  10
HETATM   10  O   UNK     0     151.442 154.957 150.723  0.00  0.00    -0.358 OA
BRANCH  10  11
HETATM   11  C   UNK     0     150.358 155.777 151.134  0.00  0.00     0.175 C 
BRANCH  11  12
HETATM   12  C   UNK     0     149.066 154.969 151.116  0.00  0.00     0.065 C 
BRANCH  12  13
HETATM   13  C   UNK     0     147.916 155.740 150.514  0.00  0.00    -0.056 A 
HETATM   14  C   UNK     0     148.004 157.117 150.406  0.00  0.00     0.010 A 
HETATM   15  C   UNK     0     146.942 157.830 149.849  0.00  0.00     0.037 A 
HETATM   16  C   UNK     0     145.804 157.152 149.409  0.00  0.00     0.065 A 
HETATM   17  C   UNK     0     145.729 155.765 149.524  0.00  0.00     0.037 A 
HETATM   18  C   UNK     0     146.792 155.054 150.081  0.00  0.00     0.010 A 
BRANCH  16  19
HETATM   19  O   UNK     0     144.767 157.848 148.866  0.00  0.00    -0.361 OA
HETATM   20  H   UNK     0     144.583 158.625 149.421  0.00  0.00     0.217 HD
ENDBRANCH  16  19
ENDBRANCH  12  13
ENDBRANCH  11  12
ENDBRANCH  10  11
ENDBRANCH   6  10
BRANCH   3  21
HETATM   21  O   UNK     0     156.435 155.425 153.022  0.00  0.00    -0.390 OA
HETATM   22  H   UNK     0     156.611 154.548 153.404  0.00  0.00     0.210 HD
ENDBRANCH   3  21
BRANCH   4  23
HETATM   23  O   UNK     0     152.693 152.672 151.828  0.00  0.00    -0.388 OA
HETATM   24  H   UNK     0     152.311 152.265 151.031  0.00  0.00     0.210 HD
ENDBRANCH   4  23
BRANCH   2  25
HETATM   25  O   UNK     0     155.629 152.919 151.828  0.00  0.00    -0.390 OA
HETATM   26  H   UNK     0     155.913 152.431 152.620  0.00  0.00     0.210 HD
ENDBRANCH   2  25
TORSDOF 10
ENDMDL
MODEL 2
REMARK VINA RESULT:      -7.2      0.878      1.077
REMARK  10 active torsions:
REMARK  status: ('A' for Active; 'I' for Inactive)
REMARK    1  A    between atoms: O_2  and  C_12 
REMARK    2  A    between atoms: O_2  and  C_14 
REMARK    3  A    between atoms: O_3  and  C_8 
REMARK    4  A    between atoms: O_4  and  C_9 
REMARK    5  A    between atoms: O_5  and  C_10 
REMARK    6  A    between atoms: O_6  and  C_13 
REMARK    7  A    between atoms: O_7  and  C_21 
REMARK    8  A    between atoms: C_11  and  C_13 
REMARK    9  A    between atoms: C_14  and  C_15 
REMARK   10  A    between atoms: C_15  and  C_16 
ROOT
HETATM    1  O   UNK     0     153.117 156.387 151.455  0.00  0.00    -0.348 OA
HETATM    2  C   UNK     0     154.712 154.146 152.285  0.00  0.00     0.183 C 
HETATM    3  C   UNK     0     155.302 155.541 152.077  0.00  0.00     0.180 C 
HETATM    4  C   UNK     0     153.407 153.977 151.505  0.00  0.00     0.204 C 
HETATM    5  C   UNK     0     154.241 156.620 152.306  0.00  0.00     0.179 C 
HETATM    6  C   UNK     0     152.461 155.154 151.741  0.00  0.00     0.291 C 
ENDROOT
BRANCH   5   7
HETATM    7  C   UNK     0     154.774 158.013 151.991  0.00  0.00     0.198 C 
BRANCH   7   8
HETATM    8  O   UNK     0     155.271 158.588 153.185  0.00  0.00    -0.398 OA
HETATM    9  H   UNK     0     156.039 158.063 153.467  0.00  0.00     0.209 HD
ENDBRANCH   7   8
ENDBRANCH   5   7
BRANCH   6  10
HETATM   10  O   UNK     0     151.338 154.994 150.876  0.00  0.00    -0.358 OA
BRANCH  10  11
HETATM   11  C   UNK     0     150.404 156.051 151.042  0.00  0.00     0.175 C 
BRANCH  11  12
HETATM   12  C   UNK     0     149.054 155.641 150.464  0.00  0.00     0.065 C 
BRANCH  12  13
HETATM   13  C   UNK     0     148.146 156.825 150.233  0.00  0.00    -0.056 A 
HETATM   14  C   UNK     0     148.601 158.098 150.531  0.00  0.00     0.010 A 
HETATM   15  C   UNK     0     147.762 159.192 150.317  0.00  0.00     0.037 A 
HETATM   16  C   UNK     0     146.478 158.996 149.808  0.00  0.00     0.065 A 
HETATM   17  C   UNK     0     146.033 157.708 149.512  0.00  0.00     0.037 A 
HETATM   18  C   UNK     0     146.873 156.615 149.726  0.00  0.00     0.010 A 
BRANCH  16  19
HETATM   19  O   UNK     0     145.659 160.064 149.599  0.00  0.00    -0.361 OA
HETATM   20  H   UNK     0     145.066 159.865 148.854  0.00  0.00     0.217 HD
ENDBRANCH  16  19
ENDBRANCH  12  13
ENDBRANCH  11  12
ENDBRANCH  10  11
ENDBRANCH   6  10
BRANCH   3  21
HETATM   21  O   UNK     0     156.378 155.738 152.990  0.00  0.00    -0.390 OA
HETATM   22  H   UNK     0     156.001 155.995 153.849  0.00  0.00     0.210 HD
ENDBRANCH   3  21
BRANCH   4  23
HETATM   23  O   UNK     0     152.751 152.783 151.934  0.00  0.00    -0.388 OA
HETATM   24  H   UNK     0     153.288 152.380 152.639  0.00  0.00     0.210 HD
ENDBRANCH   4  23
BRANCH   2  25
HETATM   25  O   UNK     0     155.667 153.190 151.826  0.00  0.00    -0.390 OA
HETATM   26  H   UNK     0     156.531 153.440 152.196  0.00  0.00     0.210 HD
ENDBRANCH   2  25
TORSDOF 10
ENDMDL
MODEL 3
REMARK VINA RESULT:      -7.2      1.563      2.196
REMARK  10 active torsions:
REMARK  status: ('A' for Active; 'I' for Inactive)
REMARK    1  A    between atoms: O_2  and  C_12 
REMARK    2  A    between atoms: O_2  and  C_14 
REMARK    3  A    between atoms: O_3  and  C_8 
REMARK    4  A    between atoms: O_4  and  C_9 
REMARK    5  A    between atoms: O_5  and  C_10 
REMARK    6  A    between atoms: O_6  and  C_13 
REMARK    7  A    between atoms: O_7  and  C_21 
REMARK    8  A    between atoms: C_11  and  C_13 
REMARK    9  A    between atoms: C_14  and  C_15 
REMARK   10  A    between atoms: C_15  and  C_16 
ROOT
HETATM    1  O   UNK     0     152.602 154.411 152.316  0.00  0.00    -0.348 OA
HETATM    2  C   UNK     0     155.214 154.402 151.121  0.00  0.00     0.183 C 
HETATM    3  C   UNK     0     154.946 154.997 152.504  0.00  0.00     0.180 C 
HETATM    4  C   UNK     0     153.933 154.345 150.287  0.00  0.00     0.204 C 
HETATM    5  C   UNK     0     153.747 154.315 153.166  0.00  0.00     0.179 C 
HETATM    6  C   UNK     0     152.781 153.727 151.078  0.00  0.00     0.291 C 
ENDROOT
BRANCH   5   7
HETATM    7  C   UNK     0     153.388 154.970 154.495  0.00  0.00     0.198 C 
BRANCH   7   8
HETATM    8  O   UNK     0     154.338 154.572 155.466  0.00  0.00    -0.398 OA
HETATM    9  H   UNK     0     155.222 154.758 155.106  0.00  0.00     0.209 HD
ENDBRANCH   7   8
ENDBRANCH   5   7
BRANCH   6  10
HETATM   10  O   UNK     0     151.597 153.840 150.290  0.00  0.00    -0.358 OA
BRANCH  10  11
HETATM   11  C   UNK     0     150.804 154.942 150.704  0.00  0.00     0.175 C 
BRANCH  11  12
HETATM   12  C   UNK     0     149.384 154.474 150.998  0.00  0.00     0.065 C 
BRANCH  12  13
HETATM   13  C   UNK     0     148.343 155.424 150.457  0.00  0.00    -0.056 A 
HETATM   14  C   UNK     0     147.110 154.930 150.065  0.00  0.00     0.010 A 
HETATM   15  C   UNK     0     146.149 155.809 149.565  0.00  0.00     0.037 A 
HETATM   16  C   UNK     0     146.434 157.171 149.464  0.00  0.00     0.065 A 
HETATM   17  C   UNK     0     147.680 157.654 149.862  0.00  0.00     0.037 A 
HETATM   18  C   UNK     0     148.641 156.775 150.362  0.00  0.00     0.010 A 
BRANCH  16  19
HETATM   19  O   UNK     0     145.496 158.028 148.976  0.00  0.00    -0.361 OA
HETATM   20  H   UNK     0     145.655 158.913 149.346  0.00  0.00     0.217 HD
ENDBRANCH  16  19
ENDBRANCH  12  13
ENDBRANCH  11  12
ENDBRANCH  10  11
ENDBRANCH   6  10
BRANCH   3  21
HETATM   21  O   UNK     0     156.099 154.821 153.323  0.00  0.00    -0.390 OA
HETATM   22  H   UNK     0     156.659 155.610 153.229  0.00  0.00     0.210 HD
ENDBRANCH   3  21
BRANCH   4  23
HETATM   23  O   UNK     0     154.160 153.544 149.127  0.00  0.00    -0.388 OA
HETATM   24  H   UNK     0     155.086 153.246 149.141  0.00  0.00     0.210 HD
ENDBRANCH   4  23
BRANCH   2  25
HETATM   25  O   UNK     0     156.174 155.229 150.463  0.00  0.00    -0.390 OA
HETATM   26  H   UNK     0     156.605 155.774 151.143  0.00  0.00     0.210 HD
ENDBRANCH   2  25
TORSDOF 10
ENDMDL
MODEL 4
REMARK VINA RESULT:      -7.1      2.143      2.847
REMARK  10 active torsions:
REMARK  status: ('A' for Active; 'I' for Inactive)
REMARK    1  A    between atoms: O_2  and  C_12 
REMARK    2  A    between atoms: O_2  and  C_14 
REMARK    3  A    between atoms: O_3  and  C_8 
REMARK    4  A    between atoms: O_4  and  C_9 
REMARK    5  A    between atoms: O_5  and  C_10 
REMARK    6  A    between atoms: O_6  and  C_13 
REMARK    7  A    between atoms: O_7  and  C_21 
REMARK    8  A    between atoms: C_11  and  C_13 
REMARK    9  A    between atoms: C_14  and  C_15 
REMARK   10  A    between atoms: C_15  and  C_16 
ROOT
HETATM    1  O   UNK     0     152.077 154.892 151.661  0.00  0.00    -0.348 OA
HETATM    2  C   UNK     0     152.612 152.334 150.468  0.00  0.00     0.183 C 
HETATM    3  C   UNK     0     153.532 152.960 151.517  0.00  0.00     0.180 C 
HETATM    4  C   UNK     0     151.764 153.399 149.771  0.00  0.00     0.204 C 
HETATM    5  C   UNK     0     152.750 153.899 152.436  0.00  0.00     0.179 C 
HETATM    6  C   UNK     0     151.101 154.333 150.783  0.00  0.00     0.291 C 
ENDROOT
BRANCH   5   7
HETATM    7  C   UNK     0     153.666 154.625 153.416  0.00  0.00     0.198 C 
BRANCH   7   8
HETATM    8  O   UNK     0     153.680 153.909 154.636  0.00  0.00    -0.398 OA
HETATM    9  H   UNK     0     154.588 153.935 154.983  0.00  0.00     0.209 HD
ENDBRANCH   7   8
ENDBRANCH   5   7
BRANCH   6  10
HETATM   10  O   UNK     0     150.452 155.376 150.058  0.00  0.00    -0.358 OA
BRANCH  10  11
HETATM   11  C   UNK     0     149.260 155.792 150.708  0.00  0.00     0.175 C 
BRANCH  11  12
HETATM   12  C   UNK     0     148.202 154.701 150.593  0.00  0.00     0.065 C 
BRANCH  12  13
HETATM   13  C   UNK     0     147.080 155.086 149.660  0.00  0.00    -0.056 A 
HETATM   14  C   UNK     0     146.793 154.279 148.572  0.00  0.00     0.010 A 
HETATM   15  C   UNK     0     145.756 154.635 147.710  0.00  0.00     0.037 A 
HETATM   16  C   UNK     0     145.019 155.795 147.948  0.00  0.00     0.065 A 
HETATM   17  C   UNK     0     145.319 156.598 149.048  0.00  0.00     0.037 A 
HETATM   18  C   UNK     0     146.356 156.241 149.909  0.00  0.00     0.010 A 
BRANCH  16  19
HETATM   19  O   UNK     0     144.007 156.143 147.107  0.00  0.00    -0.361 OA
HETATM   20  H   UNK     0     143.244 155.562 147.274  0.00  0.00     0.217 HD
ENDBRANCH  16  19
ENDBRANCH  12  13
ENDBRANCH  11  12
ENDBRANCH  10  11
ENDBRANCH   6  10
BRANCH   3  21
HETATM   21  O   UNK     0     154.129 151.926 152.297  0.00  0.00    -0.390 OA
HETATM   22  H   UNK     0     154.713 152.343 152.952  0.00  0.00     0.210 HD
ENDBRANCH   3  21
BRANCH   4  23
HETATM   23  O   UNK     0     150.737 152.763 149.010  0.00  0.00    -0.388 OA
HETATM   24  H   UNK     0     150.095 153.444 148.743  0.00  0.00     0.210 HD
ENDBRANCH   4  23
BRANCH   2  25
HETATM   25  O   UNK     0     153.428 151.669 149.504  0.00  0.00    -0.390 OA
HETATM   26  H   UNK     0     154.217 151.341 149.967  0.00  0.00     0.210 HD
ENDBRANCH   2  25
TORSDOF 10
ENDMDL
MODEL 5
REMARK VINA RESULT:      -7.0      8.835     10.135
REMARK  10 active torsions:
REMARK  status: ('A' for Active; 'I' for Inactive)
REMARK    1  A    between atoms: O_2  and  C_12 
REMARK    2  A    between atoms: O_2  and  C_14 
REMARK    3  A    between atoms: O_3  and  C_8 
REMARK    4  A    between atoms: O_4  and  C_9 
REMARK    5  A    between atoms: O_5  and  C_10 
REMARK    6  A    between atoms: O_6  and  C_13 
REMARK    7  A    between atoms: O_7  and  C_21 
REMARK    8  A    between atoms: C_11  and  C_13 
REMARK    9  A    between atoms: C_14  and  C_15 
REMARK   10  A    between atoms: C_15  and  C_16 
ROOT
HETATM    1  O   UNK     0     153.481 148.916 145.731  0.00  0.00    -0.348 OA
HETATM    2  C   UNK     0     154.244 150.608 143.539  0.00  0.00     0.183 C 
HETATM    3  C   UNK     0     153.485 151.135 144.757  0.00  0.00     0.180 C 
HETATM    4  C   UNK     0     154.050 149.099 143.378  0.00  0.00     0.204 C 
HETATM    5  C   UNK     0     153.786 150.286 145.994  0.00  0.00     0.179 C 
HETATM    6  C   UNK     0     154.291 148.363 144.696  0.00  0.00     0.291 C 
ENDROOT
BRANCH   5   7
HETATM    7  C   UNK     0     152.952 150.720 147.194  0.00  0.00     0.198 C 
BRANCH   7   8
HETATM    8  O   UNK     0     153.701 151.651 147.953  0.00  0.00    -0.398 OA
HETATM    9  H   UNK     0     154.088 151.172 148.706  0.00  0.00     0.209 HD
ENDBRANCH   7   8
ENDBRANCH   5   7
BRANCH   6  10
HETATM   10  O   UNK     0     153.954 146.991 144.500  0.00  0.00    -0.358 OA
BRANCH  10  11
HETATM   11  C   UNK     0     152.907 146.588 145.370  0.00  0.00     0.175 C 
BRANCH  11  12
HETATM   12  C   UNK     0     151.838 145.844 144.579  0.00  0.00     0.065 C 
BRANCH  12  13
HETATM   13  C   UNK     0     150.486 146.509 144.674  0.00  0.00    -0.056 A 
HETATM   14  C   UNK     0     149.541 146.271 143.691  0.00  0.00     0.010 A 
HETATM   15  C   UNK     0     148.292 146.886 143.779  0.00  0.00     0.037 A 
HETATM   16  C   UNK     0     148.005 147.731 144.852  0.00  0.00     0.065 A 
HETATM   17  C   UNK     0     148.967 147.960 145.835  0.00  0.00     0.037 A 
HETATM   18  C   UNK     0     150.215 147.345 145.746  0.00  0.00     0.010 A 
BRANCH  16  19
HETATM   19  O   UNK     0     146.786 148.330 144.938  0.00  0.00    -0.361 OA
HETATM   20  H   UNK     0     146.158 147.851 144.370  0.00  0.00     0.217 HD
ENDBRANCH  16  19
ENDBRANCH  12  13
ENDBRANCH  11  12
ENDBRANCH  10  11
ENDBRANCH   6  10
BRANCH   3  21
HETATM   21  O   UNK     0     153.873 152.484 145.006  0.00  0.00    -0.390 OA
HETATM   22  H   UNK     0     153.079 153.042 144.943  0.00  0.00     0.210 HD
ENDBRANCH   3  21
BRANCH   4  23
HETATM   23  O   UNK     0     154.978 148.603 142.413  0.00  0.00    -0.388 OA
HETATM   24  H   UNK     0     155.876 148.729 142.765  0.00  0.00     0.210 HD
ENDBRANCH   4  23
BRANCH   2  25
HETATM   25  O   UNK     0     153.742 151.278 142.382  0.00  0.00    -0.390 OA
HETATM   26  H   UNK     0     154.278 152.079 142.254  0.00  0.00     0.210 HD
ENDBRANCH   2  25
TORSDOF 10
ENDMDL
MODEL 6
REMARK VINA RESULT:      -7.0      1.720      3.443
REMARK  10 active torsions:
REMARK  status: ('A' for Active; 'I' for Inactive)
REMARK    1  A    between atoms: O_2  and  C_12 
REMARK    2  A    between atoms: O_2  and  C_14 
REMARK    3  A    between atoms: O_3  and  C_8 
REMARK    4  A    between atoms: O_4  and  C_9 
REMARK    5  A    between atoms: O_5  and  C_10 
REMARK    6  A    between atoms: O_6  and  C_13 
REMARK    7  A    between atoms: O_7  and  C_21 
REMARK    8  A    between atoms: C_11  and  C_13 
REMARK    9  A    between atoms: C_14  and  C_15 
REMARK   10  A    between atoms: C_15  and  C_16 
ROOT
HETATM    1  O   UNK     0     151.851 155.105 151.180  0.00  0.00    -0.348 OA
HETATM    2  C   UNK     0     153.756 154.586 153.265  0.00  0.00     0.183 C 
HETATM    3  C   UNK     0     152.997 153.468 152.550  0.00  0.00     0.180 C 
HETATM    4  C   UNK     0     153.016 155.919 153.148  0.00  0.00     0.204 C 
HETATM    5  C   UNK     0     152.608 153.895 151.133  0.00  0.00     0.179 C 
HETATM    6  C   UNK     0     152.599 156.200 151.705  0.00  0.00     0.291 C 
ENDROOT
BRANCH   5   7
HETATM    7  C   UNK     0     151.749 152.842 150.442  0.00  0.00     0.198 C 
BRANCH   7   8
HETATM    8  O   UNK     0     150.818 152.333 151.378  0.00  0.00    -0.398 OA
HETATM    9  H   UNK     0     151.319 151.863 152.066  0.00  0.00     0.209 HD
ENDBRANCH   7   8
ENDBRANCH   5   7
BRANCH   6  10
HETATM   10  O   UNK     0     151.796 157.379 151.702  0.00  0.00    -0.358 OA
BRANCH  10  11
HETATM   11  C   UNK     0     150.857 157.360 150.638  0.00  0.00     0.175 C 
BRANCH  11  12
HETATM   12  C   UNK     0     149.940 158.574 150.738  0.00  0.00     0.065 C 
BRANCH  12  13
HETATM   13  C   UNK     0     148.531 158.268 150.292  0.00  0.00    -0.056 A 
HETATM   14  C   UNK     0     148.149 156.950 150.104  0.00  0.00     0.010 A 
HETATM   15  C   UNK     0     146.847 156.668 149.692  0.00  0.00     0.037 A 
HETATM   16  C   UNK     0     145.944 157.708 149.472  0.00  0.00     0.065 A 
HETATM   17  C   UNK     0     146.343 159.030 149.665  0.00  0.00     0.037 A 
HETATM   18  C   UNK     0     147.645 159.312 150.078  0.00  0.00     0.010 A 
BRANCH  16  19
HETATM   19  O   UNK     0     144.673 157.432 149.070  0.00  0.00    -0.361 OA
HETATM   20  H   UNK     0     144.050 157.809 149.714  0.00  0.00     0.217 HD
ENDBRANCH  16  19
ENDBRANCH  12  13
ENDBRANCH  11  12
ENDBRANCH  10  11
ENDBRANCH   6  10
BRANCH   3  21
HETATM   21  O   UNK     0     153.822 152.307 152.482  0.00  0.00    -0.390 OA
HETATM   22  H   UNK     0     154.497 152.377 153.178  0.00  0.00     0.210 HD
ENDBRANCH   3  21
BRANCH   4  23
HETATM   23  O   UNK     0     153.874 156.976 153.580  0.00  0.00    -0.388 OA
HETATM   24  H   UNK     0     153.402 157.489 154.259  0.00  0.00     0.210 HD
ENDBRANCH   4  23
BRANCH   2  25
HETATM   25  O   UNK     0     153.877 154.227 154.642  0.00  0.00    -0.390 OA
HETATM   26  H   UNK     0     153.341 154.856 155.155  0.00  0.00     0.210 HD
ENDBRANCH   2  25
TORSDOF 10
ENDMDL
MODEL 7
REMARK VINA RESULT:      -7.0      2.443      3.991
REMARK  10 active torsions:
REMARK  status: ('A' for Active; 'I' for Inactive)
REMARK    1  A    between atoms: O_2  and  C_12 
REMARK    2  A    between atoms: O_2  and  C_14 
REMARK    3  A    between atoms: O_3  and  C_8 
REMARK    4  A    between atoms: O_4  and  C_9 
REMARK    5  A    between atoms: O_5  and  C_10 
REMARK    6  A    between atoms: O_6  and  C_13 
REMARK    7  A    between atoms: O_7  and  C_21 
REMARK    8  A    between atoms: C_11  and  C_13 
REMARK    9  A    between atoms: C_14  and  C_15 
REMARK   10  A    between atoms: C_15  and  C_16 
ROOT
HETATM    1  O   UNK     0     153.663 155.790 150.638  0.00  0.00    -0.348 OA
HETATM    2  C   UNK     0     155.773 155.194 152.494  0.00  0.00     0.183 C 
HETATM    3  C   UNK     0     154.880 154.109 151.890  0.00  0.00     0.180 C 
HETATM    4  C   UNK     0     155.091 156.562 152.444  0.00  0.00     0.204 C 
HETATM    5  C   UNK     0     154.348 154.542 150.522  0.00  0.00     0.179 C 
HETATM    6  C   UNK     0     154.522 156.850 151.055  0.00  0.00     0.291 C 
ENDROOT
BRANCH   5   7
HETATM    7  C   UNK     0     153.362 153.528 149.952  0.00  0.00     0.198 C 
BRANCH   7   8
HETATM    8  O   UNK     0     154.037 152.728 148.999  0.00  0.00    -0.398 OA
HETATM    9  H   UNK     0     154.877 152.442 149.397  0.00  0.00     0.209 HD
ENDBRANCH   7   8
ENDBRANCH   5   7
BRANCH   6  10
HETATM   10  O   UNK     0     153.784 158.068 151.127  0.00  0.00    -0.358 OA
BRANCH  10  11
HETATM   11  C   UNK     0     152.617 157.919 151.922  0.00  0.00     0.175 C 
BRANCH  11  12
HETATM   12  C   UNK     0     152.027 159.289 152.234  0.00  0.00     0.065 C 
BRANCH  12  13
HETATM   13  C   UNK     0     150.683 159.498 151.579  0.00  0.00    -0.056 A 
HETATM   14  C   UNK     0     150.011 160.693 151.772  0.00  0.00     0.010 A 
HETATM   15  C   UNK     0     148.770 160.886 151.167  0.00  0.00     0.037 A 
HETATM   16  C   UNK     0     148.216 159.878 150.377  0.00  0.00     0.065 A 
HETATM   17  C   UNK     0     148.903 158.680 150.191  0.00  0.00     0.037 A 
HETATM   18  C   UNK     0     150.145 158.488 150.797  0.00  0.00     0.010 A 
BRANCH  16  19
HETATM   19  O   UNK     0     147.004 160.067 149.786  0.00  0.00    -0.361 OA
HETATM   20  H   UNK     0     147.128 160.578 148.968  0.00  0.00     0.217 HD
ENDBRANCH  16  19
ENDBRANCH  12  13
ENDBRANCH  11  12
ENDBRANCH  10  11
ENDBRANCH   6  10
BRANCH   3  21
HETATM   21  O   UNK     0     155.632 152.907 151.744  0.00  0.00    -0.390 OA
HETATM   22  H   UNK     0     155.971 152.656 152.620  0.00  0.00     0.210 HD
ENDBRANCH   3  21
BRANCH   4  23
HETATM   23  O   UNK     0     156.045 157.578 152.755  0.00  0.00    -0.388 OA
HETATM   24  H   UNK     0     156.332 157.449 153.676  0.00  0.00     0.210 HD
ENDBRANCH   4  23
BRANCH   2  25
HETATM   25  O   UNK     0     156.036 154.843 153.852  0.00  0.00    -0.390 OA
HETATM   26  H   UNK     0     155.707 153.938 153.989  0.00  0.00     0.210 HD
ENDBRANCH   2  25
TORSDOF 10
ENDMDL
MODEL 8
REMARK VINA RESULT:      -7.0      3.884      5.421
REMARK  10 active torsions:
REMARK  status: ('A' for Active; 'I' for Inactive)
REMARK    1  A    between atoms: O_2  and  C_12 
REMARK    2  A    between atoms: O_2  and  C_14 
REMARK    3  A    between atoms: O_3  and  C_8 
REMARK    4  A    between atoms: O_4  and  C_9 
REMARK    5  A    between atoms: O_5  and  C_10 
REMARK    6  A    between atoms: O_6  and  C_13 
REMARK    7  A    between atoms: O_7  and  C_21 
REMARK    8  A    between atoms: C_11  and  C_13 
REMARK    9  A    between atoms: C_14  and  C_15 
REMARK   10  A    between atoms: C_15  and  C_16 
ROOT
HETATM    1  O   UNK     0     152.764 155.933 151.428  0.00  0.00    -0.348 OA
HETATM    2  C   UNK     0     155.093 154.816 152.684  0.00  0.00     0.183 C 
HETATM    3  C   UNK     0     155.061 156.243 152.137  0.00  0.00     0.180 C 
HETATM    4  C   UNK     0     154.026 153.945 152.019  0.00  0.00     0.204 C 
HETATM    5  C   UNK     0     153.636 156.800 152.155  0.00  0.00     0.179 C 
HETATM    6  C   UNK     0     152.664 154.638 152.016  0.00  0.00     0.291 C 
ENDROOT
BRANCH   5   7
HETATM    7  C   UNK     0     153.560 158.178 151.505  0.00  0.00     0.198 C 
BRANCH   7   8
HETATM    8  O   UNK     0     153.813 159.158 152.494  0.00  0.00    -0.398 OA
HETATM    9  H   UNK     0     154.467 158.791 153.113  0.00  0.00     0.209 HD
ENDBRANCH   7   8
ENDBRANCH   5   7
BRANCH   6  10
HETATM   10  O   UNK     0     151.763 153.833 151.259  0.00  0.00    -0.358 OA
BRANCH  10  11
HETATM   11  C   UNK     0     152.053 153.900 149.870  0.00  0.00     0.175 C 
BRANCH  11  12
HETATM   12  C   UNK     0     151.858 152.527 149.236  0.00  0.00     0.065 C 
BRANCH  12  13
HETATM   13  C   UNK     0     152.538 152.414 147.893  0.00  0.00    -0.056 A 
HETATM   14  C   UNK     0     152.452 153.466 146.997  0.00  0.00     0.010 A 
HETATM   15  C   UNK     0     153.080 153.360 145.756  0.00  0.00     0.037 A 
HETATM   16  C   UNK     0     153.786 152.202 145.429  0.00  0.00     0.065 A 
HETATM   17  C   UNK     0     153.864 151.151 146.341  0.00  0.00     0.037 A 
HETATM   18  C   UNK     0     153.236 151.257 147.582  0.00  0.00     0.010 A 
BRANCH  16  19
HETATM   19  O   UNK     0     154.400 152.100 144.218  0.00  0.00    -0.361 OA
HETATM   20  H   UNK     0     154.229 152.911 143.708  0.00  0.00     0.217 HD
ENDBRANCH  16  19
ENDBRANCH  12  13
ENDBRANCH  11  12
ENDBRANCH  10  11
ENDBRANCH   6  10
BRANCH   3  21
HETATM   21  O   UNK     0     155.901 157.072 152.935  0.00  0.00    -0.390 OA
HETATM   22  H   UNK     0     155.358 157.794 153.295  0.00  0.00     0.210 HD
ENDBRANCH   3  21
BRANCH   4  23
HETATM   23  O   UNK     0     153.901 152.718 152.738  0.00  0.00    -0.388 OA
HETATM   24  H   UNK     0     153.198 152.192 152.318  0.00  0.00     0.210 HD
ENDBRANCH   4  23
BRANCH   2  25
HETATM   25  O   UNK     0     156.385 154.270 152.419  0.00  0.00    -0.390 OA
HETATM   26  H   UNK     0     156.934 154.425 153.207  0.00  0.00     0.210 HD
ENDBRANCH   2  25
TORSDOF 10
ENDMDL
MODEL 9
REMARK VINA RESULT:      -6.9      1.096      2.739
REMARK  10 active torsions:
REMARK  status: ('A' for Active; 'I' for Inactive)
REMARK    1  A    between atoms: O_2  and  C_12 
REMARK    2  A    between atoms: O_2  and  C_14 
REMARK    3  A    between atoms: O_3  and  C_8 
REMARK    4  A    between atoms: O_4  and  C_9 
REMARK    5  A    between atoms: O_5  and  C_10 
REMARK    6  A    between atoms: O_6  and  C_13 
REMARK    7  A    between atoms: O_7  and  C_21 
REMARK    8  A    between atoms: C_11  and  C_13 
REMARK    9  A    between atoms: C_14  and  C_15 
REMARK   10  A    between atoms: C_15  and  C_16 
ROOT
HETATM    1  O   UNK     0     152.809 155.373 151.726  0.00  0.00    -0.348 OA
HETATM    2  C   UNK     0     154.809 157.368 152.244  0.00  0.00     0.183 C 
HETATM    3  C   UNK     0     155.012 155.894 152.593  0.00  0.00     0.180 C 
HETATM    4  C   UNK     0     153.322 157.711 152.133  0.00  0.00     0.204 C 
HETATM    5  C   UNK     0     154.187 154.998 151.667  0.00  0.00     0.179 C 
HETATM    6  C   UNK     0     152.583 156.700 151.257  0.00  0.00     0.291 C 
ENDROOT
BRANCH   5   7
HETATM    7  C   UNK     0     154.280 153.530 152.070  0.00  0.00     0.198 C 
BRANCH   7   8
HETATM    8  O   UNK     0     155.583 153.062 151.773  0.00  0.00    -0.398 OA
HETATM    9  H   UNK     0     155.595 152.104 151.933  0.00  0.00     0.209 HD
ENDBRANCH   7   8
ENDBRANCH   5   7
BRANCH   6  10
HETATM   10  O   UNK     0     151.190 157.002 151.319  0.00  0.00    -0.358 OA
BRANCH  10  11
HETATM   11  C   UNK     0     150.456 156.252 150.363  0.00  0.00     0.175 C 
BRANCH  11  12
HETATM   12  C   UNK     0     149.254 155.597 151.033  0.00  0.00     0.065 C 
BRANCH  12  13
HETATM   13  C   UNK     0     147.945 156.056 150.440  0.00  0.00    -0.056 A 
HETATM   14  C   UNK     0     147.729 157.409 150.236  0.00  0.00     0.010 A 
HETATM   15  C   UNK     0     146.518 157.833 149.687  0.00  0.00     0.037 A 
HETATM   16  C   UNK     0     145.539 156.898 149.351  0.00  0.00     0.065 A 
HETATM   17  C   UNK     0     145.771 155.539 149.563  0.00  0.00     0.037 A 
HETATM   18  C   UNK     0     146.981 155.115 150.111  0.00  0.00     0.010 A 
BRANCH  16  19
HETATM   19  O   UNK     0     144.358 157.312 148.816  0.00  0.00    -0.361 OA
HETATM   20  H   UNK     0     143.881 157.842 149.478  0.00  0.00     0.217 HD
ENDBRANCH  16  19
ENDBRANCH  12  13
ENDBRANCH  11  12
ENDBRANCH  10  11
ENDBRANCH   6  10
BRANCH   3  21
HETATM   21  O   UNK     0     156.392 155.564 152.461  0.00  0.00    -0.390 OA
HETATM   22  H   UNK     0     156.453 154.648 152.141  0.00  0.00     0.210 HD
ENDBRANCH   3  21
BRANCH   4  23
HETATM   23  O   UNK     0     153.177 159.003 151.544  0.00  0.00    -0.388 OA
HETATM   24  H   UNK     0     152.236 159.136 151.337  0.00  0.00     0.210 HD
ENDBRANCH   4  23
BRANCH   2  25
HETATM   25  O   UNK     0     155.401 158.153 153.280  0.00  0.00    -0.390 OA
HETATM   26  H   UNK     0     154.766 158.192 154.015  0.00  0.00     0.210 HD
ENDBRANCH   2  25
TORSDOF 10
ENDMDL
MODEL 10
REMARK VINA RESULT:      -6.8      3.211      5.128
REMARK  10 active torsions:
REMARK  status: ('A' for Active; 'I' for Inactive)
REMARK    1  A    between atoms: O_2  and  C_12 
REMARK    2  A    between atoms: O_2  and  C_14 
REMARK    3  A    between atoms: O_3  and  C_8 
REMARK    4  A    between atoms: O_4  and  C_9 
REMARK    5  A    between atoms: O_5  and  C_10 
REMARK    6  A    between atoms: O_6  and  C_13 
REMARK    7  A    between atoms: O_7  and  C_21 
REMARK    8  A    between atoms: C_11  and  C_13 
REMARK    9  A    between atoms: C_14  and  C_15 
REMARK   10  A    between atoms: C_15  and  C_16 
ROOT
HETATM    1  O   UNK     0     153.078 156.279 151.533  0.00  0.00    -0.348 OA
HETATM    2  C   UNK     0     154.690 154.028 152.297  0.00  0.00     0.183 C 
HETATM    3  C   UNK     0     155.273 155.429 152.110  0.00  0.00     0.180 C 
HETATM    4  C   UNK     0     153.375 153.869 151.532  0.00  0.00     0.204 C 
HETATM    5  C   UNK     0     154.211 156.499 152.374  0.00  0.00     0.179 C 
HETATM    6  C   UNK     0     152.429 155.038 151.803  0.00  0.00     0.291 C 
ENDROOT
BRANCH   5   7
HETATM    7  C   UNK     0     154.736 157.900 152.079  0.00  0.00     0.198 C 
BRANCH   7   8
HETATM    8  O   UNK     0     155.392 158.388 153.234  0.00  0.00    -0.398 OA
HETATM    9  H   UNK     0     155.903 157.654 153.616  0.00  0.00     0.209 HD
ENDBRANCH   7   8
ENDBRANCH   5   7
BRANCH   6  10
HETATM   10  O   UNK     0     151.295 154.891 150.950  0.00  0.00    -0.358 OA
BRANCH  10  11
HETATM   11  C   UNK     0     151.617 155.207 149.603  0.00  0.00     0.175 C 
BRANCH  11  12
HETATM   12  C   UNK     0     150.943 154.212 148.665  0.00  0.00     0.065 C 
BRANCH  12  13
HETATM   13  C   UNK     0     151.941 153.392 147.884  0.00  0.00    -0.056 A 
HETATM   14  C   UNK     0     152.394 152.193 148.408  0.00  0.00     0.010 A 
HETATM   15  C   UNK     0     153.316 151.435 147.687  0.00  0.00     0.037 A 
HETATM   16  C   UNK     0     153.774 151.889 146.449  0.00  0.00     0.065 A 
HETATM   17  C   UNK     0     153.309 153.098 145.934  0.00  0.00     0.037 A 
HETATM   18  C   UNK     0     152.387 153.855 146.656  0.00  0.00     0.010 A 
BRANCH  16  19
HETATM   19  O   UNK     0     154.674 151.149 145.745  0.00  0.00    -0.361 OA
HETATM   20  H   UNK     0     154.334 150.243 145.654  0.00  0.00     0.217 HD
ENDBRANCH  16  19
ENDBRANCH  12  13
ENDBRANCH  11  12
ENDBRANCH  10  11
ENDBRANCH   6  10
BRANCH   3  21
HETATM   21  O   UNK     0     156.360 155.611 153.013  0.00  0.00    -0.390 OA
HETATM   22  H   UNK     0     157.007 156.201 152.589  0.00  0.00     0.210 HD
ENDBRANCH   3  21
BRANCH   4  23
HETATM   23  O   UNK     0     152.729 152.665 151.945  0.00  0.00    -0.388 OA
HETATM   24  H   UNK     0     152.616 152.700 152.911  0.00  0.00     0.210 HD
ENDBRANCH   4  23
BRANCH   2  25
HETATM   25  O   UNK     0     155.642 153.084 151.807  0.00  0.00    -0.390 OA
HETATM   26  H   UNK     0     155.169 152.250 151.643  0.00  0.00     0.210 HD
ENDBRANCH   2  25
TORSDOF 10
ENDMDL
