MODEL 1
REMARK VINA RESULT:      -9.1      0.000      0.000
REMARK  6 active torsions:
REMARK  status: ('A' for Active; 'I' for Inactive)
REMARK    1  A    between atoms: O_2  and  C_12 
REMARK    2  A    between atoms: O_3  and  C_14 
REMARK    3  A    between atoms: O_5  and  C_16 
REMARK    4  A    between atoms: O_6  and  C_20 
REMARK    5  A    between atoms: O_7  and  C_22 
REMARK    6  A    between atoms: C_10  and  C_11 
ROOT
HETATM    1  O   UNK     0      32.892   7.224  -4.966  0.00  0.00    -0.306 OA
HETATM    2  O   UNK     0      31.997   5.444  -8.521  0.00  0.00    -0.284 OA
HETATM    3  C   UNK     0      33.620   5.915  -6.876  0.00  0.00     0.084 A 
HETATM    4  C   UNK     0      33.861   6.545  -5.657  0.00  0.00     0.096 A 
HETATM    5  C   UNK     0      31.612   7.274  -5.498  0.00  0.00     0.123 A 
HETATM    6  C   UNK     0      31.251   6.715  -6.668  0.00  0.00     0.152 A 
HETATM    7  C   UNK     0      32.268   5.974  -7.452  0.00  0.00     0.223 A 
HETATM    8  C   UNK     0      34.649   5.238  -7.535  0.00  0.00     0.085 A 
HETATM    9  C   UNK     0      35.136   6.505  -5.091  0.00  0.00     0.075 A 
HETATM   10  C   UNK     0      36.166   5.829  -5.747  0.00  0.00     0.071 A 
HETATM   11  C   UNK     0      35.922   5.198  -6.967  0.00  0.00     0.074 A 
ENDROOT
BRANCH   5  12
HETATM   12  C   UNK     0      30.669   8.032  -4.658  0.00  0.00     0.004 A 
HETATM   13  C   UNK     0      30.438   9.384  -4.913  0.00  0.00     0.053 A 
HETATM   14  C   UNK     0      29.544  10.101  -4.118  0.00  0.00     0.099 A 
HETATM   15  C   UNK     0      28.882   9.466  -3.067  0.00  0.00     0.098 A 
HETATM   16  C   UNK     0      29.112   8.115  -2.812  0.00  0.00     0.040 A 
HETATM   17  C   UNK     0      30.006   7.397  -3.607  0.00  0.00     0.017 A 
BRANCH  14  18
HETATM   18  O   UNK     0      29.328  11.421  -4.375  0.00  0.00    -0.358 OA
HETATM   19  H   UNK     0      28.465  11.688  -4.019  0.00  0.00     0.217 HD
ENDBRANCH  14  18
BRANCH  15  20
HETATM   20  O   UNK     0      28.005  10.156  -2.284  0.00  0.00    -0.358 OA
HETATM   21  H   UNK     0      27.427  10.700  -2.842  0.00  0.00     0.217 HD
ENDBRANCH  15  20
ENDBRANCH   5  12
BRANCH   6  22
HETATM   22  O   UNK     0      29.977   6.810  -7.185  0.00  0.00    -0.355 OA
HETATM   23  H   UNK     0      29.398   7.269  -6.555  0.00  0.00     0.218 HD
ENDBRANCH   6  22
BRANCH   8  24
HETATM   24  O   UNK     0      34.465   4.605  -8.728  0.00  0.00    -0.360 OA
HETATM   25  H   UNK     0      33.521   4.475  -8.903  0.00  0.00     0.217 HD
ENDBRANCH   8  24
BRANCH  10  26
HETATM   26  O   UNK     0      37.410   5.789  -5.195  0.00  0.00    -0.361 OA
HETATM   27  H   UNK     0      38.067   5.978  -5.887  0.00  0.00     0.217 HD
ENDBRANCH  10  26
TORSDOF 6
ENDMDL
MODEL 2
REMARK VINA RESULT:      -8.3      3.242      7.787
REMARK  6 active torsions:
REMARK  status: ('A' for Active; 'I' for Inactive)
REMARK    1  A    between atoms: O_2  and  C_12 
REMARK    2  A    between atoms: O_3  and  C_14 
REMARK    3  A    between atoms: O_5  and  C_16 
REMARK    4  A    between atoms: O_6  and  C_20 
REMARK    5  A    between atoms: O_7  and  C_22 
REMARK    6  A    between atoms: C_10  and  C_11 
ROOT
HETATM    1  O   UNK     0      36.614   6.248  -5.388  0.00  0.00    -0.306 OA
HETATM    2  O   UNK     0      33.474   6.605  -2.815  0.00  0.00    -0.284 OA
HETATM    3  C   UNK     0      34.216   6.218  -5.020  0.00  0.00     0.084 A 
HETATM    4  C   UNK     0      35.331   6.108  -5.848  0.00  0.00     0.096 A 
HETATM    5  C   UNK     0      36.810   6.495  -4.038  0.00  0.00     0.123 A 
HETATM    6  C   UNK     0      35.820   6.631  -3.136  0.00  0.00     0.152 A 
HETATM    7  C   UNK     0      34.415   6.493  -3.589  0.00  0.00     0.223 A 
HETATM    8  C   UNK     0      32.930   6.067  -5.546  0.00  0.00     0.085 A 
HETATM    9  C   UNK     0      35.167   5.850  -7.209  0.00  0.00     0.075 A 
HETATM   10  C   UNK     0      33.885   5.699  -7.737  0.00  0.00     0.071 A 
HETATM   11  C   UNK     0      32.769   5.808  -6.907  0.00  0.00     0.074 A 
ENDROOT
BRANCH   5  12
HETATM   12  C   UNK     0      38.233   6.623  -3.676  0.00  0.00     0.004 A 
HETATM   13  C   UNK     0      39.034   5.485  -3.581  0.00  0.00     0.053 A 
HETATM   14  C   UNK     0      40.381   5.606  -3.239  0.00  0.00     0.099 A 
HETATM   15  C   UNK     0      40.927   6.866  -2.993  0.00  0.00     0.098 A 
HETATM   16  C   UNK     0      40.127   8.004  -3.089  0.00  0.00     0.040 A 
HETATM   17  C   UNK     0      38.779   7.883  -3.431  0.00  0.00     0.017 A 
BRANCH  14  18
HETATM   18  O   UNK     0      41.152   4.488  -3.147  0.00  0.00    -0.358 OA
HETATM   19  H   UNK     0      41.665   4.374  -3.964  0.00  0.00     0.217 HD
ENDBRANCH  14  18
BRANCH  15  20
HETATM   20  O   UNK     0      42.242   6.997  -2.661  0.00  0.00    -0.358 OA
HETATM   21  H   UNK     0      42.595   7.817  -3.041  0.00  0.00     0.217 HD
ENDBRANCH  15  20
ENDBRANCH   5  12
BRANCH   6  22
HETATM   22  O   UNK     0      36.047   6.910  -1.806  0.00  0.00    -0.355 OA
HETATM   23  H   UNK     0      35.628   7.753  -1.569  0.00  0.00     0.218 HD
ENDBRANCH   6  22
BRANCH   8  24
HETATM   24  O   UNK     0      31.807   6.165  -4.781  0.00  0.00    -0.360 OA
HETATM   25  H   UNK     0      31.443   7.062  -4.824  0.00  0.00     0.217 HD
ENDBRANCH   8  24
BRANCH  10  26
HETATM   26  O   UNK     0      33.724   5.445  -9.066  0.00  0.00    -0.361 OA
HETATM   27  H   UNK     0      33.117   6.107  -9.441  0.00  0.00     0.217 HD
ENDBRANCH  10  26
TORSDOF 6
ENDMDL
MODEL 3
REMARK VINA RESULT:      -8.1      3.591      6.209
REMARK  6 active torsions:
REMARK  status: ('A' for Active; 'I' for Inactive)
REMARK    1  A    between atoms: O_2  and  C_12 
REMARK    2  A    between atoms: O_3  and  C_14 
REMARK    3  A    between atoms: O_5  and  C_16 
REMARK    4  A    between atoms: O_6  and  C_20 
REMARK    5  A    between atoms: O_7  and  C_22 
REMARK    6  A    between atoms: C_10  and  C_11 
ROOT
HETATM    1  O   UNK     0      36.861   6.062  -4.941  0.00  0.00    -0.306 OA
HETATM    2  O   UNK     0      37.315   9.992  -3.964  0.00  0.00    -0.284 OA
HETATM    3  C   UNK     0      38.197   7.806  -3.908  0.00  0.00     0.084 A 
HETATM    4  C   UNK     0      37.981   6.477  -4.270  0.00  0.00     0.096 A 
HETATM    5  C   UNK     0      35.908   7.008  -5.286  0.00  0.00     0.123 A 
HETATM    6  C   UNK     0      35.991   8.318  -4.989  0.00  0.00     0.152 A 
HETATM    7  C   UNK     0      37.183   8.812  -4.259  0.00  0.00     0.223 A 
HETATM    8  C   UNK     0      39.359   8.170  -3.223  0.00  0.00     0.085 A 
HETATM    9  C   UNK     0      38.927   5.504  -3.946  0.00  0.00     0.075 A 
HETATM   10  C   UNK     0      40.088   5.865  -3.262  0.00  0.00     0.071 A 
HETATM   11  C   UNK     0      40.303   7.195  -2.901  0.00  0.00     0.074 A 
ENDROOT
BRANCH   5  12
HETATM   12  C   UNK     0      34.757   6.430  -6.002  0.00  0.00     0.004 A 
HETATM   13  C   UNK     0      34.783   6.322  -7.392  0.00  0.00     0.053 A 
HETATM   14  C   UNK     0      33.694   5.775  -8.070  0.00  0.00     0.099 A 
HETATM   15  C   UNK     0      32.578   5.336  -7.357  0.00  0.00     0.098 A 
HETATM   16  C   UNK     0      32.552   5.443  -5.967  0.00  0.00     0.040 A 
HETATM   17  C   UNK     0      33.642   5.990  -5.289  0.00  0.00     0.017 A 
BRANCH  14  18
HETATM   18  O   UNK     0      33.729   5.677  -9.428  0.00  0.00    -0.358 OA
HETATM   19  H   UNK     0      33.511   6.536  -9.825  0.00  0.00     0.217 HD
ENDBRANCH  14  18
BRANCH  15  20
HETATM   20  O   UNK     0      31.509   4.797  -8.008  0.00  0.00    -0.358 OA
HETATM   21  H   UNK     0      31.646   3.845  -8.130  0.00  0.00     0.217 HD
ENDBRANCH  15  20
ENDBRANCH   5  12
BRANCH   6  22
HETATM   22  O   UNK     0      35.010   9.228  -5.318  0.00  0.00    -0.355 OA
HETATM   23  H   UNK     0      34.198   9.032  -4.821  0.00  0.00     0.218 HD
ENDBRANCH   6  22
BRANCH   8  24
HETATM   24  O   UNK     0      39.618   9.454  -2.847  0.00  0.00    -0.360 OA
HETATM   25  H   UNK     0      40.293   9.476  -2.152  0.00  0.00     0.217 HD
ENDBRANCH   8  24
BRANCH  10  26
HETATM   26  O   UNK     0      41.012   4.916  -2.946  0.00  0.00    -0.361 OA
HETATM   27  H   UNK     0      40.608   4.037  -3.047  0.00  0.00     0.217 HD
ENDBRANCH  10  26
TORSDOF 6
ENDMDL
MODEL 4
REMARK VINA RESULT:      -8.1      2.180      6.790
REMARK  6 active torsions:
REMARK  status: ('A' for Active; 'I' for Inactive)
REMARK    1  A    between atoms: O_2  and  C_12 
REMARK    2  A    between atoms: O_3  and  C_14 
REMARK    3  A    between atoms: O_5  and  C_16 
REMARK    4  A    between atoms: O_6  and  C_20 
REMARK    5  A    between atoms: O_7  and  C_22 
REMARK    6  A    between atoms: C_10  and  C_11 
ROOT
HETATM    1  O   UNK     0      34.591   7.247  -5.254  0.00  0.00    -0.306 OA
HETATM    2  O   UNK     0      34.369   4.493  -8.249  0.00  0.00    -0.284 OA
HETATM    3  C   UNK     0      33.250   6.070  -6.899  0.00  0.00     0.084 A 
HETATM    4  C   UNK     0      33.392   6.998  -5.869  0.00  0.00     0.096 A 
HETATM    5  C   UNK     0      35.712   6.556  -5.685  0.00  0.00     0.123 A 
HETATM    6  C   UNK     0      35.709   5.630  -6.662  0.00  0.00     0.152 A 
HETATM    7  C   UNK     0      34.433   5.324  -7.353  0.00  0.00     0.223 A 
HETATM    8  C   UNK     0      32.001   5.857  -7.488  0.00  0.00     0.085 A 
HETATM    9  C   UNK     0      32.283   7.717  -5.419  0.00  0.00     0.075 A 
HETATM   10  C   UNK     0      31.035   7.505  -6.006  0.00  0.00     0.071 A 
HETATM   11  C   UNK     0      30.895   6.577  -7.038  0.00  0.00     0.074 A 
ENDROOT
BRANCH   5  12
HETATM   12  C   UNK     0      36.932   6.918  -4.943  0.00  0.00     0.004 A 
HETATM   13  C   UNK     0      37.741   5.920  -4.400  0.00  0.00     0.053 A 
HETATM   14  C   UNK     0      38.896   6.264  -3.697  0.00  0.00     0.099 A 
HETATM   15  C   UNK     0      39.242   7.606  -3.538  0.00  0.00     0.098 A 
HETATM   16  C   UNK     0      38.434   8.604  -4.082  0.00  0.00     0.040 A 
HETATM   17  C   UNK     0      37.279   8.261  -4.784  0.00  0.00     0.017 A 
BRANCH  14  18
HETATM   18  O   UNK     0      39.677   5.281  -3.169  0.00  0.00    -0.358 OA
HETATM   19  H   UNK     0      39.367   5.059  -2.276  0.00  0.00     0.217 HD
ENDBRANCH  14  18
BRANCH  15  20
HETATM   20  O   UNK     0      40.369   7.954  -2.856  0.00  0.00    -0.358 OA
HETATM   21  H   UNK     0      40.291   8.867  -2.537  0.00  0.00     0.217 HD
ENDBRANCH  15  20
ENDBRANCH   5  12
BRANCH   6  22
HETATM   22  O   UNK     0      36.836   4.937  -7.046  0.00  0.00    -0.355 OA
HETATM   23  H   UNK     0      36.834   4.054  -6.640  0.00  0.00     0.218 HD
ENDBRANCH   6  22
BRANCH   8  24
HETATM   24  O   UNK     0      31.808   4.962  -8.498  0.00  0.00    -0.360 OA
HETATM   25  H   UNK     0      31.019   5.193  -9.011  0.00  0.00     0.217 HD
ENDBRANCH   8  24
BRANCH  10  26
HETATM   26  O   UNK     0      29.953   8.207  -5.568  0.00  0.00    -0.361 OA
HETATM   27  H   UNK     0      29.277   8.211  -6.268  0.00  0.00     0.217 HD
ENDBRANCH  10  26
TORSDOF 6
ENDMDL
MODEL 5
REMARK VINA RESULT:      -7.8      1.567      7.122
REMARK  6 active torsions:
REMARK  status: ('A' for Active; 'I' for Inactive)
REMARK    1  A    between atoms: O_2  and  C_12 
REMARK    2  A    between atoms: O_3  and  C_14 
REMARK    3  A    between atoms: O_5  and  C_16 
REMARK    4  A    between atoms: O_6  and  C_20 
REMARK    5  A    between atoms: O_7  and  C_22 
REMARK    6  A    between atoms: C_10  and  C_11 
ROOT
HETATM    1  O   UNK     0      31.381   7.706  -4.944  0.00  0.00    -0.306 OA
HETATM    2  O   UNK     0      32.165  11.673  -4.441  0.00  0.00    -0.284 OA
HETATM    3  C   UNK     0      30.689   9.869  -4.087  0.00  0.00     0.084 A 
HETATM    4  C   UNK     0      30.480   8.506  -4.292  0.00  0.00     0.096 A 
HETATM    5  C   UNK     0      32.558   8.275  -5.407  0.00  0.00     0.123 A 
HETATM    6  C   UNK     0      32.876   9.577  -5.282  0.00  0.00     0.152 A 
HETATM    7  C   UNK     0      31.929  10.482  -4.587  0.00  0.00     0.223 A 
HETATM    8  C   UNK     0      29.733  10.635  -3.415  0.00  0.00     0.085 A 
HETATM    9  C   UNK     0      29.311   7.902  -3.828  0.00  0.00     0.075 A 
HETATM   10  C   UNK     0      28.355   8.665  -3.157  0.00  0.00     0.071 A 
HETATM   11  C   UNK     0      28.566  10.029  -2.952  0.00  0.00     0.074 A 
ENDROOT
BRANCH   5  12
HETATM   12  C   UNK     0      33.436   7.307  -6.087  0.00  0.00     0.004 A 
HETATM   13  C   UNK     0      33.173   6.931  -7.404  0.00  0.00     0.053 A 
HETATM   14  C   UNK     0      34.005   6.015  -8.048  0.00  0.00     0.099 A 
HETATM   15  C   UNK     0      35.101   5.475  -7.374  0.00  0.00     0.098 A 
HETATM   16  C   UNK     0      35.365   5.852  -6.057  0.00  0.00     0.040 A 
HETATM   17  C   UNK     0      34.533   6.768  -5.414  0.00  0.00     0.017 A 
BRANCH  14  18
HETATM   18  O   UNK     0      33.737   5.652  -9.333  0.00  0.00    -0.358 OA
HETATM   19  H   UNK     0      33.849   6.417  -9.920  0.00  0.00     0.217 HD
ENDBRANCH  14  18
BRANCH  15  20
HETATM   20  O   UNK     0      35.922   4.581  -7.992  0.00  0.00    -0.358 OA
HETATM   21  H   UNK     0      36.397   5.019  -8.716  0.00  0.00     0.217 HD
ENDBRANCH  15  20
ENDBRANCH   5  12
BRANCH   6  22
HETATM   22  O   UNK     0      34.040  10.118  -5.783  0.00  0.00    -0.355 OA
HETATM   23  H   UNK     0      34.032  10.078  -6.753  0.00  0.00     0.218 HD
ENDBRANCH   6  22
BRANCH   8  24
HETATM   24  O   UNK     0      29.889  11.970  -3.189  0.00  0.00    -0.360 OA
HETATM   25  H   UNK     0      29.629  12.194  -2.283  0.00  0.00     0.217 HD
ENDBRANCH   8  24
BRANCH  10  26
HETATM   26  O   UNK     0      27.213   8.077  -2.704  0.00  0.00    -0.361 OA
HETATM   27  H   UNK     0      27.270   7.118  -2.859  0.00  0.00     0.217 HD
ENDBRANCH  10  26
TORSDOF 6
ENDMDL
MODEL 6
REMARK VINA RESULT:      -7.4     19.840     20.947
REMARK  6 active torsions:
REMARK  status: ('A' for Active; 'I' for Inactive)
REMARK    1  A    between atoms: O_2  and  C_12 
REMARK    2  A    between atoms: O_3  and  C_14 
REMARK    3  A    between atoms: O_5  and  C_16 
REMARK    4  A    between atoms: O_6  and  C_20 
REMARK    5  A    between atoms: O_7  and  C_22 
REMARK    6  A    between atoms: C_10  and  C_11 
ROOT
HETATM    1  O   UNK     0      36.453  -0.184  12.637  0.00  0.00    -0.306 OA
HETATM    2  O   UNK     0      40.174  -1.841  12.503  0.00  0.00    -0.284 OA
HETATM    3  C   UNK     0      37.889  -2.013  11.943  0.00  0.00     0.084 A 
HETATM    4  C   UNK     0      36.643  -1.394  12.024  0.00  0.00     0.096 A 
HETATM    5  C   UNK     0      37.551   0.458  13.190  0.00  0.00     0.123 A 
HETATM    6  C   UNK     0      38.804  -0.035  13.187  0.00  0.00     0.152 A 
HETATM    7  C   UNK     0      39.056  -1.344  12.538  0.00  0.00     0.223 A 
HETATM    8  C   UNK     0      38.022  -3.249  11.306  0.00  0.00     0.085 A 
HETATM    9  C   UNK     0      35.521  -2.010  11.468  0.00  0.00     0.075 A 
HETATM   10  C   UNK     0      35.651  -3.244  10.831  0.00  0.00     0.071 A 
HETATM   11  C   UNK     0      36.899  -3.862  10.751  0.00  0.00     0.074 A 
ENDROOT
BRANCH   5  12
HETATM   12  C   UNK     0      37.209   1.747  13.816  0.00  0.00     0.004 A 
HETATM   13  C   UNK     0      36.946   1.811  15.184  0.00  0.00     0.053 A 
HETATM   14  C   UNK     0      36.622   3.031  15.776  0.00  0.00     0.099 A 
HETATM   15  C   UNK     0      36.563   4.189  15.000  0.00  0.00     0.098 A 
HETATM   16  C   UNK     0      36.827   4.126  13.632  0.00  0.00     0.040 A 
HETATM   17  C   UNK     0      37.151   2.905  13.039  0.00  0.00     0.017 A 
BRANCH  14  18
HETATM   18  O   UNK     0      36.364   3.081  17.112  0.00  0.00    -0.358 OA
HETATM   19  H   UNK     0      35.454   3.385  17.260  0.00  0.00     0.217 HD
ENDBRANCH  14  18
BRANCH  15  20
HETATM   20  O   UNK     0      36.250   5.388  15.567  0.00  0.00    -0.358 OA
HETATM   21  H   UNK     0      36.195   6.071  14.881  0.00  0.00     0.217 HD
ENDBRANCH  15  20
ENDBRANCH   5  12
BRANCH   6  22
HETATM   22  O   UNK     0      39.869   0.613  13.774  0.00  0.00    -0.355 OA
HETATM   23  H   UNK     0      40.361  -0.005  14.338  0.00  0.00     0.218 HD
ENDBRANCH   6  22
BRANCH   8  24
HETATM   24  O   UNK     0      39.217  -3.896  11.199  0.00  0.00    -0.360 OA
HETATM   25  H   UNK     0      39.744  -3.522  10.477  0.00  0.00     0.217 HD
ENDBRANCH   8  24
BRANCH  10  26
HETATM   26  O   UNK     0      34.556  -3.846  10.288  0.00  0.00    -0.361 OA
HETATM   27  H   UNK     0      33.756  -3.443  10.666  0.00  0.00     0.217 HD
ENDBRANCH  10  26
TORSDOF 6
ENDMDL
MODEL 7
REMARK VINA RESULT:      -7.3     19.495     21.280
REMARK  6 active torsions:
REMARK  status: ('A' for Active; 'I' for Inactive)
REMARK    1  A    between atoms: O_2  and  C_12 
REMARK    2  A    between atoms: O_3  and  C_14 
REMARK    3  A    between atoms: O_5  and  C_16 
REMARK    4  A    between atoms: O_6  and  C_20 
REMARK    5  A    between atoms: O_7  and  C_22 
REMARK    6  A    between atoms: C_10  and  C_11 
ROOT
HETATM    1  O   UNK     0      36.007  -1.863  12.400  0.00  0.00    -0.306 OA
HETATM    2  O   UNK     0      40.071  -1.586  12.488  0.00  0.00    -0.284 OA
HETATM    3  C   UNK     0      37.993  -0.667  13.118  0.00  0.00     0.084 A 
HETATM    4  C   UNK     0      36.609  -0.818  13.051  0.00  0.00     0.096 A 
HETATM    5  C   UNK     0      36.809  -2.817  11.794  0.00  0.00     0.123 A 
HETATM    6  C   UNK     0      38.155  -2.783  11.779  0.00  0.00     0.152 A 
HETATM    7  C   UNK     0      38.850  -1.669  12.466  0.00  0.00     0.223 A 
HETATM    8  C   UNK     0      38.551   0.420  13.795  0.00  0.00     0.085 A 
HETATM    9  C   UNK     0      35.774   0.120  13.659  0.00  0.00     0.075 A 
HETATM   10  C   UNK     0      36.329   1.206  14.336  0.00  0.00     0.071 A 
HETATM   11  C   UNK     0      37.714   1.356  14.403  0.00  0.00     0.074 A 
ENDROOT
BRANCH   5  12
HETATM   12  C   UNK     0      36.037  -3.883  11.132  0.00  0.00     0.004 A 
HETATM   13  C   UNK     0      35.248  -3.586  10.021  0.00  0.00     0.053 A 
HETATM   14  C   UNK     0      34.517  -4.596   9.395  0.00  0.00     0.099 A 
HETATM   15  C   UNK     0      34.575  -5.903   9.880  0.00  0.00     0.098 A 
HETATM   16  C   UNK     0      35.365  -6.199  10.991  0.00  0.00     0.040 A 
HETATM   17  C   UNK     0      36.096  -5.190  11.617  0.00  0.00     0.017 A 
BRANCH  14  18
HETATM   18  O   UNK     0      33.748  -4.294   8.312  0.00  0.00    -0.358 OA
HETATM   19  H   UNK     0      32.815  -4.247   8.575  0.00  0.00     0.217 HD
ENDBRANCH  14  18
BRANCH  15  20
HETATM   20  O   UNK     0      33.868  -6.897   9.275  0.00  0.00    -0.358 OA
HETATM   21  H   UNK     0      34.009  -7.733   9.747  0.00  0.00     0.217 HD
ENDBRANCH  15  20
ENDBRANCH   5  12
BRANCH   6  22
HETATM   22  O   UNK     0      38.924  -3.731  11.139  0.00  0.00    -0.355 OA
HETATM   23  H   UNK     0      38.803  -3.660  10.178  0.00  0.00     0.218 HD
ENDBRANCH   6  22
BRANCH   8  24
HETATM   24  O   UNK     0      39.897   0.614  13.891  0.00  0.00    -0.360 OA
HETATM   25  H   UNK     0      40.089   1.468  14.307  0.00  0.00     0.217 HD
ENDBRANCH   8  24
BRANCH  10  26
HETATM   26  O   UNK     0      35.515   2.122  14.931  0.00  0.00    -0.361 OA
HETATM   27  H   UNK     0      35.413   2.886  14.336  0.00  0.00     0.217 HD
ENDBRANCH  10  26
TORSDOF 6
ENDMDL
MODEL 8
REMARK VINA RESULT:      -7.3      3.230      3.727
REMARK  6 active torsions:
REMARK  status: ('A' for Active; 'I' for Inactive)
REMARK    1  A    between atoms: O_2  and  C_12 
REMARK    2  A    between atoms: O_3  and  C_14 
REMARK    3  A    between atoms: O_5  and  C_16 
REMARK    4  A    between atoms: O_6  and  C_20 
REMARK    5  A    between atoms: O_7  and  C_22 
REMARK    6  A    between atoms: C_10  and  C_11 
ROOT
HETATM    1  O   UNK     0      34.588   6.534  -4.391  0.00  0.00    -0.306 OA
HETATM    2  O   UNK     0      31.061   6.546  -6.433  0.00  0.00    -0.284 OA
HETATM    3  C   UNK     0      33.356   6.000  -6.413  0.00  0.00     0.084 A 
HETATM    4  C   UNK     0      34.530   6.026  -5.663  0.00  0.00     0.096 A 
HETATM    5  C   UNK     0      33.425   7.030  -3.823  0.00  0.00     0.123 A 
HETATM    6  C   UNK     0      32.231   7.071  -4.442  0.00  0.00     0.152 A 
HETATM    7  C   UNK     0      32.121   6.537  -5.821  0.00  0.00     0.223 A 
HETATM    8  C   UNK     0      33.357   5.471  -7.706  0.00  0.00     0.085 A 
HETATM    9  C   UNK     0      35.715   5.525  -6.204  0.00  0.00     0.075 A 
HETATM   10  C   UNK     0      35.719   4.996  -7.494  0.00  0.00     0.071 A 
HETATM   11  C   UNK     0      34.542   4.969  -8.244  0.00  0.00     0.074 A 
ENDROOT
BRANCH   5  12
HETATM   12  C   UNK     0      33.626   7.543  -2.457  0.00  0.00     0.004 A 
HETATM   13  C   UNK     0      33.746   8.916  -2.237  0.00  0.00     0.053 A 
HETATM   14  C   UNK     0      33.936   9.401  -0.943  0.00  0.00     0.099 A 
HETATM   15  C   UNK     0      34.006   8.514   0.132  0.00  0.00     0.098 A 
HETATM   16  C   UNK     0      33.885   7.142  -0.088  0.00  0.00     0.040 A 
HETATM   17  C   UNK     0      33.695   6.656  -1.382  0.00  0.00     0.017 A 
BRANCH  14  18
HETATM   18  O   UNK     0      34.054  10.743  -0.740  0.00  0.00    -0.358 OA
HETATM   19  H   UNK     0      34.018  11.208  -1.592  0.00  0.00     0.217 HD
ENDBRANCH  14  18
BRANCH  15  20
HETATM   20  O   UNK     0      34.189   8.976   1.400  0.00  0.00    -0.358 OA
HETATM   21  H   UNK     0      34.127   8.240   2.029  0.00  0.00     0.217 HD
ENDBRANCH  15  20
ENDBRANCH   5  12
BRANCH   6  22
HETATM   22  O   UNK     0      31.100   7.601  -3.860  0.00  0.00    -0.355 OA
HETATM   23  H   UNK     0      30.748   8.316  -4.415  0.00  0.00     0.218 HD
ENDBRANCH   6  22
BRANCH   8  24
HETATM   24  O   UNK     0      32.237   5.421  -8.481  0.00  0.00    -0.360 OA
HETATM   25  H   UNK     0      32.462   5.555  -9.414  0.00  0.00     0.217 HD
ENDBRANCH   8  24
BRANCH  10  26
HETATM   26  O   UNK     0      36.874   4.506  -8.023  0.00  0.00    -0.361 OA
HETATM   27  H   UNK     0      36.767   3.552  -8.185  0.00  0.00     0.217 HD
ENDBRANCH  10  26
TORSDOF 6
ENDMDL
MODEL 9
REMARK VINA RESULT:      -7.2      2.385      6.816
REMARK  6 active torsions:
REMARK  status: ('A' for Active; 'I' for Inactive)
REMARK    1  A    between atoms: O_2  and  C_12 
REMARK    2  A    between atoms: O_3  and  C_14 
REMARK    3  A    between atoms: O_5  and  C_16 
REMARK    4  A    between atoms: O_6  and  C_20 
REMARK    5  A    between atoms: O_7  and  C_22 
REMARK    6  A    between atoms: C_10  and  C_11 
ROOT
HETATM    1  O   UNK     0      32.961   9.586  -5.218  0.00  0.00    -0.306 OA
HETATM    2  O   UNK     0      30.413   8.838  -2.127  0.00  0.00    -0.284 OA
HETATM    3  C   UNK     0      31.688  10.418  -3.326  0.00  0.00     0.084 A 
HETATM    4  C   UNK     0      32.558  10.608  -4.398  0.00  0.00     0.096 A 
HETATM    5  C   UNK     0      32.472   8.312  -4.977  0.00  0.00     0.123 A 
HETATM    6  C   UNK     0      31.634   7.994  -3.972  0.00  0.00     0.152 A 
HETATM    7  C   UNK     0      31.175   9.066  -3.057  0.00  0.00     0.223 A 
HETATM    8  C   UNK     0      31.312  11.498  -2.524  0.00  0.00     0.085 A 
HETATM    9  C   UNK     0      33.060  11.881  -4.673  0.00  0.00     0.075 A 
HETATM   10  C   UNK     0      32.686  12.961  -3.873  0.00  0.00     0.071 A 
HETATM   11  C   UNK     0      31.815  12.770  -2.801  0.00  0.00     0.074 A 
ENDROOT
BRANCH   5  12
HETATM   12  C   UNK     0      32.982   7.310  -5.928  0.00  0.00     0.004 A 
HETATM   13  C   UNK     0      32.124   6.738  -6.867  0.00  0.00     0.053 A 
HETATM   14  C   UNK     0      32.608   5.789  -7.768  0.00  0.00     0.099 A 
HETATM   15  C   UNK     0      33.952   5.413  -7.730  0.00  0.00     0.098 A 
HETATM   16  C   UNK     0      34.810   5.985  -6.792  0.00  0.00     0.040 A 
HETATM   17  C   UNK     0      34.326   6.934  -5.890  0.00  0.00     0.017 A 
BRANCH  14  18
HETATM   18  O   UNK     0      31.761   5.235  -8.679  0.00  0.00    -0.358 OA
HETATM   19  H   UNK     0      31.686   5.816  -9.454  0.00  0.00     0.217 HD
ENDBRANCH  14  18
BRANCH  15  20
HETATM   20  O   UNK     0      34.437   4.489  -8.606  0.00  0.00    -0.358 OA
HETATM   21  H   UNK     0      34.962   4.932  -9.291  0.00  0.00     0.217 HD
ENDBRANCH  15  20
ENDBRANCH   5  12
BRANCH   6  22
HETATM   22  O   UNK     0      31.191   6.710  -3.739  0.00  0.00    -0.355 OA
HETATM   23  H   UNK     0      30.251   6.638  -3.972  0.00  0.00     0.218 HD
ENDBRANCH   6  22
BRANCH   8  24
HETATM   24  O   UNK     0      30.465  11.367  -1.464  0.00  0.00    -0.360 OA
HETATM   25  H   UNK     0      30.010  12.204  -1.287  0.00  0.00     0.217 HD
ENDBRANCH   8  24
BRANCH  10  26
HETATM   26  O   UNK     0      33.175  14.204  -4.140  0.00  0.00    -0.361 OA
HETATM   27  H   UNK     0      33.035  14.401  -5.083  0.00  0.00     0.217 HD
ENDBRANCH  10  26
TORSDOF 6
ENDMDL
