REMARK  Name = 439533
REMARK                            x       y       z     vdW  Elec       q    Type
REMARK                         _______ _______ _______ _____ _____    ______ ____
ROOT
ATOM      1  O   LIG    1        0.279  -0.874   0.093  0.00  0.00    -0.480 OA
ATOM      2  C   LIG    1        1.641  -0.743   0.044  0.00  0.00    +0.139 A 
ATOM      3  C   LIG    1        2.383  -1.925   0.079  0.00  0.00    +0.092 A 
ATOM      4  C   LIG    1        3.777  -1.876   0.037  0.00  0.00    +0.124 A 
ATOM      5  C   LIG    1        4.431  -0.647  -0.049  0.00  0.00    +0.091 A 
ATOM      6  C   LIG    1        3.696   0.536  -0.103  0.00  0.00    +0.134 A 
ATOM     11  C   LIG    1        2.300   0.484  -0.065  0.00  0.00    +0.103 A 
ATOM     12  C   LIG    1        1.502   1.722  -0.170  0.00  0.00    +0.202 C 
ATOM     13  C   LIG    1        0.007   1.527  -0.300  0.00  0.00    +0.230 C 
ATOM     16  O   LIG    1        2.040   2.823  -0.180  0.00  0.00    -0.289 OA
ATOM     17  C   LIG    1       -0.404   0.311   0.531  0.00  0.00    +0.240 C 
ENDROOT
BRANCH  17  18
ATOM     18  C   LIG    1       -1.892   0.036   0.428  0.00  0.00    -0.001 A 
ATOM     19  C   LIG    1       -2.679   0.028   1.578  0.00  0.00    +0.011 A 
ATOM     20  C   LIG    1       -4.047  -0.225   1.483  0.00  0.00    +0.049 A 
ATOM     21  C   LIG    1       -4.626  -0.468   0.237  0.00  0.00    +0.158 A 
ATOM     22  C   LIG    1       -3.837  -0.460  -0.913  0.00  0.00    +0.159 A 
ATOM     27  C   LIG    1       -2.468  -0.207  -0.817  0.00  0.00    +0.056 A 
BRANCH  22  23
ATOM     23  O   LIG    1       -4.391  -0.697  -2.134  0.00  0.00    -0.503 OA
ATOM     24  H   LIG    1       -5.344  -0.851  -2.013  0.00  0.00    +0.292 HD
ENDBRANCH  22  23
BRANCH  21  25
ATOM     25  O   LIG    1       -5.963  -0.715   0.157  0.00  0.00    -0.503 OA
ATOM     26  H   LIG    1       -6.346  -0.681   1.051  0.00  0.00    +0.292 HD
ENDBRANCH  21  25
ENDBRANCH  17  18
BRANCH   6   7
ATOM      7  O   LIG    1        4.386   1.706  -0.206  0.00  0.00    -0.506 OA
ATOM      8  H   LIG    1        3.779   2.461  -0.232  0.00  0.00    +0.292 HD
ENDBRANCH   6   7
BRANCH   4   9
ATOM      9  O   LIG    1        4.499  -3.029   0.082  0.00  0.00    -0.507 OA
ATOM     10  H   LIG    1        3.887  -3.783   0.141  0.00  0.00    +0.292 HD
ENDBRANCH   4   9
BRANCH  13  14
ATOM     14  O   LIG    1       -0.634   2.692   0.189  0.00  0.00    -0.380 OA
ATOM     15  H   LIG    1       -0.407   3.425  -0.409  0.00  0.00    +0.211 HD
ENDBRANCH  13  14
TORSDOF 6
