MODEL 1
REMARK VINA RESULT:      -7.1      0.000      0.000
REMARK  6 active torsions:
REMARK  status: ('A' for Active; 'I' for Inactive)
REMARK    1  A    between atoms: O_2  and  C_12 
REMARK    2  A    between atoms: O_3  and  C_14 
REMARK    3  A    between atoms: O_5  and  C_16 
REMARK    4  A    between atoms: O_6  and  C_20 
REMARK    5  A    between atoms: O_7  and  C_22 
REMARK    6  A    between atoms: C_10  and  C_11 
ROOT
HETATM    1  O   UNK     0      -5.813   1.522 -23.412  0.00  0.00    -0.306 OA
HETATM    2  O   UNK     0      -7.775   5.000 -24.224  0.00  0.00    -0.284 OA
HETATM    3  C   UNK     0      -7.766   2.928 -23.097  0.00  0.00     0.084 A 
HETATM    4  C   UNK     0      -7.044   1.759 -22.860  0.00  0.00     0.096 A 
HETATM    5  C   UNK     0      -5.256   2.492 -24.231  0.00  0.00     0.123 A 
HETATM    6  C   UNK     0      -5.851   3.658 -24.545  0.00  0.00     0.152 A 
HETATM    7  C   UNK     0      -7.186   3.956 -23.975  0.00  0.00     0.223 A 
HETATM    8  C   UNK     0      -9.018   3.115 -22.507  0.00  0.00     0.085 A 
HETATM    9  C   UNK     0      -7.574   0.768 -22.033  0.00  0.00     0.075 A 
HETATM   10  C   UNK     0      -8.824   0.952 -21.442  0.00  0.00     0.071 A 
HETATM   11  C   UNK     0      -9.544   2.123 -21.679  0.00  0.00     0.074 A 
ENDROOT
BRANCH   5  12
HETATM   12  C   UNK     0      -3.933   2.111 -24.757  0.00  0.00     0.004 A 
HETATM   13  C   UNK     0      -3.814   1.030 -25.630  0.00  0.00     0.053 A 
HETATM   14  C   UNK     0      -2.562   0.670 -26.128  0.00  0.00     0.099 A 
HETATM   15  C   UNK     0      -1.428   1.392 -25.752  0.00  0.00     0.098 A 
HETATM   16  C   UNK     0      -1.548   2.474 -24.880  0.00  0.00     0.040 A 
HETATM   17  C   UNK     0      -2.800   2.834 -24.382  0.00  0.00     0.017 A 
BRANCH  14  18
HETATM   18  O   UNK     0      -2.456  -0.389 -26.978  0.00  0.00    -0.358 OA
HETATM   19  H   UNK     0      -2.698  -0.113 -27.877  0.00  0.00     0.217 HD
ENDBRANCH  14  18
BRANCH  15  20
HETATM   20  O   UNK     0      -0.200   1.052 -26.234  0.00  0.00    -0.358 OA
HETATM   21  H   UNK     0      -0.263   0.856 -27.182  0.00  0.00     0.217 HD
ENDBRANCH  15  20
ENDBRANCH   5  12
BRANCH   6  22
HETATM   22  O   UNK     0      -5.284   4.588 -25.389  0.00  0.00    -0.355 OA
HETATM   23  H   UNK     0      -5.100   5.407 -24.901  0.00  0.00     0.218 HD
ENDBRANCH   6  22
BRANCH   8  24
HETATM   24  O   UNK     0      -9.764   4.238 -22.706  0.00  0.00    -0.360 OA
HETATM   25  H   UNK     0     -10.688   4.080 -22.463  0.00  0.00     0.217 HD
ENDBRANCH   8  24
BRANCH  10  26
HETATM   26  O   UNK     0      -9.342  -0.014 -20.634  0.00  0.00    -0.361 OA
HETATM   27  H   UNK     0     -10.170   0.313 -20.242  0.00  0.00     0.217 HD
ENDBRANCH  10  26
TORSDOF 6
ENDMDL
MODEL 2
REMARK VINA RESULT:      -6.9      0.626      1.474
REMARK  6 active torsions:
REMARK  status: ('A' for Active; 'I' for Inactive)
REMARK    1  A    between atoms: O_2  and  C_12 
REMARK    2  A    between atoms: O_3  and  C_14 
REMARK    3  A    between atoms: O_5  and  C_16 
REMARK    4  A    between atoms: O_6  and  C_20 
REMARK    5  A    between atoms: O_7  and  C_22 
REMARK    6  A    between atoms: C_10  and  C_11 
ROOT
HETATM    1  O   UNK     0      -5.800   1.591 -23.424  0.00  0.00    -0.306 OA
HETATM    2  O   UNK     0      -7.811   5.037 -24.253  0.00  0.00    -0.284 OA
HETATM    3  C   UNK     0      -7.779   2.964 -23.128  0.00  0.00     0.084 A 
HETATM    4  C   UNK     0      -7.041   1.808 -22.885  0.00  0.00     0.096 A 
HETATM    5  C   UNK     0      -5.251   2.571 -24.236  0.00  0.00     0.123 A 
HETATM    6  C   UNK     0      -5.861   3.727 -24.556  0.00  0.00     0.152 A 
HETATM    7  C   UNK     0      -7.208   4.003 -23.999  0.00  0.00     0.223 A 
HETATM    8  C   UNK     0      -9.041   3.130 -22.551  0.00  0.00     0.085 A 
HETATM    9  C   UNK     0      -7.563   0.807 -22.064  0.00  0.00     0.075 A 
HETATM   10  C   UNK     0      -8.822   0.970 -21.486  0.00  0.00     0.071 A 
HETATM   11  C   UNK     0      -9.559   2.129 -21.730  0.00  0.00     0.074 A 
ENDROOT
BRANCH   5  12
HETATM   12  C   UNK     0      -3.917   2.213 -24.748  0.00  0.00     0.004 A 
HETATM   13  C   UNK     0      -2.803   2.972 -24.387  0.00  0.00     0.053 A 
HETATM   14  C   UNK     0      -1.540   2.632 -24.872  0.00  0.00     0.099 A 
HETATM   15  C   UNK     0      -1.391   1.533 -25.718  0.00  0.00     0.098 A 
HETATM   16  C   UNK     0      -2.504   0.773 -26.079  0.00  0.00     0.040 A 
HETATM   17  C   UNK     0      -3.767   1.113 -25.594  0.00  0.00     0.017 A 
BRANCH  14  18
HETATM   18  O   UNK     0      -0.461   3.381 -24.515  0.00  0.00    -0.358 OA
HETATM   19  H   UNK     0      -0.422   3.462 -23.548  0.00  0.00     0.217 HD
ENDBRANCH  14  18
BRANCH  15  20
HETATM   20  O   UNK     0      -0.162   1.190 -26.196  0.00  0.00    -0.358 OA
HETATM   21  H   UNK     0      -0.159   0.254 -26.451  0.00  0.00     0.217 HD
ENDBRANCH  15  20
ENDBRANCH   5  12
BRANCH   6  22
HETATM   22  O   UNK     0      -5.301   4.668 -25.393  0.00  0.00    -0.355 OA
HETATM   23  H   UNK     0      -5.382   5.551 -24.998  0.00  0.00     0.218 HD
ENDBRANCH   6  22
BRANCH   8  24
HETATM   24  O   UNK     0      -9.802   4.241 -22.757  0.00  0.00    -0.360 OA
HETATM   25  H   UNK     0     -10.735   4.053 -22.574  0.00  0.00     0.217 HD
ENDBRANCH   8  24
BRANCH  10  26
HETATM   26  O   UNK     0      -9.332  -0.006 -20.684  0.00  0.00    -0.361 OA
HETATM   27  H   UNK     0      -8.667  -0.242 -20.015  0.00  0.00     0.217 HD
ENDBRANCH  10  26
TORSDOF 6
ENDMDL
MODEL 3
REMARK VINA RESULT:      -6.7      1.951      7.396
REMARK  6 active torsions:
REMARK  status: ('A' for Active; 'I' for Inactive)
REMARK    1  A    between atoms: O_2  and  C_12 
REMARK    2  A    between atoms: O_3  and  C_14 
REMARK    3  A    between atoms: O_5  and  C_16 
REMARK    4  A    between atoms: O_6  and  C_20 
REMARK    5  A    between atoms: O_7  and  C_22 
REMARK    6  A    between atoms: C_10  and  C_11 
ROOT
HETATM    1  O   UNK     0      -6.511   4.268 -24.034  0.00  0.00    -0.306 OA
HETATM    2  O   UNK     0      -5.502   0.363 -23.456  0.00  0.00    -0.284 OA
HETATM    3  C   UNK     0      -4.903   2.474 -24.322  0.00  0.00     0.084 A 
HETATM    4  C   UNK     0      -5.307   3.797 -24.488  0.00  0.00     0.096 A 
HETATM    5  C   UNK     0      -7.356   3.394 -23.368  0.00  0.00     0.123 A 
HETATM    6  C   UNK     0      -7.089   2.093 -23.149  0.00  0.00     0.152 A 
HETATM    7  C   UNK     0      -5.800   1.537 -23.628  0.00  0.00     0.223 A 
HETATM    8  C   UNK     0      -3.664   2.049 -24.808  0.00  0.00     0.085 A 
HETATM    9  C   UNK     0      -4.475   4.703 -25.145  0.00  0.00     0.075 A 
HETATM   10  C   UNK     0      -3.237   4.282 -25.632  0.00  0.00     0.071 A 
HETATM   11  C   UNK     0      -2.833   2.957 -25.463  0.00  0.00     0.074 A 
ENDROOT
BRANCH   5  12
HETATM   12  C   UNK     0      -8.613   4.028 -22.933  0.00  0.00     0.004 A 
HETATM   13  C   UNK     0      -9.286   4.902 -23.786  0.00  0.00     0.053 A 
HETATM   14  C   UNK     0     -10.476   5.502 -23.374  0.00  0.00     0.099 A 
HETATM   15  C   UNK     0     -10.993   5.227 -22.107  0.00  0.00     0.098 A 
HETATM   16  C   UNK     0     -10.321   4.351 -21.255  0.00  0.00     0.040 A 
HETATM   17  C   UNK     0      -9.131   3.752 -21.667  0.00  0.00     0.017 A 
BRANCH  14  18
HETATM   18  O   UNK     0     -11.123   6.356 -24.214  0.00  0.00    -0.358 OA
HETATM   19  H   UNK     0     -11.457   5.869 -24.984  0.00  0.00     0.217 HD
ENDBRANCH  14  18
BRANCH  15  20
HETATM   20  O   UNK     0     -12.156   5.804 -21.694  0.00  0.00    -0.358 OA
HETATM   21  H   UNK     0     -12.784   5.841 -22.433  0.00  0.00     0.217 HD
ENDBRANCH  15  20
ENDBRANCH   5  12
BRANCH   6  22
HETATM   22  O   UNK     0      -7.965   1.242 -22.512  0.00  0.00    -0.355 OA
HETATM   23  H   UNK     0      -8.068   1.508 -21.584  0.00  0.00     0.218 HD
ENDBRANCH   6  22
BRANCH   8  24
HETATM   24  O   UNK     0      -3.221   0.767 -24.671  0.00  0.00    -0.360 OA
HETATM   25  H   UNK     0      -3.890   0.222 -24.230  0.00  0.00     0.217 HD
ENDBRANCH   8  24
BRANCH  10  26
HETATM   26  O   UNK     0      -2.423   5.166 -26.272  0.00  0.00    -0.361 OA
HETATM   27  H   UNK     0      -2.851   6.040 -26.278  0.00  0.00     0.217 HD
ENDBRANCH  10  26
TORSDOF 6
ENDMDL
MODEL 4
REMARK VINA RESULT:      -6.6      1.862      6.744
REMARK  6 active torsions:
REMARK  status: ('A' for Active; 'I' for Inactive)
REMARK    1  A    between atoms: O_2  and  C_12 
REMARK    2  A    between atoms: O_3  and  C_14 
REMARK    3  A    between atoms: O_5  and  C_16 
REMARK    4  A    between atoms: O_6  and  C_20 
REMARK    5  A    between atoms: O_7  and  C_22 
REMARK    6  A    between atoms: C_10  and  C_11 
ROOT
HETATM    1  O   UNK     0      -6.446   2.164 -23.664  0.00  0.00    -0.306 OA
HETATM    2  O   UNK     0      -4.065   5.004 -25.359  0.00  0.00    -0.284 OA
HETATM    3  C   UNK     0      -4.373   2.736 -24.789  0.00  0.00     0.084 A 
HETATM    4  C   UNK     0      -5.232   1.814 -24.194  0.00  0.00     0.096 A 
HETATM    5  C   UNK     0      -6.841   3.491 -23.733  0.00  0.00     0.123 A 
HETATM    6  C   UNK     0      -6.103   4.479 -24.272  0.00  0.00     0.152 A 
HETATM    7  C   UNK     0      -4.780   4.148 -24.854  0.00  0.00     0.223 A 
HETATM    8  C   UNK     0      -3.146   2.321 -25.312  0.00  0.00     0.085 A 
HETATM    9  C   UNK     0      -4.868   0.469 -24.118  0.00  0.00     0.075 A 
HETATM   10  C   UNK     0      -3.643   0.051 -24.640  0.00  0.00     0.071 A 
HETATM   11  C   UNK     0      -2.785   0.976 -25.236  0.00  0.00     0.074 A 
ENDROOT
BRANCH   5  12
HETATM   12  C   UNK     0      -8.163   3.731 -23.128  0.00  0.00     0.004 A 
HETATM   13  C   UNK     0      -9.022   4.679 -23.682  0.00  0.00     0.053 A 
HETATM   14  C   UNK     0     -10.274   4.905 -23.109  0.00  0.00     0.099 A 
HETATM   15  C   UNK     0     -10.665   4.183 -21.981  0.00  0.00     0.098 A 
HETATM   16  C   UNK     0      -9.806   3.234 -21.428  0.00  0.00     0.040 A 
HETATM   17  C   UNK     0      -8.554   3.008 -22.001  0.00  0.00     0.017 A 
BRANCH  14  18
HETATM   18  O   UNK     0     -11.104   5.835 -23.656  0.00  0.00    -0.358 OA
HETATM   19  H   UNK     0     -10.893   6.714 -23.302  0.00  0.00     0.217 HD
ENDBRANCH  14  18
BRANCH  15  20
HETATM   20  O   UNK     0     -11.886   4.394 -21.414  0.00  0.00    -0.358 OA
HETATM   21  H   UNK     0     -12.326   3.543 -21.259  0.00  0.00     0.217 HD
ENDBRANCH  15  20
ENDBRANCH   5  12
BRANCH   6  22
HETATM   22  O   UNK     0      -6.510   5.795 -24.297  0.00  0.00    -0.355 OA
HETATM   23  H   UNK     0      -5.815   6.349 -24.688  0.00  0.00     0.218 HD
ENDBRANCH   6  22
BRANCH   8  24
HETATM   24  O   UNK     0      -2.270   3.181 -25.903  0.00  0.00    -0.360 OA
HETATM   25  H   UNK     0      -2.634   3.519 -26.736  0.00  0.00     0.217 HD
ENDBRANCH   8  24
BRANCH  10  26
HETATM   26  O   UNK     0      -3.287  -1.261 -24.567  0.00  0.00    -0.361 OA
HETATM   27  H   UNK     0      -3.993  -1.754 -24.114  0.00  0.00     0.217 HD
ENDBRANCH  10  26
TORSDOF 6
ENDMDL
MODEL 5
REMARK VINA RESULT:      -6.5      1.666      7.174
REMARK  6 active torsions:
REMARK  status: ('A' for Active; 'I' for Inactive)
REMARK    1  A    between atoms: O_2  and  C_12 
REMARK    2  A    between atoms: O_3  and  C_14 
REMARK    3  A    between atoms: O_5  and  C_16 
REMARK    4  A    between atoms: O_6  and  C_20 
REMARK    5  A    between atoms: O_7  and  C_22 
REMARK    6  A    between atoms: C_10  and  C_11 
ROOT
HETATM    1  O   UNK     0      -4.648   3.487 -24.391  0.00  0.00    -0.306 OA
HETATM    2  O   UNK     0      -3.319  -0.135 -25.702  0.00  0.00    -0.284 OA
HETATM    3  C   UNK     0      -2.982   2.196 -25.594  0.00  0.00     0.084 A 
HETATM    4  C   UNK     0      -3.490   3.403 -25.118  0.00  0.00     0.096 A 
HETATM    5  C   UNK     0      -5.336   2.317 -24.105  0.00  0.00     0.123 A 
HETATM    6  C   UNK     0      -4.958   1.091 -24.511  0.00  0.00     0.152 A 
HETATM    7  C   UNK     0      -3.714   0.953 -25.306  0.00  0.00     0.223 A 
HETATM    8  C   UNK     0      -1.796   2.173 -26.333  0.00  0.00     0.085 A 
HETATM    9  C   UNK     0      -2.815   4.596 -25.381  0.00  0.00     0.075 A 
HETATM   10  C   UNK     0      -1.631   4.576 -26.118  0.00  0.00     0.071 A 
HETATM   11  C   UNK     0      -1.123   3.366 -26.593  0.00  0.00     0.074 A 
ENDROOT
BRANCH   5  12
HETATM   12  C   UNK     0      -6.560   2.548 -23.317  0.00  0.00     0.004 A 
HETATM   13  C   UNK     0      -6.907   1.666 -22.294  0.00  0.00     0.053 A 
HETATM   14  C   UNK     0      -8.066   1.885 -21.548  0.00  0.00     0.099 A 
HETATM   15  C   UNK     0      -8.877   2.985 -21.827  0.00  0.00     0.098 A 
HETATM   16  C   UNK     0      -8.529   3.867 -22.850  0.00  0.00     0.040 A 
HETATM   17  C   UNK     0      -7.371   3.649 -23.595  0.00  0.00     0.017 A 
BRANCH  14  18
HETATM   18  O   UNK     0      -8.397   1.017 -20.553  0.00  0.00    -0.358 OA
HETATM   19  H   UNK     0      -8.546   0.132 -20.924  0.00  0.00     0.217 HD
ENDBRANCH  14  18
BRANCH  15  20
HETATM   20  O   UNK     0     -10.010   3.210 -21.104  0.00  0.00    -0.358 OA
HETATM   21  H   UNK     0     -10.782   2.892 -21.598  0.00  0.00     0.217 HD
ENDBRANCH  15  20
ENDBRANCH   5  12
BRANCH   6  22
HETATM   22  O   UNK     0      -5.682  -0.049 -24.238  0.00  0.00    -0.355 OA
HETATM   23  H   UNK     0      -5.643  -0.654 -24.997  0.00  0.00     0.218 HD
ENDBRANCH   6  22
BRANCH   8  24
HETATM   24  O   UNK     0      -1.257   1.020 -26.821  0.00  0.00    -0.360 OA
HETATM   25  H   UNK     0      -1.751   0.715 -27.597  0.00  0.00     0.217 HD
ENDBRANCH   8  24
BRANCH  10  26
HETATM   26  O   UNK     0      -0.971   5.739 -26.374  0.00  0.00    -0.361 OA
HETATM   27  H   UNK     0      -0.058   5.662 -26.046  0.00  0.00     0.217 HD
ENDBRANCH  10  26
TORSDOF 6
ENDMDL
MODEL 6
REMARK VINA RESULT:      -6.4      1.933      3.472
REMARK  6 active torsions:
REMARK  status: ('A' for Active; 'I' for Inactive)
REMARK    1  A    between atoms: O_2  and  C_12 
REMARK    2  A    between atoms: O_3  and  C_14 
REMARK    3  A    between atoms: O_5  and  C_16 
REMARK    4  A    between atoms: O_6  and  C_20 
REMARK    5  A    between atoms: O_7  and  C_22 
REMARK    6  A    between atoms: C_10  and  C_11 
ROOT
HETATM    1  O   UNK     0      -7.177   4.279 -23.769  0.00  0.00    -0.306 OA
HETATM    2  O   UNK     0      -7.322   0.451 -22.378  0.00  0.00    -0.284 OA
HETATM    3  C   UNK     0      -8.389   2.545 -22.580  0.00  0.00     0.084 A 
HETATM    4  C   UNK     0      -8.277   3.841 -23.080  0.00  0.00     0.096 A 
HETATM    5  C   UNK     0      -6.136   3.390 -23.989  0.00  0.00     0.123 A 
HETATM    6  C   UNK     0      -6.116   2.117 -23.553  0.00  0.00     0.152 A 
HETATM    7  C   UNK     0      -7.283   1.600 -22.798  0.00  0.00     0.223 A 
HETATM    8  C   UNK     0      -9.535   2.155 -21.883  0.00  0.00     0.085 A 
HETATM    9  C   UNK     0      -9.312   4.756 -22.884  0.00  0.00     0.075 A 
HETATM   10  C   UNK     0     -10.458   4.369 -22.189  0.00  0.00     0.071 A 
HETATM   11  C   UNK     0     -10.569   3.072 -21.689  0.00  0.00     0.074 A 
ENDROOT
BRANCH   5  12
HETATM   12  C   UNK     0      -5.018   3.987 -24.740  0.00  0.00     0.004 A 
HETATM   13  C   UNK     0      -3.745   3.421 -24.664  0.00  0.00     0.053 A 
HETATM   14  C   UNK     0      -2.687   3.987 -25.376  0.00  0.00     0.099 A 
HETATM   15  C   UNK     0      -2.902   5.118 -26.165  0.00  0.00     0.098 A 
HETATM   16  C   UNK     0      -4.175   5.682 -26.242  0.00  0.00     0.040 A 
HETATM   17  C   UNK     0      -5.233   5.117 -25.530  0.00  0.00     0.017 A 
BRANCH  14  18
HETATM   18  O   UNK     0      -1.448   3.428 -25.293  0.00  0.00    -0.358 OA
HETATM   19  H   UNK     0      -0.841   4.040 -24.845  0.00  0.00     0.217 HD
ENDBRANCH  14  18
BRANCH  15  20
HETATM   20  O   UNK     0      -1.877   5.677 -26.866  0.00  0.00    -0.358 OA
HETATM   21  H   UNK     0      -1.741   6.592 -26.574  0.00  0.00     0.217 HD
ENDBRANCH  15  20
ENDBRANCH   5  12
BRANCH   6  22
HETATM   22  O   UNK     0      -5.051   1.267 -23.760  0.00  0.00    -0.355 OA
HETATM   23  H   UNK     0      -4.277   1.580 -23.263  0.00  0.00     0.218 HD
ENDBRANCH   6  22
BRANCH   8  24
HETATM   24  O   UNK     0      -9.695   0.901 -21.374  0.00  0.00    -0.360 OA
HETATM   25  H   UNK     0      -9.931   0.276 -22.076  0.00  0.00     0.217 HD
ENDBRANCH   8  24
BRANCH  10  26
HETATM   26  O   UNK     0     -11.469   5.262 -21.997  0.00  0.00    -0.361 OA
HETATM   27  H   UNK     0     -11.416   5.607 -21.089  0.00  0.00     0.217 HD
ENDBRANCH  10  26
TORSDOF 6
ENDMDL
MODEL 7
REMARK VINA RESULT:      -6.3      1.377      2.885
REMARK  6 active torsions:
REMARK  status: ('A' for Active; 'I' for Inactive)
REMARK    1  A    between atoms: O_2  and  C_12 
REMARK    2  A    between atoms: O_3  and  C_14 
REMARK    3  A    between atoms: O_5  and  C_16 
REMARK    4  A    between atoms: O_6  and  C_20 
REMARK    5  A    between atoms: O_7  and  C_22 
REMARK    6  A    between atoms: C_10  and  C_11 
ROOT
HETATM    1  O   UNK     0      -5.790   3.644 -24.279  0.00  0.00    -0.306 OA
HETATM    2  O   UNK     0      -7.333   0.460 -22.256  0.00  0.00    -0.284 OA
HETATM    3  C   UNK     0      -7.585   2.702 -22.944  0.00  0.00     0.084 A 
HETATM    4  C   UNK     0      -7.003   3.753 -23.651  0.00  0.00     0.096 A 
HETATM    5  C   UNK     0      -5.120   2.431 -24.220  0.00  0.00     0.123 A 
HETATM    6  C   UNK     0      -5.568   1.344 -23.565  0.00  0.00     0.152 A 
HETATM    7  C   UNK     0      -6.874   1.417 -22.866  0.00  0.00     0.223 A 
HETATM    8  C   UNK     0      -8.824   2.872 -22.322  0.00  0.00     0.085 A 
HETATM    9  C   UNK     0      -7.656   4.983 -23.737  0.00  0.00     0.075 A 
HETATM   10  C   UNK     0      -8.894   5.155 -23.117  0.00  0.00     0.071 A 
HETATM   11  C   UNK     0      -9.476   4.102 -22.411  0.00  0.00     0.074 A 
ENDROOT
BRANCH   5  12
HETATM   12  C   UNK     0      -3.832   2.450 -24.935  0.00  0.00     0.004 A 
HETATM   13  C   UNK     0      -3.707   1.801 -26.163  0.00  0.00     0.053 A 
HETATM   14  C   UNK     0      -2.487   1.819 -26.840  0.00  0.00     0.099 A 
HETATM   15  C   UNK     0      -1.393   2.486 -26.289  0.00  0.00     0.098 A 
HETATM   16  C   UNK     0      -1.519   3.135 -25.061  0.00  0.00     0.040 A 
HETATM   17  C   UNK     0      -2.738   3.117 -24.384  0.00  0.00     0.017 A 
BRANCH  14  18
HETATM   18  O   UNK     0      -2.375   1.180 -28.038  0.00  0.00    -0.358 OA
HETATM   19  H   UNK     0      -1.510   0.744 -28.098  0.00  0.00     0.217 HD
ENDBRANCH  14  18
BRANCH  15  20
HETATM   20  O   UNK     0      -0.197   2.512 -26.942  0.00  0.00    -0.358 OA
HETATM   21  H   UNK     0       0.506   2.774 -26.327  0.00  0.00     0.217 HD
ENDBRANCH  15  20
ENDBRANCH   5  12
BRANCH   6  22
HETATM   22  O   UNK     0      -4.862   0.162 -23.498  0.00  0.00    -0.355 OA
HETATM   23  H   UNK     0      -5.313  -0.522 -24.019  0.00  0.00     0.218 HD
ENDBRANCH   6  22
BRANCH   8  24
HETATM   24  O   UNK     0      -9.436   1.877 -21.620  0.00  0.00    -0.360 OA
HETATM   25  H   UNK     0      -9.420   2.072 -20.670  0.00  0.00     0.217 HD
ENDBRANCH   8  24
BRANCH  10  26
HETATM   26  O   UNK     0      -9.534   6.355 -23.201  0.00  0.00    -0.361 OA
HETATM   27  H   UNK     0      -8.914   7.018 -23.551  0.00  0.00     0.217 HD
ENDBRANCH  10  26
TORSDOF 6
ENDMDL
MODEL 8
REMARK VINA RESULT:      -6.1      4.597      7.015
REMARK  6 active torsions:
REMARK  status: ('A' for Active; 'I' for Inactive)
REMARK    1  A    between atoms: O_2  and  C_12 
REMARK    2  A    between atoms: O_3  and  C_14 
REMARK    3  A    between atoms: O_5  and  C_16 
REMARK    4  A    between atoms: O_6  and  C_20 
REMARK    5  A    between atoms: O_7  and  C_22 
REMARK    6  A    between atoms: C_10  and  C_11 
ROOT
HETATM    1  O   UNK     0      -2.660  -0.319 -28.600  0.00  0.00    -0.306 OA
HETATM    2  O   UNK     0      -4.116   3.481 -28.816  0.00  0.00    -0.284 OA
HETATM    3  C   UNK     0      -3.403   1.690 -27.458  0.00  0.00     0.084 A 
HETATM    4  C   UNK     0      -2.906   0.388 -27.452  0.00  0.00     0.096 A 
HETATM    5  C   UNK     0      -2.902   0.294 -29.819  0.00  0.00     0.123 A 
HETATM    6  C   UNK     0      -3.388   1.541 -29.963  0.00  0.00     0.152 A 
HETATM    7  C   UNK     0      -3.675   2.342 -28.748  0.00  0.00     0.223 A 
HETATM    8  C   UNK     0      -3.636   2.361 -26.255  0.00  0.00     0.085 A 
HETATM    9  C   UNK     0      -2.643  -0.253 -26.240  0.00  0.00     0.075 A 
HETATM   10  C   UNK     0      -2.875   0.415 -25.038  0.00  0.00     0.071 A 
HETATM   11  C   UNK     0      -3.371   1.719 -25.046  0.00  0.00     0.074 A 
ENDROOT
BRANCH   5  12
HETATM   12  C   UNK     0      -2.595  -0.573 -30.970  0.00  0.00     0.004 A 
HETATM   13  C   UNK     0      -3.624  -1.236 -31.639  0.00  0.00     0.053 A 
HETATM   14  C   UNK     0      -3.333  -2.056 -32.729  0.00  0.00     0.099 A 
HETATM   15  C   UNK     0      -2.013  -2.214 -33.150  0.00  0.00     0.098 A 
HETATM   16  C   UNK     0      -0.984  -1.550 -32.482  0.00  0.00     0.040 A 
HETATM   17  C   UNK     0      -1.275  -0.730 -31.392  0.00  0.00     0.017 A 
BRANCH  14  18
HETATM   18  O   UNK     0      -4.346  -2.701 -33.373  0.00  0.00    -0.358 OA
HETATM   19  H   UNK     0      -4.245  -2.594 -34.333  0.00  0.00     0.217 HD
ENDBRANCH  14  18
BRANCH  15  20
HETATM   20  O   UNK     0      -1.716  -3.011 -34.215  0.00  0.00    -0.358 OA
HETATM   21  H   UNK     0      -0.799  -2.860 -34.491  0.00  0.00     0.217 HD
ENDBRANCH  15  20
ENDBRANCH   5  12
BRANCH   6  22
HETATM   22  O   UNK     0      -3.649   2.110 -31.190  0.00  0.00    -0.355 OA
HETATM   23  H   UNK     0      -4.578   2.391 -31.233  0.00  0.00     0.218 HD
ENDBRANCH   6  22
BRANCH   8  24
HETATM   24  O   UNK     0      -4.120   3.634 -26.206  0.00  0.00    -0.360 OA
HETATM   25  H   UNK     0      -3.402   4.275 -26.315  0.00  0.00     0.217 HD
ENDBRANCH   8  24
BRANCH  10  26
HETATM   26  O   UNK     0      -2.617  -0.209 -23.855  0.00  0.00    -0.361 OA
HETATM   27  H   UNK     0      -3.408  -0.154 -23.291  0.00  0.00     0.217 HD
ENDBRANCH  10  26
TORSDOF 6
ENDMDL
MODEL 9
REMARK VINA RESULT:      -6.1      2.452      7.562
REMARK  6 active torsions:
REMARK  status: ('A' for Active; 'I' for Inactive)
REMARK    1  A    between atoms: O_2  and  C_12 
REMARK    2  A    between atoms: O_3  and  C_14 
REMARK    3  A    between atoms: O_5  and  C_16 
REMARK    4  A    between atoms: O_6  and  C_20 
REMARK    5  A    between atoms: O_7  and  C_22 
REMARK    6  A    between atoms: C_10  and  C_11 
ROOT
HETATM    1  O   UNK     0      -4.159   1.097 -26.981  0.00  0.00    -0.306 OA
HETATM    2  O   UNK     0      -0.391  -0.195 -26.121  0.00  0.00    -0.284 OA
HETATM    3  C   UNK     0      -2.036   0.215 -27.760  0.00  0.00     0.084 A 
HETATM    4  C   UNK     0      -3.334   0.667 -27.988  0.00  0.00     0.096 A 
HETATM    5  C   UNK     0      -3.674   1.093 -25.682  0.00  0.00     0.123 A 
HETATM    6  C   UNK     0      -2.445   0.675 -25.328  0.00  0.00     0.152 A 
HETATM    7  C   UNK     0      -1.520   0.196 -26.383  0.00  0.00     0.223 A 
HETATM    8  C   UNK     0      -1.241  -0.212 -28.827  0.00  0.00     0.085 A 
HETATM    9  C   UNK     0      -3.847   0.692 -29.286  0.00  0.00     0.075 A 
HETATM   10  C   UNK     0      -3.055   0.266 -30.353  0.00  0.00     0.071 A 
HETATM   11  C   UNK     0      -1.755  -0.185 -30.123  0.00  0.00     0.074 A 
ENDROOT
BRANCH   5  12
HETATM   12  C   UNK     0      -4.659   1.578 -24.700  0.00  0.00     0.004 A 
HETATM   13  C   UNK     0      -5.450   0.669 -23.997  0.00  0.00     0.053 A 
HETATM   14  C   UNK     0      -6.383   1.129 -23.067  0.00  0.00     0.099 A 
HETATM   15  C   UNK     0      -6.524   2.498 -22.839  0.00  0.00     0.098 A 
HETATM   16  C   UNK     0      -5.732   3.407 -23.541  0.00  0.00     0.040 A 
HETATM   17  C   UNK     0      -4.800   2.948 -24.471  0.00  0.00     0.017 A 
BRANCH  14  18
HETATM   18  O   UNK     0      -7.151   0.233 -22.388  0.00  0.00    -0.358 OA
HETATM   19  H   UNK     0      -8.088   0.376 -22.601  0.00  0.00     0.217 HD
ENDBRANCH  14  18
BRANCH  15  20
HETATM   20  O   UNK     0      -7.429   2.959 -21.931  0.00  0.00    -0.358 OA
HETATM   21  H   UNK     0      -7.360   2.446 -21.111  0.00  0.00     0.217 HD
ENDBRANCH  15  20
ENDBRANCH   5  12
BRANCH   6  22
HETATM   22  O   UNK     0      -2.006   0.653 -24.022  0.00  0.00    -0.355 OA
HETATM   23  H   UNK     0      -1.036   0.700 -23.999  0.00  0.00     0.218 HD
ENDBRANCH   6  22
BRANCH   8  24
HETATM   24  O   UNK     0       0.034  -0.663 -28.659  0.00  0.00    -0.360 OA
HETATM   25  H   UNK     0       0.291  -1.240 -29.394  0.00  0.00     0.217 HD
ENDBRANCH   8  24
BRANCH  10  26
HETATM   26  O   UNK     0      -3.554   0.291 -31.620  0.00  0.00    -0.361 OA
HETATM   27  H   UNK     0      -3.493   1.199 -31.964  0.00  0.00     0.217 HD
ENDBRANCH  10  26
TORSDOF 6
ENDMDL
MODEL 10
REMARK VINA RESULT:      -5.8      6.045     10.162
REMARK  6 active torsions:
REMARK  status: ('A' for Active; 'I' for Inactive)
REMARK    1  A    between atoms: O_2  and  C_12 
REMARK    2  A    between atoms: O_3  and  C_14 
REMARK    3  A    between atoms: O_5  and  C_16 
REMARK    4  A    between atoms: O_6  and  C_20 
REMARK    5  A    between atoms: O_7  and  C_22 
REMARK    6  A    between atoms: C_10  and  C_11 
ROOT
HETATM    1  O   UNK     0      -3.803  -0.534 -31.505  0.00  0.00    -0.306 OA
HETATM    2  O   UNK     0      -0.096  -1.741 -32.690  0.00  0.00    -0.284 OA
HETATM    3  C   UNK     0      -2.409  -1.659 -33.142  0.00  0.00     0.084 A 
HETATM    4  C   UNK     0      -3.649  -1.220 -32.680  0.00  0.00     0.096 A 
HETATM    5  C   UNK     0      -2.675  -0.253 -30.749  0.00  0.00     0.123 A 
HETATM    6  C   UNK     0      -1.425  -0.627 -31.077  0.00  0.00     0.152 A 
HETATM    7  C   UNK     0      -1.210  -1.376 -32.338  0.00  0.00     0.223 A 
HETATM    8  C   UNK     0      -2.313  -2.357 -34.348  0.00  0.00     0.085 A 
HETATM    9  C   UNK     0      -4.801  -1.479 -33.423  0.00  0.00     0.075 A 
HETATM   10  C   UNK     0      -4.708  -2.175 -34.629  0.00  0.00     0.071 A 
HETATM   11  C   UNK     0      -3.466  -2.613 -35.090  0.00  0.00     0.074 A 
ENDROOT
BRANCH   5  12
HETATM   12  C   UNK     0      -2.981   0.489 -29.513  0.00  0.00     0.004 A 
HETATM   13  C   UNK     0      -3.791  -0.088 -28.535  0.00  0.00     0.053 A 
HETATM   14  C   UNK     0      -4.079   0.615 -27.365  0.00  0.00     0.099 A 
HETATM   15  C   UNK     0      -3.557   1.894 -27.173  0.00  0.00     0.098 A 
HETATM   16  C   UNK     0      -2.746   2.470 -28.150  0.00  0.00     0.040 A 
HETATM   17  C   UNK     0      -2.458   1.768 -29.320  0.00  0.00     0.017 A 
BRANCH  14  18
HETATM   18  O   UNK     0      -4.874   0.043 -26.418  0.00  0.00    -0.358 OA
HETATM   19  H   UNK     0      -4.498   0.198 -25.536  0.00  0.00     0.217 HD
ENDBRANCH  14  18
BRANCH  15  20
HETATM   20  O   UNK     0      -3.830   2.589 -26.033  0.00  0.00    -0.358 OA
HETATM   21  H   UNK     0      -4.378   2.048 -25.443  0.00  0.00     0.217 HD
ENDBRANCH  15  20
ENDBRANCH   5  12
BRANCH   6  22
HETATM   22  O   UNK     0      -0.328  -0.360 -30.287  0.00  0.00    -0.355 OA
HETATM   23  H   UNK     0      -0.580  -0.394 -29.350  0.00  0.00     0.218 HD
ENDBRANCH   6  22
BRANCH   8  24
HETATM   24  O   UNK     0      -1.126  -2.808 -34.844  0.00  0.00    -0.360 OA
HETATM   25  H   UNK     0      -0.414  -2.667 -34.201  0.00  0.00     0.217 HD
ENDBRANCH   8  24
BRANCH  10  26
HETATM   26  O   UNK     0      -5.832  -2.427 -35.355  0.00  0.00    -0.361 OA
HETATM   27  H   UNK     0      -6.150  -1.593 -35.742  0.00  0.00     0.217 HD
ENDBRANCH  10  26
TORSDOF 6
ENDMDL
