REMARK VINA RESULT:      -6.3      1.377      2.885
REMARK  6 active torsions:
REMARK  status: ('A' for Active; 'I' for Inactive)
REMARK    1  A    between atoms: O_2  and  C_12 
REMARK    2  A    between atoms: O_3  and  C_14 
REMARK    3  A    between atoms: O_5  and  C_16 
REMARK    4  A    between atoms: O_6  and  C_20 
REMARK    5  A    between atoms: O_7  and  C_22 
REMARK    6  A    between atoms: C_10  and  C_11 
ROOT
HETATM    1  O   UNK     0      -5.790   3.644 -24.279  0.00  0.00    -0.306 OA
HETATM    2  O   UNK     0      -7.333   0.460 -22.256  0.00  0.00    -0.284 OA
HETATM    3  C   UNK     0      -7.585   2.702 -22.944  0.00  0.00     0.084 A 
HETATM    4  C   UNK     0      -7.003   3.753 -23.651  0.00  0.00     0.096 A 
HETATM    5  C   UNK     0      -5.120   2.431 -24.220  0.00  0.00     0.123 A 
HETATM    6  C   UNK     0      -5.568   1.344 -23.565  0.00  0.00     0.152 A 
HETATM    7  C   UNK     0      -6.874   1.417 -22.866  0.00  0.00     0.223 A 
HETATM    8  C   UNK     0      -8.824   2.872 -22.322  0.00  0.00     0.085 A 
HETATM    9  C   UNK     0      -7.656   4.983 -23.737  0.00  0.00     0.075 A 
HETATM   10  C   UNK     0      -8.894   5.155 -23.117  0.00  0.00     0.071 A 
HETATM   11  C   UNK     0      -9.476   4.102 -22.411  0.00  0.00     0.074 A 
ENDROOT
BRANCH   5  12
HETATM   12  C   UNK     0      -3.832   2.450 -24.935  0.00  0.00     0.004 A 
HETATM   13  C   UNK     0      -3.707   1.801 -26.163  0.00  0.00     0.053 A 
HETATM   14  C   UNK     0      -2.487   1.819 -26.840  0.00  0.00     0.099 A 
HETATM   15  C   UNK     0      -1.393   2.486 -26.289  0.00  0.00     0.098 A 
HETATM   16  C   UNK     0      -1.519   3.135 -25.061  0.00  0.00     0.040 A 
HETATM   17  C   UNK     0      -2.738   3.117 -24.384  0.00  0.00     0.017 A 
BRANCH  14  18
HETATM   18  O   UNK     0      -2.375   1.180 -28.038  0.00  0.00    -0.358 OA
HETATM   19  H   UNK     0      -1.510   0.744 -28.098  0.00  0.00     0.217 HD
ENDBRANCH  14  18
BRANCH  15  20
HETATM   20  O   UNK     0      -0.197   2.512 -26.942  0.00  0.00    -0.358 OA
HETATM   21  H   UNK     0       0.506   2.774 -26.327  0.00  0.00     0.217 HD
ENDBRANCH  15  20
ENDBRANCH   5  12
BRANCH   6  22
HETATM   22  O   UNK     0      -4.862   0.162 -23.498  0.00  0.00    -0.355 OA
HETATM   23  H   UNK     0      -5.313  -0.522 -24.019  0.00  0.00     0.218 HD
ENDBRANCH   6  22
BRANCH   8  24
HETATM   24  O   UNK     0      -9.436   1.877 -21.620  0.00  0.00    -0.360 OA
HETATM   25  H   UNK     0      -9.420   2.072 -20.670  0.00  0.00     0.217 HD
ENDBRANCH   8  24
BRANCH  10  26
HETATM   26  O   UNK     0      -9.534   6.355 -23.201  0.00  0.00    -0.361 OA
HETATM   27  H   UNK     0      -8.914   7.018 -23.551  0.00  0.00     0.217 HD
ENDBRANCH  10  26
TORSDOF 6
