REMARK VINA RESULT:      -5.8      6.045     10.162
REMARK  6 active torsions:
REMARK  status: ('A' for Active; 'I' for Inactive)
REMARK    1  A    between atoms: O_2  and  C_12 
REMARK    2  A    between atoms: O_3  and  C_14 
REMARK    3  A    between atoms: O_5  and  C_16 
REMARK    4  A    between atoms: O_6  and  C_20 
REMARK    5  A    between atoms: O_7  and  C_22 
REMARK    6  A    between atoms: C_10  and  C_11 
ROOT
HETATM    1  O   UNK     0      -3.803  -0.534 -31.505  0.00  0.00    -0.306 OA
HETATM    2  O   UNK     0      -0.096  -1.741 -32.690  0.00  0.00    -0.284 OA
HETATM    3  C   UNK     0      -2.409  -1.659 -33.142  0.00  0.00     0.084 A 
HETATM    4  C   UNK     0      -3.649  -1.220 -32.680  0.00  0.00     0.096 A 
HETATM    5  C   UNK     0      -2.675  -0.253 -30.749  0.00  0.00     0.123 A 
HETATM    6  C   UNK     0      -1.425  -0.627 -31.077  0.00  0.00     0.152 A 
HETATM    7  C   UNK     0      -1.210  -1.376 -32.338  0.00  0.00     0.223 A 
HETATM    8  C   UNK     0      -2.313  -2.357 -34.348  0.00  0.00     0.085 A 
HETATM    9  C   UNK     0      -4.801  -1.479 -33.423  0.00  0.00     0.075 A 
HETATM   10  C   UNK     0      -4.708  -2.175 -34.629  0.00  0.00     0.071 A 
HETATM   11  C   UNK     0      -3.466  -2.613 -35.090  0.00  0.00     0.074 A 
ENDROOT
BRANCH   5  12
HETATM   12  C   UNK     0      -2.981   0.489 -29.513  0.00  0.00     0.004 A 
HETATM   13  C   UNK     0      -3.791  -0.088 -28.535  0.00  0.00     0.053 A 
HETATM   14  C   UNK     0      -4.079   0.615 -27.365  0.00  0.00     0.099 A 
HETATM   15  C   UNK     0      -3.557   1.894 -27.173  0.00  0.00     0.098 A 
HETATM   16  C   UNK     0      -2.746   2.470 -28.150  0.00  0.00     0.040 A 
HETATM   17  C   UNK     0      -2.458   1.768 -29.320  0.00  0.00     0.017 A 
BRANCH  14  18
HETATM   18  O   UNK     0      -4.874   0.043 -26.418  0.00  0.00    -0.358 OA
HETATM   19  H   UNK     0      -4.498   0.198 -25.536  0.00  0.00     0.217 HD
ENDBRANCH  14  18
BRANCH  15  20
HETATM   20  O   UNK     0      -3.830   2.589 -26.033  0.00  0.00    -0.358 OA
HETATM   21  H   UNK     0      -4.378   2.048 -25.443  0.00  0.00     0.217 HD
ENDBRANCH  15  20
ENDBRANCH   5  12
BRANCH   6  22
HETATM   22  O   UNK     0      -0.328  -0.360 -30.287  0.00  0.00    -0.355 OA
HETATM   23  H   UNK     0      -0.580  -0.394 -29.350  0.00  0.00     0.218 HD
ENDBRANCH   6  22
BRANCH   8  24
HETATM   24  O   UNK     0      -1.126  -2.808 -34.844  0.00  0.00    -0.360 OA
HETATM   25  H   UNK     0      -0.414  -2.667 -34.201  0.00  0.00     0.217 HD
ENDBRANCH   8  24
BRANCH  10  26
HETATM   26  O   UNK     0      -5.832  -2.427 -35.355  0.00  0.00    -0.361 OA
HETATM   27  H   UNK     0      -6.150  -1.593 -35.742  0.00  0.00     0.217 HD
ENDBRANCH  10  26
TORSDOF 6
