REMARK VINA RESULT:      -7.1      0.000      0.000
REMARK  6 active torsions:
REMARK  status: ('A' for Active; 'I' for Inactive)
REMARK    1  A    between atoms: O_2  and  C_12 
REMARK    2  A    between atoms: O_3  and  C_14 
REMARK    3  A    between atoms: O_5  and  C_16 
REMARK    4  A    between atoms: O_6  and  C_20 
REMARK    5  A    between atoms: O_7  and  C_22 
REMARK    6  A    between atoms: C_10  and  C_11 
ROOT
HETATM    1  O   UNK     0      -5.813   1.522 -23.412  0.00  0.00    -0.306 OA
HETATM    2  O   UNK     0      -7.775   5.000 -24.224  0.00  0.00    -0.284 OA
HETATM    3  C   UNK     0      -7.766   2.928 -23.097  0.00  0.00     0.084 A 
HETATM    4  C   UNK     0      -7.044   1.759 -22.860  0.00  0.00     0.096 A 
HETATM    5  C   UNK     0      -5.256   2.492 -24.231  0.00  0.00     0.123 A 
HETATM    6  C   UNK     0      -5.851   3.658 -24.545  0.00  0.00     0.152 A 
HETATM    7  C   UNK     0      -7.186   3.956 -23.975  0.00  0.00     0.223 A 
HETATM    8  C   UNK     0      -9.018   3.115 -22.507  0.00  0.00     0.085 A 
HETATM    9  C   UNK     0      -7.574   0.768 -22.033  0.00  0.00     0.075 A 
HETATM   10  C   UNK     0      -8.824   0.952 -21.442  0.00  0.00     0.071 A 
HETATM   11  C   UNK     0      -9.544   2.123 -21.679  0.00  0.00     0.074 A 
ENDROOT
BRANCH   5  12
HETATM   12  C   UNK     0      -3.933   2.111 -24.757  0.00  0.00     0.004 A 
HETATM   13  C   UNK     0      -3.814   1.030 -25.630  0.00  0.00     0.053 A 
HETATM   14  C   UNK     0      -2.562   0.670 -26.128  0.00  0.00     0.099 A 
HETATM   15  C   UNK     0      -1.428   1.392 -25.752  0.00  0.00     0.098 A 
HETATM   16  C   UNK     0      -1.548   2.474 -24.880  0.00  0.00     0.040 A 
HETATM   17  C   UNK     0      -2.800   2.834 -24.382  0.00  0.00     0.017 A 
BRANCH  14  18
HETATM   18  O   UNK     0      -2.456  -0.389 -26.978  0.00  0.00    -0.358 OA
HETATM   19  H   UNK     0      -2.698  -0.113 -27.877  0.00  0.00     0.217 HD
ENDBRANCH  14  18
BRANCH  15  20
HETATM   20  O   UNK     0      -0.200   1.052 -26.234  0.00  0.00    -0.358 OA
HETATM   21  H   UNK     0      -0.263   0.856 -27.182  0.00  0.00     0.217 HD
ENDBRANCH  15  20
ENDBRANCH   5  12
BRANCH   6  22
HETATM   22  O   UNK     0      -5.284   4.588 -25.389  0.00  0.00    -0.355 OA
HETATM   23  H   UNK     0      -5.100   5.407 -24.901  0.00  0.00     0.218 HD
ENDBRANCH   6  22
BRANCH   8  24
HETATM   24  O   UNK     0      -9.764   4.238 -22.706  0.00  0.00    -0.360 OA
HETATM   25  H   UNK     0     -10.688   4.080 -22.463  0.00  0.00     0.217 HD
ENDBRANCH   8  24
BRANCH  10  26
HETATM   26  O   UNK     0      -9.342  -0.014 -20.634  0.00  0.00    -0.361 OA
HETATM   27  H   UNK     0     -10.170   0.313 -20.242  0.00  0.00     0.217 HD
ENDBRANCH  10  26
TORSDOF 6
