REMARK VINA RESULT:      -6.1      2.452      7.562
REMARK  6 active torsions:
REMARK  status: ('A' for Active; 'I' for Inactive)
REMARK    1  A    between atoms: O_2  and  C_12 
REMARK    2  A    between atoms: O_3  and  C_14 
REMARK    3  A    between atoms: O_5  and  C_16 
REMARK    4  A    between atoms: O_6  and  C_20 
REMARK    5  A    between atoms: O_7  and  C_22 
REMARK    6  A    between atoms: C_10  and  C_11 
ROOT
HETATM    1  O   UNK     0      -4.159   1.097 -26.981  0.00  0.00    -0.306 OA
HETATM    2  O   UNK     0      -0.391  -0.195 -26.121  0.00  0.00    -0.284 OA
HETATM    3  C   UNK     0      -2.036   0.215 -27.760  0.00  0.00     0.084 A 
HETATM    4  C   UNK     0      -3.334   0.667 -27.988  0.00  0.00     0.096 A 
HETATM    5  C   UNK     0      -3.674   1.093 -25.682  0.00  0.00     0.123 A 
HETATM    6  C   UNK     0      -2.445   0.675 -25.328  0.00  0.00     0.152 A 
HETATM    7  C   UNK     0      -1.520   0.196 -26.383  0.00  0.00     0.223 A 
HETATM    8  C   UNK     0      -1.241  -0.212 -28.827  0.00  0.00     0.085 A 
HETATM    9  C   UNK     0      -3.847   0.692 -29.286  0.00  0.00     0.075 A 
HETATM   10  C   UNK     0      -3.055   0.266 -30.353  0.00  0.00     0.071 A 
HETATM   11  C   UNK     0      -1.755  -0.185 -30.123  0.00  0.00     0.074 A 
ENDROOT
BRANCH   5  12
HETATM   12  C   UNK     0      -4.659   1.578 -24.700  0.00  0.00     0.004 A 
HETATM   13  C   UNK     0      -5.450   0.669 -23.997  0.00  0.00     0.053 A 
HETATM   14  C   UNK     0      -6.383   1.129 -23.067  0.00  0.00     0.099 A 
HETATM   15  C   UNK     0      -6.524   2.498 -22.839  0.00  0.00     0.098 A 
HETATM   16  C   UNK     0      -5.732   3.407 -23.541  0.00  0.00     0.040 A 
HETATM   17  C   UNK     0      -4.800   2.948 -24.471  0.00  0.00     0.017 A 
BRANCH  14  18
HETATM   18  O   UNK     0      -7.151   0.233 -22.388  0.00  0.00    -0.358 OA
HETATM   19  H   UNK     0      -8.088   0.376 -22.601  0.00  0.00     0.217 HD
ENDBRANCH  14  18
BRANCH  15  20
HETATM   20  O   UNK     0      -7.429   2.959 -21.931  0.00  0.00    -0.358 OA
HETATM   21  H   UNK     0      -7.360   2.446 -21.111  0.00  0.00     0.217 HD
ENDBRANCH  15  20
ENDBRANCH   5  12
BRANCH   6  22
HETATM   22  O   UNK     0      -2.006   0.653 -24.022  0.00  0.00    -0.355 OA
HETATM   23  H   UNK     0      -1.036   0.700 -23.999  0.00  0.00     0.218 HD
ENDBRANCH   6  22
BRANCH   8  24
HETATM   24  O   UNK     0       0.034  -0.663 -28.659  0.00  0.00    -0.360 OA
HETATM   25  H   UNK     0       0.291  -1.240 -29.394  0.00  0.00     0.217 HD
ENDBRANCH   8  24
BRANCH  10  26
HETATM   26  O   UNK     0      -3.554   0.291 -31.620  0.00  0.00    -0.361 OA
HETATM   27  H   UNK     0      -3.493   1.199 -31.964  0.00  0.00     0.217 HD
ENDBRANCH  10  26
TORSDOF 6
