REMARK VINA RESULT:      -6.6      1.862      6.744
REMARK  6 active torsions:
REMARK  status: ('A' for Active; 'I' for Inactive)
REMARK    1  A    between atoms: O_2  and  C_12 
REMARK    2  A    between atoms: O_3  and  C_14 
REMARK    3  A    between atoms: O_5  and  C_16 
REMARK    4  A    between atoms: O_6  and  C_20 
REMARK    5  A    between atoms: O_7  and  C_22 
REMARK    6  A    between atoms: C_10  and  C_11 
ROOT
HETATM    1  O   UNK     0      -6.446   2.164 -23.664  0.00  0.00    -0.306 OA
HETATM    2  O   UNK     0      -4.065   5.004 -25.359  0.00  0.00    -0.284 OA
HETATM    3  C   UNK     0      -4.373   2.736 -24.789  0.00  0.00     0.084 A 
HETATM    4  C   UNK     0      -5.232   1.814 -24.194  0.00  0.00     0.096 A 
HETATM    5  C   UNK     0      -6.841   3.491 -23.733  0.00  0.00     0.123 A 
HETATM    6  C   UNK     0      -6.103   4.479 -24.272  0.00  0.00     0.152 A 
HETATM    7  C   UNK     0      -4.780   4.148 -24.854  0.00  0.00     0.223 A 
HETATM    8  C   UNK     0      -3.146   2.321 -25.312  0.00  0.00     0.085 A 
HETATM    9  C   UNK     0      -4.868   0.469 -24.118  0.00  0.00     0.075 A 
HETATM   10  C   UNK     0      -3.643   0.051 -24.640  0.00  0.00     0.071 A 
HETATM   11  C   UNK     0      -2.785   0.976 -25.236  0.00  0.00     0.074 A 
ENDROOT
BRANCH   5  12
HETATM   12  C   UNK     0      -8.163   3.731 -23.128  0.00  0.00     0.004 A 
HETATM   13  C   UNK     0      -9.022   4.679 -23.682  0.00  0.00     0.053 A 
HETATM   14  C   UNK     0     -10.274   4.905 -23.109  0.00  0.00     0.099 A 
HETATM   15  C   UNK     0     -10.665   4.183 -21.981  0.00  0.00     0.098 A 
HETATM   16  C   UNK     0      -9.806   3.234 -21.428  0.00  0.00     0.040 A 
HETATM   17  C   UNK     0      -8.554   3.008 -22.001  0.00  0.00     0.017 A 
BRANCH  14  18
HETATM   18  O   UNK     0     -11.104   5.835 -23.656  0.00  0.00    -0.358 OA
HETATM   19  H   UNK     0     -10.893   6.714 -23.302  0.00  0.00     0.217 HD
ENDBRANCH  14  18
BRANCH  15  20
HETATM   20  O   UNK     0     -11.886   4.394 -21.414  0.00  0.00    -0.358 OA
HETATM   21  H   UNK     0     -12.326   3.543 -21.259  0.00  0.00     0.217 HD
ENDBRANCH  15  20
ENDBRANCH   5  12
BRANCH   6  22
HETATM   22  O   UNK     0      -6.510   5.795 -24.297  0.00  0.00    -0.355 OA
HETATM   23  H   UNK     0      -5.815   6.349 -24.688  0.00  0.00     0.218 HD
ENDBRANCH   6  22
BRANCH   8  24
HETATM   24  O   UNK     0      -2.270   3.181 -25.903  0.00  0.00    -0.360 OA
HETATM   25  H   UNK     0      -2.634   3.519 -26.736  0.00  0.00     0.217 HD
ENDBRANCH   8  24
BRANCH  10  26
HETATM   26  O   UNK     0      -3.287  -1.261 -24.567  0.00  0.00    -0.361 OA
HETATM   27  H   UNK     0      -3.993  -1.754 -24.114  0.00  0.00     0.217 HD
ENDBRANCH  10  26
TORSDOF 6
