REMARK VINA RESULT:      -6.5      1.666      7.174
REMARK  6 active torsions:
REMARK  status: ('A' for Active; 'I' for Inactive)
REMARK    1  A    between atoms: O_2  and  C_12 
REMARK    2  A    between atoms: O_3  and  C_14 
REMARK    3  A    between atoms: O_5  and  C_16 
REMARK    4  A    between atoms: O_6  and  C_20 
REMARK    5  A    between atoms: O_7  and  C_22 
REMARK    6  A    between atoms: C_10  and  C_11 
ROOT
HETATM    1  O   UNK     0      -4.648   3.487 -24.391  0.00  0.00    -0.306 OA
HETATM    2  O   UNK     0      -3.319  -0.135 -25.702  0.00  0.00    -0.284 OA
HETATM    3  C   UNK     0      -2.982   2.196 -25.594  0.00  0.00     0.084 A 
HETATM    4  C   UNK     0      -3.490   3.403 -25.118  0.00  0.00     0.096 A 
HETATM    5  C   UNK     0      -5.336   2.317 -24.105  0.00  0.00     0.123 A 
HETATM    6  C   UNK     0      -4.958   1.091 -24.511  0.00  0.00     0.152 A 
HETATM    7  C   UNK     0      -3.714   0.953 -25.306  0.00  0.00     0.223 A 
HETATM    8  C   UNK     0      -1.796   2.173 -26.333  0.00  0.00     0.085 A 
HETATM    9  C   UNK     0      -2.815   4.596 -25.381  0.00  0.00     0.075 A 
HETATM   10  C   UNK     0      -1.631   4.576 -26.118  0.00  0.00     0.071 A 
HETATM   11  C   UNK     0      -1.123   3.366 -26.593  0.00  0.00     0.074 A 
ENDROOT
BRANCH   5  12
HETATM   12  C   UNK     0      -6.560   2.548 -23.317  0.00  0.00     0.004 A 
HETATM   13  C   UNK     0      -6.907   1.666 -22.294  0.00  0.00     0.053 A 
HETATM   14  C   UNK     0      -8.066   1.885 -21.548  0.00  0.00     0.099 A 
HETATM   15  C   UNK     0      -8.877   2.985 -21.827  0.00  0.00     0.098 A 
HETATM   16  C   UNK     0      -8.529   3.867 -22.850  0.00  0.00     0.040 A 
HETATM   17  C   UNK     0      -7.371   3.649 -23.595  0.00  0.00     0.017 A 
BRANCH  14  18
HETATM   18  O   UNK     0      -8.397   1.017 -20.553  0.00  0.00    -0.358 OA
HETATM   19  H   UNK     0      -8.546   0.132 -20.924  0.00  0.00     0.217 HD
ENDBRANCH  14  18
BRANCH  15  20
HETATM   20  O   UNK     0     -10.010   3.210 -21.104  0.00  0.00    -0.358 OA
HETATM   21  H   UNK     0     -10.782   2.892 -21.598  0.00  0.00     0.217 HD
ENDBRANCH  15  20
ENDBRANCH   5  12
BRANCH   6  22
HETATM   22  O   UNK     0      -5.682  -0.049 -24.238  0.00  0.00    -0.355 OA
HETATM   23  H   UNK     0      -5.643  -0.654 -24.997  0.00  0.00     0.218 HD
ENDBRANCH   6  22
BRANCH   8  24
HETATM   24  O   UNK     0      -1.257   1.020 -26.821  0.00  0.00    -0.360 OA
HETATM   25  H   UNK     0      -1.751   0.715 -27.597  0.00  0.00     0.217 HD
ENDBRANCH   8  24
BRANCH  10  26
HETATM   26  O   UNK     0      -0.971   5.739 -26.374  0.00  0.00    -0.361 OA
HETATM   27  H   UNK     0      -0.058   5.662 -26.046  0.00  0.00     0.217 HD
ENDBRANCH  10  26
TORSDOF 6
