REMARK VINA RESULT:      -6.1      4.597      7.015
REMARK  6 active torsions:
REMARK  status: ('A' for Active; 'I' for Inactive)
REMARK    1  A    between atoms: O_2  and  C_12 
REMARK    2  A    between atoms: O_3  and  C_14 
REMARK    3  A    between atoms: O_5  and  C_16 
REMARK    4  A    between atoms: O_6  and  C_20 
REMARK    5  A    between atoms: O_7  and  C_22 
REMARK    6  A    between atoms: C_10  and  C_11 
ROOT
HETATM    1  O   UNK     0      -2.660  -0.319 -28.600  0.00  0.00    -0.306 OA
HETATM    2  O   UNK     0      -4.116   3.481 -28.816  0.00  0.00    -0.284 OA
HETATM    3  C   UNK     0      -3.403   1.690 -27.458  0.00  0.00     0.084 A 
HETATM    4  C   UNK     0      -2.906   0.388 -27.452  0.00  0.00     0.096 A 
HETATM    5  C   UNK     0      -2.902   0.294 -29.819  0.00  0.00     0.123 A 
HETATM    6  C   UNK     0      -3.388   1.541 -29.963  0.00  0.00     0.152 A 
HETATM    7  C   UNK     0      -3.675   2.342 -28.748  0.00  0.00     0.223 A 
HETATM    8  C   UNK     0      -3.636   2.361 -26.255  0.00  0.00     0.085 A 
HETATM    9  C   UNK     0      -2.643  -0.253 -26.240  0.00  0.00     0.075 A 
HETATM   10  C   UNK     0      -2.875   0.415 -25.038  0.00  0.00     0.071 A 
HETATM   11  C   UNK     0      -3.371   1.719 -25.046  0.00  0.00     0.074 A 
ENDROOT
BRANCH   5  12
HETATM   12  C   UNK     0      -2.595  -0.573 -30.970  0.00  0.00     0.004 A 
HETATM   13  C   UNK     0      -3.624  -1.236 -31.639  0.00  0.00     0.053 A 
HETATM   14  C   UNK     0      -3.333  -2.056 -32.729  0.00  0.00     0.099 A 
HETATM   15  C   UNK     0      -2.013  -2.214 -33.150  0.00  0.00     0.098 A 
HETATM   16  C   UNK     0      -0.984  -1.550 -32.482  0.00  0.00     0.040 A 
HETATM   17  C   UNK     0      -1.275  -0.730 -31.392  0.00  0.00     0.017 A 
BRANCH  14  18
HETATM   18  O   UNK     0      -4.346  -2.701 -33.373  0.00  0.00    -0.358 OA
HETATM   19  H   UNK     0      -4.245  -2.594 -34.333  0.00  0.00     0.217 HD
ENDBRANCH  14  18
BRANCH  15  20
HETATM   20  O   UNK     0      -1.716  -3.011 -34.215  0.00  0.00    -0.358 OA
HETATM   21  H   UNK     0      -0.799  -2.860 -34.491  0.00  0.00     0.217 HD
ENDBRANCH  15  20
ENDBRANCH   5  12
BRANCH   6  22
HETATM   22  O   UNK     0      -3.649   2.110 -31.190  0.00  0.00    -0.355 OA
HETATM   23  H   UNK     0      -4.578   2.391 -31.233  0.00  0.00     0.218 HD
ENDBRANCH   6  22
BRANCH   8  24
HETATM   24  O   UNK     0      -4.120   3.634 -26.206  0.00  0.00    -0.360 OA
HETATM   25  H   UNK     0      -3.402   4.275 -26.315  0.00  0.00     0.217 HD
ENDBRANCH   8  24
BRANCH  10  26
HETATM   26  O   UNK     0      -2.617  -0.209 -23.855  0.00  0.00    -0.361 OA
HETATM   27  H   UNK     0      -3.408  -0.154 -23.291  0.00  0.00     0.217 HD
ENDBRANCH  10  26
TORSDOF 6
