REMARK VINA RESULT:      -6.4      1.933      3.472
REMARK  6 active torsions:
REMARK  status: ('A' for Active; 'I' for Inactive)
REMARK    1  A    between atoms: O_2  and  C_12 
REMARK    2  A    between atoms: O_3  and  C_14 
REMARK    3  A    between atoms: O_5  and  C_16 
REMARK    4  A    between atoms: O_6  and  C_20 
REMARK    5  A    between atoms: O_7  and  C_22 
REMARK    6  A    between atoms: C_10  and  C_11 
ROOT
HETATM    1  O   UNK     0      -7.177   4.279 -23.769  0.00  0.00    -0.306 OA
HETATM    2  O   UNK     0      -7.322   0.451 -22.378  0.00  0.00    -0.284 OA
HETATM    3  C   UNK     0      -8.389   2.545 -22.580  0.00  0.00     0.084 A 
HETATM    4  C   UNK     0      -8.277   3.841 -23.080  0.00  0.00     0.096 A 
HETATM    5  C   UNK     0      -6.136   3.390 -23.989  0.00  0.00     0.123 A 
HETATM    6  C   UNK     0      -6.116   2.117 -23.553  0.00  0.00     0.152 A 
HETATM    7  C   UNK     0      -7.283   1.600 -22.798  0.00  0.00     0.223 A 
HETATM    8  C   UNK     0      -9.535   2.155 -21.883  0.00  0.00     0.085 A 
HETATM    9  C   UNK     0      -9.312   4.756 -22.884  0.00  0.00     0.075 A 
HETATM   10  C   UNK     0     -10.458   4.369 -22.189  0.00  0.00     0.071 A 
HETATM   11  C   UNK     0     -10.569   3.072 -21.689  0.00  0.00     0.074 A 
ENDROOT
BRANCH   5  12
HETATM   12  C   UNK     0      -5.018   3.987 -24.740  0.00  0.00     0.004 A 
HETATM   13  C   UNK     0      -3.745   3.421 -24.664  0.00  0.00     0.053 A 
HETATM   14  C   UNK     0      -2.687   3.987 -25.376  0.00  0.00     0.099 A 
HETATM   15  C   UNK     0      -2.902   5.118 -26.165  0.00  0.00     0.098 A 
HETATM   16  C   UNK     0      -4.175   5.682 -26.242  0.00  0.00     0.040 A 
HETATM   17  C   UNK     0      -5.233   5.117 -25.530  0.00  0.00     0.017 A 
BRANCH  14  18
HETATM   18  O   UNK     0      -1.448   3.428 -25.293  0.00  0.00    -0.358 OA
HETATM   19  H   UNK     0      -0.841   4.040 -24.845  0.00  0.00     0.217 HD
ENDBRANCH  14  18
BRANCH  15  20
HETATM   20  O   UNK     0      -1.877   5.677 -26.866  0.00  0.00    -0.358 OA
HETATM   21  H   UNK     0      -1.741   6.592 -26.574  0.00  0.00     0.217 HD
ENDBRANCH  15  20
ENDBRANCH   5  12
BRANCH   6  22
HETATM   22  O   UNK     0      -5.051   1.267 -23.760  0.00  0.00    -0.355 OA
HETATM   23  H   UNK     0      -4.277   1.580 -23.263  0.00  0.00     0.218 HD
ENDBRANCH   6  22
BRANCH   8  24
HETATM   24  O   UNK     0      -9.695   0.901 -21.374  0.00  0.00    -0.360 OA
HETATM   25  H   UNK     0      -9.931   0.276 -22.076  0.00  0.00     0.217 HD
ENDBRANCH   8  24
BRANCH  10  26
HETATM   26  O   UNK     0     -11.469   5.262 -21.997  0.00  0.00    -0.361 OA
HETATM   27  H   UNK     0     -11.416   5.607 -21.089  0.00  0.00     0.217 HD
ENDBRANCH  10  26
TORSDOF 6
