REMARK VINA RESULT:      -6.7      1.951      7.396
REMARK  6 active torsions:
REMARK  status: ('A' for Active; 'I' for Inactive)
REMARK    1  A    between atoms: O_2  and  C_12 
REMARK    2  A    between atoms: O_3  and  C_14 
REMARK    3  A    between atoms: O_5  and  C_16 
REMARK    4  A    between atoms: O_6  and  C_20 
REMARK    5  A    between atoms: O_7  and  C_22 
REMARK    6  A    between atoms: C_10  and  C_11 
ROOT
HETATM    1  O   UNK     0      -6.511   4.268 -24.034  0.00  0.00    -0.306 OA
HETATM    2  O   UNK     0      -5.502   0.363 -23.456  0.00  0.00    -0.284 OA
HETATM    3  C   UNK     0      -4.903   2.474 -24.322  0.00  0.00     0.084 A 
HETATM    4  C   UNK     0      -5.307   3.797 -24.488  0.00  0.00     0.096 A 
HETATM    5  C   UNK     0      -7.356   3.394 -23.368  0.00  0.00     0.123 A 
HETATM    6  C   UNK     0      -7.089   2.093 -23.149  0.00  0.00     0.152 A 
HETATM    7  C   UNK     0      -5.800   1.537 -23.628  0.00  0.00     0.223 A 
HETATM    8  C   UNK     0      -3.664   2.049 -24.808  0.00  0.00     0.085 A 
HETATM    9  C   UNK     0      -4.475   4.703 -25.145  0.00  0.00     0.075 A 
HETATM   10  C   UNK     0      -3.237   4.282 -25.632  0.00  0.00     0.071 A 
HETATM   11  C   UNK     0      -2.833   2.957 -25.463  0.00  0.00     0.074 A 
ENDROOT
BRANCH   5  12
HETATM   12  C   UNK     0      -8.613   4.028 -22.933  0.00  0.00     0.004 A 
HETATM   13  C   UNK     0      -9.286   4.902 -23.786  0.00  0.00     0.053 A 
HETATM   14  C   UNK     0     -10.476   5.502 -23.374  0.00  0.00     0.099 A 
HETATM   15  C   UNK     0     -10.993   5.227 -22.107  0.00  0.00     0.098 A 
HETATM   16  C   UNK     0     -10.321   4.351 -21.255  0.00  0.00     0.040 A 
HETATM   17  C   UNK     0      -9.131   3.752 -21.667  0.00  0.00     0.017 A 
BRANCH  14  18
HETATM   18  O   UNK     0     -11.123   6.356 -24.214  0.00  0.00    -0.358 OA
HETATM   19  H   UNK     0     -11.457   5.869 -24.984  0.00  0.00     0.217 HD
ENDBRANCH  14  18
BRANCH  15  20
HETATM   20  O   UNK     0     -12.156   5.804 -21.694  0.00  0.00    -0.358 OA
HETATM   21  H   UNK     0     -12.784   5.841 -22.433  0.00  0.00     0.217 HD
ENDBRANCH  15  20
ENDBRANCH   5  12
BRANCH   6  22
HETATM   22  O   UNK     0      -7.965   1.242 -22.512  0.00  0.00    -0.355 OA
HETATM   23  H   UNK     0      -8.068   1.508 -21.584  0.00  0.00     0.218 HD
ENDBRANCH   6  22
BRANCH   8  24
HETATM   24  O   UNK     0      -3.221   0.767 -24.671  0.00  0.00    -0.360 OA
HETATM   25  H   UNK     0      -3.890   0.222 -24.230  0.00  0.00     0.217 HD
ENDBRANCH   8  24
BRANCH  10  26
HETATM   26  O   UNK     0      -2.423   5.166 -26.272  0.00  0.00    -0.361 OA
HETATM   27  H   UNK     0      -2.851   6.040 -26.278  0.00  0.00     0.217 HD
ENDBRANCH  10  26
TORSDOF 6
