REMARK VINA RESULT:      -6.9      0.626      1.474
REMARK  6 active torsions:
REMARK  status: ('A' for Active; 'I' for Inactive)
REMARK    1  A    between atoms: O_2  and  C_12 
REMARK    2  A    between atoms: O_3  and  C_14 
REMARK    3  A    between atoms: O_5  and  C_16 
REMARK    4  A    between atoms: O_6  and  C_20 
REMARK    5  A    between atoms: O_7  and  C_22 
REMARK    6  A    between atoms: C_10  and  C_11 
ROOT
HETATM    1  O   UNK     0      -5.800   1.591 -23.424  0.00  0.00    -0.306 OA
HETATM    2  O   UNK     0      -7.811   5.037 -24.253  0.00  0.00    -0.284 OA
HETATM    3  C   UNK     0      -7.779   2.964 -23.128  0.00  0.00     0.084 A 
HETATM    4  C   UNK     0      -7.041   1.808 -22.885  0.00  0.00     0.096 A 
HETATM    5  C   UNK     0      -5.251   2.571 -24.236  0.00  0.00     0.123 A 
HETATM    6  C   UNK     0      -5.861   3.727 -24.556  0.00  0.00     0.152 A 
HETATM    7  C   UNK     0      -7.208   4.003 -23.999  0.00  0.00     0.223 A 
HETATM    8  C   UNK     0      -9.041   3.130 -22.551  0.00  0.00     0.085 A 
HETATM    9  C   UNK     0      -7.563   0.807 -22.064  0.00  0.00     0.075 A 
HETATM   10  C   UNK     0      -8.822   0.970 -21.486  0.00  0.00     0.071 A 
HETATM   11  C   UNK     0      -9.559   2.129 -21.730  0.00  0.00     0.074 A 
ENDROOT
BRANCH   5  12
HETATM   12  C   UNK     0      -3.917   2.213 -24.748  0.00  0.00     0.004 A 
HETATM   13  C   UNK     0      -2.803   2.972 -24.387  0.00  0.00     0.053 A 
HETATM   14  C   UNK     0      -1.540   2.632 -24.872  0.00  0.00     0.099 A 
HETATM   15  C   UNK     0      -1.391   1.533 -25.718  0.00  0.00     0.098 A 
HETATM   16  C   UNK     0      -2.504   0.773 -26.079  0.00  0.00     0.040 A 
HETATM   17  C   UNK     0      -3.767   1.113 -25.594  0.00  0.00     0.017 A 
BRANCH  14  18
HETATM   18  O   UNK     0      -0.461   3.381 -24.515  0.00  0.00    -0.358 OA
HETATM   19  H   UNK     0      -0.422   3.462 -23.548  0.00  0.00     0.217 HD
ENDBRANCH  14  18
BRANCH  15  20
HETATM   20  O   UNK     0      -0.162   1.190 -26.196  0.00  0.00    -0.358 OA
HETATM   21  H   UNK     0      -0.159   0.254 -26.451  0.00  0.00     0.217 HD
ENDBRANCH  15  20
ENDBRANCH   5  12
BRANCH   6  22
HETATM   22  O   UNK     0      -5.301   4.668 -25.393  0.00  0.00    -0.355 OA
HETATM   23  H   UNK     0      -5.382   5.551 -24.998  0.00  0.00     0.218 HD
ENDBRANCH   6  22
BRANCH   8  24
HETATM   24  O   UNK     0      -9.802   4.241 -22.757  0.00  0.00    -0.360 OA
HETATM   25  H   UNK     0     -10.735   4.053 -22.574  0.00  0.00     0.217 HD
ENDBRANCH   8  24
BRANCH  10  26
HETATM   26  O   UNK     0      -9.332  -0.006 -20.684  0.00  0.00    -0.361 OA
HETATM   27  H   UNK     0      -8.667  -0.242 -20.015  0.00  0.00     0.217 HD
ENDBRANCH  10  26
TORSDOF 6
