MODEL 1
REMARK VINA RESULT:      -8.5      0.000      0.000
REMARK  6 active torsions:
REMARK  status: ('A' for Active; 'I' for Inactive)
REMARK    1  A    between atoms: O_2  and  C_12 
REMARK    2  A    between atoms: O_3  and  C_14 
REMARK    3  A    between atoms: O_5  and  C_16 
REMARK    4  A    between atoms: O_6  and  C_20 
REMARK    5  A    between atoms: O_7  and  C_22 
REMARK    6  A    between atoms: C_10  and  C_11 
ROOT
HETATM    1  O   UNK     0     -11.756  40.686  11.371  0.00  0.00    -0.306 OA
HETATM    2  O   UNK     0      -8.990  43.590  10.647  0.00  0.00    -0.284 OA
HETATM    3  C   UNK     0     -11.068  43.003  11.596  0.00  0.00     0.084 A 
HETATM    4  C   UNK     0     -11.974  41.966  11.810  0.00  0.00     0.096 A 
HETATM    5  C   UNK     0     -10.577  40.410  10.697  0.00  0.00     0.123 A 
HETATM    6  C   UNK     0      -9.626  41.321  10.419  0.00  0.00     0.152 A 
HETATM    7  C   UNK     0      -9.821  42.720  10.870  0.00  0.00     0.223 A 
HETATM    8  C   UNK     0     -11.345  44.289  12.066  0.00  0.00     0.085 A 
HETATM    9  C   UNK     0     -13.166  42.210  12.494  0.00  0.00     0.075 A 
HETATM   10  C   UNK     0     -13.445  43.494  12.964  0.00  0.00     0.071 A 
HETATM   11  C   UNK     0     -12.536  44.530  12.750  0.00  0.00     0.074 A 
ENDROOT
BRANCH   5  12
HETATM   12  C   UNK     0     -10.468  39.000  10.282  0.00  0.00     0.004 A 
HETATM   13  C   UNK     0     -10.331  38.679   8.931  0.00  0.00     0.053 A 
HETATM   14  C   UNK     0     -10.227  37.344   8.539  0.00  0.00     0.099 A 
HETATM   15  C   UNK     0     -10.261  36.331   9.498  0.00  0.00     0.098 A 
HETATM   16  C   UNK     0     -10.398  36.652  10.848  0.00  0.00     0.040 A 
HETATM   17  C   UNK     0     -10.501  37.987  11.240  0.00  0.00     0.017 A 
BRANCH  14  18
HETATM   18  O   UNK     0     -10.096  37.042   7.218  0.00  0.00    -0.358 OA
HETATM   19  H   UNK     0      -9.156  36.950   6.994  0.00  0.00     0.217 HD
ENDBRANCH  14  18
BRANCH  15  20
HETATM   20  O   UNK     0     -10.159  35.024   9.127  0.00  0.00    -0.358 OA
HETATM   21  H   UNK     0      -9.288  34.863   8.732  0.00  0.00     0.217 HD
ENDBRANCH  15  20
ENDBRANCH   5  12
BRANCH   6  22
HETATM   22  O   UNK     0      -8.478  41.020   9.717  0.00  0.00    -0.355 OA
HETATM   23  H   UNK     0      -7.770  41.638   9.963  0.00  0.00     0.218 HD
ENDBRANCH   6  22
BRANCH   8  24
HETATM   24  O   UNK     0     -10.494  45.337  11.883  0.00  0.00    -0.360 OA
HETATM   25  H   UNK     0      -9.759  45.293  12.514  0.00  0.00     0.217 HD
ENDBRANCH   8  24
BRANCH  10  26
HETATM   26  O   UNK     0     -14.607  43.733  13.633  0.00  0.00    -0.361 OA
HETATM   27  H   UNK     0     -14.476  44.489  14.231  0.00  0.00     0.217 HD
ENDBRANCH  10  26
TORSDOF 6
ENDMDL
MODEL 2
REMARK VINA RESULT:      -8.0     32.865     34.131
REMARK  6 active torsions:
REMARK  status: ('A' for Active; 'I' for Inactive)
REMARK    1  A    between atoms: O_2  and  C_12 
REMARK    2  A    between atoms: O_3  and  C_14 
REMARK    3  A    between atoms: O_5  and  C_16 
REMARK    4  A    between atoms: O_6  and  C_20 
REMARK    5  A    between atoms: O_7  and  C_22 
REMARK    6  A    between atoms: C_10  and  C_11 
ROOT
HETATM    1  O   UNK     0      10.383  38.352  35.435  0.00  0.00    -0.306 OA
HETATM    2  O   UNK     0      12.626  36.673  38.394  0.00  0.00    -0.284 OA
HETATM    3  C   UNK     0      11.939  36.627  36.139  0.00  0.00     0.084 A 
HETATM    4  C   UNK     0      11.150  37.247  35.172  0.00  0.00     0.096 A 
HETATM    5  C   UNK     0      10.405  38.883  36.716  0.00  0.00     0.123 A 
HETATM    6  C   UNK     0      11.116  38.376  37.739  0.00  0.00     0.152 A 
HETATM    7  C   UNK     0      11.956  37.177  37.503  0.00  0.00     0.223 A 
HETATM    8  C   UNK     0      12.699  35.501  35.812  0.00  0.00     0.085 A 
HETATM    9  C   UNK     0      11.114  36.743  33.871  0.00  0.00     0.075 A 
HETATM   10  C   UNK     0      11.872  35.619  33.542  0.00  0.00     0.071 A 
HETATM   11  C   UNK     0      12.662  35.000  34.511  0.00  0.00     0.074 A 
ENDROOT
BRANCH   5  12
HETATM   12  C   UNK     0       9.540  40.067  36.863  0.00  0.00     0.004 A 
HETATM   13  C   UNK     0      10.096  41.345  36.837  0.00  0.00     0.053 A 
HETATM   14  C   UNK     0       9.277  42.466  36.976  0.00  0.00     0.099 A 
HETATM   15  C   UNK     0       7.900  42.307  37.141  0.00  0.00     0.098 A 
HETATM   16  C   UNK     0       7.344  41.028  37.165  0.00  0.00     0.040 A 
HETATM   17  C   UNK     0       8.164  39.908  37.027  0.00  0.00     0.017 A 
BRANCH  14  18
HETATM   18  O   UNK     0       9.831  43.710  36.952  0.00  0.00    -0.358 OA
HETATM   19  H   UNK     0       9.387  44.254  36.281  0.00  0.00     0.217 HD
ENDBRANCH  14  18
BRANCH  15  20
HETATM   20  O   UNK     0       7.090  43.393  37.275  0.00  0.00    -0.358 OA
HETATM   21  H   UNK     0       6.271  43.137  37.729  0.00  0.00     0.217 HD
ENDBRANCH  15  20
ENDBRANCH   5  12
BRANCH   6  22
HETATM   22  O   UNK     0      11.091  38.908  39.010  0.00  0.00    -0.355 OA
HETATM   23  H   UNK     0      10.747  38.251  39.637  0.00  0.00     0.218 HD
ENDBRANCH   6  22
BRANCH   8  24
HETATM   24  O   UNK     0      13.486  34.858  36.719  0.00  0.00    -0.360 OA
HETATM   25  H   UNK     0      12.942  34.399  37.377  0.00  0.00     0.217 HD
ENDBRANCH   8  24
BRANCH  10  26
HETATM   26  O   UNK     0      11.839  35.126  32.273  0.00  0.00    -0.361 OA
HETATM   27  H   UNK     0      11.015  35.414  31.845  0.00  0.00     0.217 HD
ENDBRANCH  10  26
TORSDOF 6
ENDMDL
MODEL 3
REMARK VINA RESULT:      -7.5     15.561     17.735
REMARK  6 active torsions:
REMARK  status: ('A' for Active; 'I' for Inactive)
REMARK    1  A    between atoms: O_2  and  C_12 
REMARK    2  A    between atoms: O_3  and  C_14 
REMARK    3  A    between atoms: O_5  and  C_16 
REMARK    4  A    between atoms: O_6  and  C_20 
REMARK    5  A    between atoms: O_7  and  C_22 
REMARK    6  A    between atoms: C_10  and  C_11 
ROOT
HETATM    1  O   UNK     0     -18.613  32.947  22.948  0.00  0.00    -0.306 OA
HETATM    2  O   UNK     0     -18.621  30.589  19.625  0.00  0.00    -0.284 OA
HETATM    3  C   UNK     0     -17.481  32.178  20.944  0.00  0.00     0.084 A 
HETATM    4  C   UNK     0     -17.541  32.961  22.095  0.00  0.00     0.096 A 
HETATM    5  C   UNK     0     -19.678  32.109  22.659  0.00  0.00     0.123 A 
HETATM    6  C   UNK     0     -19.749  31.310  21.578  0.00  0.00     0.152 A 
HETATM    7  C   UNK     0     -18.614  31.296  20.624  0.00  0.00     0.223 A 
HETATM    8  C   UNK     0     -16.361  32.234  20.110  0.00  0.00     0.085 A 
HETATM    9  C   UNK     0     -16.480  33.808  22.419  0.00  0.00     0.075 A 
HETATM   10  C   UNK     0     -15.360  33.866  21.588  0.00  0.00     0.071 A 
HETATM   11  C   UNK     0     -15.302  33.081  20.437  0.00  0.00     0.074 A 
ENDROOT
BRANCH   5  12
HETATM   12  C   UNK     0     -20.762  32.191  23.654  0.00  0.00     0.004 A 
HETATM   13  C   UNK     0     -21.001  31.120  24.516  0.00  0.00     0.053 A 
HETATM   14  C   UNK     0     -22.027  31.198  25.458  0.00  0.00     0.099 A 
HETATM   15  C   UNK     0     -22.813  32.348  25.539  0.00  0.00     0.098 A 
HETATM   16  C   UNK     0     -22.573  33.419  24.678  0.00  0.00     0.040 A 
HETATM   17  C   UNK     0     -21.548  33.341  23.736  0.00  0.00     0.017 A 
BRANCH  14  18
HETATM   18  O   UNK     0     -22.253  30.146  26.292  0.00  0.00    -0.358 OA
HETATM   19  H   UNK     0     -22.264  30.454  27.213  0.00  0.00     0.217 HD
ENDBRANCH  14  18
BRANCH  15  20
HETATM   20  O   UNK     0     -23.816  32.437  26.456  0.00  0.00    -0.358 OA
HETATM   21  H   UNK     0     -24.402  31.667  26.377  0.00  0.00     0.217 HD
ENDBRANCH  15  20
ENDBRANCH   5  12
BRANCH   6  22
HETATM   22  O   UNK     0     -20.838  30.512  21.302  0.00  0.00    -0.355 OA
HETATM   23  H   UNK     0     -21.634  31.060  21.212  0.00  0.00     0.218 HD
ENDBRANCH   6  22
BRANCH   8  24
HETATM   24  O   UNK     0     -16.253  31.490  18.974  0.00  0.00    -0.360 OA
HETATM   25  H   UNK     0     -15.971  30.587  19.184  0.00  0.00     0.217 HD
ENDBRANCH   8  24
BRANCH  10  26
HETATM   26  O   UNK     0     -14.324  34.691  21.903  0.00  0.00    -0.361 OA
HETATM   27  H   UNK     0     -13.925  35.023  21.081  0.00  0.00     0.217 HD
ENDBRANCH  10  26
TORSDOF 6
ENDMDL
MODEL 4
REMARK VINA RESULT:      -7.5     32.554     33.174
REMARK  6 active torsions:
REMARK  status: ('A' for Active; 'I' for Inactive)
REMARK    1  A    between atoms: O_2  and  C_12 
REMARK    2  A    between atoms: O_3  and  C_14 
REMARK    3  A    between atoms: O_5  and  C_16 
REMARK    4  A    between atoms: O_6  and  C_20 
REMARK    5  A    between atoms: O_7  and  C_22 
REMARK    6  A    between atoms: C_10  and  C_11 
ROOT
HETATM    1  O   UNK     0       8.831  39.435  36.673  0.00  0.00    -0.306 OA
HETATM    2  O   UNK     0      10.767  42.921  37.513  0.00  0.00    -0.284 OA
HETATM    3  C   UNK     0       8.727  41.829  37.055  0.00  0.00     0.084 A 
HETATM    4  C   UNK     0       8.125  40.605  36.769  0.00  0.00     0.096 A 
HETATM    5  C   UNK     0      10.201  39.469  36.882  0.00  0.00     0.123 A 
HETATM    6  C   UNK     0      10.903  40.584  37.156  0.00  0.00     0.152 A 
HETATM    7  C   UNK     0      10.182  41.875  37.264  0.00  0.00     0.223 A 
HETATM    8  C   UNK     0       7.956  42.991  37.139  0.00  0.00     0.085 A 
HETATM    9  C   UNK     0       6.747  40.537  36.563  0.00  0.00     0.075 A 
HETATM   10  C   UNK     0       5.974  41.695  36.647  0.00  0.00     0.071 A 
HETATM   11  C   UNK     0       6.578  42.920  36.934  0.00  0.00     0.074 A 
ENDROOT
BRANCH   5  12
HETATM   12  C   UNK     0      10.836  38.146  36.750  0.00  0.00     0.004 A 
HETATM   13  C   UNK     0      11.238  37.686  35.496  0.00  0.00     0.053 A 
HETATM   14  C   UNK     0      11.839  36.434  35.371  0.00  0.00     0.099 A 
HETATM   15  C   UNK     0      12.040  35.641  36.502  0.00  0.00     0.098 A 
HETATM   16  C   UNK     0      11.639  36.101  37.756  0.00  0.00     0.040 A 
HETATM   17  C   UNK     0      11.038  37.353  37.880  0.00  0.00     0.017 A 
BRANCH  14  18
HETATM   18  O   UNK     0      12.225  35.994  34.141  0.00  0.00    -0.358 OA
HETATM   19  H   UNK     0      13.093  35.564  34.204  0.00  0.00     0.217 HD
ENDBRANCH  14  18
BRANCH  15  20
HETATM   20  O   UNK     0      12.629  34.417  36.393  0.00  0.00    -0.358 OA
HETATM   21  H   UNK     0      12.284  33.956  35.612  0.00  0.00     0.217 HD
ENDBRANCH  15  20
ENDBRANCH   5  12
BRANCH   6  22
HETATM   22  O   UNK     0      12.271  40.589  37.326  0.00  0.00    -0.355 OA
HETATM   23  H   UNK     0      12.667  39.847  36.841  0.00  0.00     0.218 HD
ENDBRANCH   6  22
BRANCH   8  24
HETATM   24  O   UNK     0       8.495  44.212  37.416  0.00  0.00    -0.360 OA
HETATM   25  H   UNK     0       9.102  44.153  38.168  0.00  0.00     0.217 HD
ENDBRANCH   8  24
BRANCH  10  26
HETATM   26  O   UNK     0       4.629  41.630  36.448  0.00  0.00    -0.361 OA
HETATM   27  H   UNK     0       4.329  40.720  36.621  0.00  0.00     0.217 HD
ENDBRANCH  10  26
TORSDOF 6
ENDMDL
MODEL 5
REMARK VINA RESULT:      -7.2      1.994      7.000
REMARK  6 active torsions:
REMARK  status: ('A' for Active; 'I' for Inactive)
REMARK    1  A    between atoms: O_2  and  C_12 
REMARK    2  A    between atoms: O_3  and  C_14 
REMARK    3  A    between atoms: O_5  and  C_16 
REMARK    4  A    between atoms: O_6  and  C_20 
REMARK    5  A    between atoms: O_7  and  C_22 
REMARK    6  A    between atoms: C_10  and  C_11 
ROOT
HETATM    1  O   UNK     0     -11.637  40.176   8.466  0.00  0.00    -0.306 OA
HETATM    2  O   UNK     0     -10.169  36.746  10.104  0.00  0.00    -0.284 OA
HETATM    3  C   UNK     0     -11.314  37.775   8.318  0.00  0.00     0.084 A 
HETATM    4  C   UNK     0     -11.794  38.982   7.812  0.00  0.00     0.096 A 
HETATM    5  C   UNK     0     -10.960  40.184   9.676  0.00  0.00     0.123 A 
HETATM    6  C   UNK     0     -10.457  39.090  10.276  0.00  0.00     0.152 A 
HETATM    7  C   UNK     0     -10.607  37.775   9.608  0.00  0.00     0.223 A 
HETATM    8  C   UNK     0     -11.505  36.588   7.607  0.00  0.00     0.085 A 
HETATM    9  C   UNK     0     -12.470  39.008   6.592  0.00  0.00     0.075 A 
HETATM   10  C   UNK     0     -12.662  37.824   5.880  0.00  0.00     0.071 A 
HETATM   11  C   UNK     0     -12.181  36.617   6.387  0.00  0.00     0.074 A 
ENDROOT
BRANCH   5  12
HETATM   12  C   UNK     0     -10.861  41.529  10.271  0.00  0.00     0.004 A 
HETATM   13  C   UNK     0      -9.700  42.282  10.104  0.00  0.00     0.053 A 
HETATM   14  C   UNK     0      -9.607  43.555  10.667  0.00  0.00     0.099 A 
HETATM   15  C   UNK     0     -10.676  44.074  11.398  0.00  0.00     0.098 A 
HETATM   16  C   UNK     0     -11.838  43.321  11.563  0.00  0.00     0.040 A 
HETATM   17  C   UNK     0     -11.931  42.049  11.000  0.00  0.00     0.017 A 
BRANCH  14  18
HETATM   18  O   UNK     0      -8.467  44.281  10.500  0.00  0.00    -0.358 OA
HETATM   19  H   UNK     0      -8.650  45.222  10.658  0.00  0.00     0.217 HD
ENDBRANCH  14  18
BRANCH  15  20
HETATM   20  O   UNK     0     -10.598  45.317  11.950  0.00  0.00    -0.358 OA
HETATM   21  H   UNK     0      -9.672  45.533  12.143  0.00  0.00     0.217 HD
ENDBRANCH  15  20
ENDBRANCH   5  12
BRANCH   6  22
HETATM   22  O   UNK     0      -9.817  39.127  11.496  0.00  0.00    -0.355 OA
HETATM   23  H   UNK     0      -8.939  39.530  11.396  0.00  0.00     0.218 HD
ENDBRANCH   6  22
BRANCH   8  24
HETATM   24  O   UNK     0     -11.057  35.382   8.057  0.00  0.00    -0.360 OA
HETATM   25  H   UNK     0     -11.800  34.825   8.334  0.00  0.00     0.217 HD
ENDBRANCH   8  24
BRANCH  10  26
HETATM   26  O   UNK     0     -13.321  37.848   4.689  0.00  0.00    -0.361 OA
HETATM   27  H   UNK     0     -13.233  36.978   4.262  0.00  0.00     0.217 HD
ENDBRANCH  10  26
TORSDOF 6
ENDMDL
MODEL 6
REMARK VINA RESULT:      -7.1     24.707     27.451
REMARK  6 active torsions:
REMARK  status: ('A' for Active; 'I' for Inactive)
REMARK    1  A    between atoms: O_2  and  C_12 
REMARK    2  A    between atoms: O_3  and  C_14 
REMARK    3  A    between atoms: O_5  and  C_16 
REMARK    4  A    between atoms: O_6  and  C_20 
REMARK    5  A    between atoms: O_7  and  C_22 
REMARK    6  A    between atoms: C_10  and  C_11 
ROOT
HETATM    1  O   UNK     0     -11.591  44.289  37.483  0.00  0.00    -0.306 OA
HETATM    2  O   UNK     0      -7.847  44.501  39.078  0.00  0.00    -0.284 OA
HETATM    3  C   UNK     0      -9.964  43.461  39.082  0.00  0.00     0.084 A 
HETATM    4  C   UNK     0     -11.228  43.440  38.495  0.00  0.00     0.096 A 
HETATM    5  C   UNK     0     -10.656  45.198  37.014  0.00  0.00     0.123 A 
HETATM    6  C   UNK     0      -9.407  45.326  37.499  0.00  0.00     0.152 A 
HETATM    7  C   UNK     0      -8.971  44.432  38.598  0.00  0.00     0.223 A 
HETATM    8  C   UNK     0      -9.650  42.572  40.113  0.00  0.00     0.085 A 
HETATM    9  C   UNK     0     -12.188  42.529  38.939  0.00  0.00     0.075 A 
HETATM   10  C   UNK     0     -11.877  41.640  39.968  0.00  0.00     0.071 A 
HETATM   11  C   UNK     0     -10.611  41.661  40.553  0.00  0.00     0.074 A 
ENDROOT
BRANCH   5  12
HETATM   12  C   UNK     0     -11.174  46.048  35.928  0.00  0.00     0.004 A 
HETATM   13  C   UNK     0     -11.983  47.145  36.224  0.00  0.00     0.053 A 
HETATM   14  C   UNK     0     -12.473  47.949  35.195  0.00  0.00     0.099 A 
HETATM   15  C   UNK     0     -12.154  47.656  33.869  0.00  0.00     0.098 A 
HETATM   16  C   UNK     0     -11.345  46.560  33.572  0.00  0.00     0.040 A 
HETATM   17  C   UNK     0     -10.855  45.755  34.601  0.00  0.00     0.017 A 
BRANCH  14  18
HETATM   18  O   UNK     0     -13.264  49.016  35.497  0.00  0.00    -0.358 OA
HETATM   19  H   UNK     0     -12.908  49.817  35.078  0.00  0.00     0.217 HD
ENDBRANCH  14  18
BRANCH  15  20
HETATM   20  O   UNK     0     -12.625  48.436  32.856  0.00  0.00    -0.358 OA
HETATM   21  H   UNK     0     -12.350  48.065  32.002  0.00  0.00     0.217 HD
ENDBRANCH  15  20
ENDBRANCH   5  12
BRANCH   6  22
HETATM   22  O   UNK     0      -8.511  46.264  37.032  0.00  0.00    -0.355 OA
HETATM   23  H   UNK     0      -8.050  46.680  37.779  0.00  0.00     0.218 HD
ENDBRANCH   6  22
BRANCH   8  24
HETATM   24  O   UNK     0      -8.430  42.551  40.720  0.00  0.00    -0.360 OA
HETATM   25  H   UNK     0      -7.856  41.888  40.307  0.00  0.00     0.217 HD
ENDBRANCH   8  24
BRANCH  10  26
HETATM   26  O   UNK     0     -12.813  40.750  40.401  0.00  0.00    -0.361 OA
HETATM   27  H   UNK     0     -12.667  40.575  41.346  0.00  0.00     0.217 HD
ENDBRANCH  10  26
TORSDOF 6
ENDMDL
MODEL 7
REMARK VINA RESULT:      -7.0      2.630      3.501
REMARK  6 active torsions:
REMARK  status: ('A' for Active; 'I' for Inactive)
REMARK    1  A    between atoms: O_2  and  C_12 
REMARK    2  A    between atoms: O_3  and  C_14 
REMARK    3  A    between atoms: O_5  and  C_16 
REMARK    4  A    between atoms: O_6  and  C_20 
REMARK    5  A    between atoms: O_7  and  C_22 
REMARK    6  A    between atoms: C_10  and  C_11 
ROOT
HETATM    1  O   UNK     0     -11.688  39.657   8.242  0.00  0.00    -0.306 OA
HETATM    2  O   UNK     0      -9.809  41.583  11.302  0.00  0.00    -0.284 OA
HETATM    3  C   UNK     0     -10.928  41.738   9.232  0.00  0.00     0.084 A 
HETATM    4  C   UNK     0     -11.558  41.021   8.217  0.00  0.00     0.096 A 
HETATM    5  C   UNK     0     -11.182  38.963   9.330  0.00  0.00     0.123 A 
HETATM    6  C   UNK     0     -10.546  39.534  10.370  0.00  0.00     0.152 A 
HETATM    7  C   UNK     0     -10.377  41.007  10.383  0.00  0.00     0.223 A 
HETATM    8  C   UNK     0     -10.823  43.129   9.152  0.00  0.00     0.085 A 
HETATM    9  C   UNK     0     -12.086  41.691   7.113  0.00  0.00     0.075 A 
HETATM   10  C   UNK     0     -11.984  43.080   7.030  0.00  0.00     0.071 A 
HETATM   11  C   UNK     0     -11.353  43.797   8.048  0.00  0.00     0.074 A 
ENDROOT
BRANCH   5  12
HETATM   12  C   UNK     0     -11.388  37.508   9.231  0.00  0.00     0.004 A 
HETATM   13  C   UNK     0     -11.052  36.833   8.058  0.00  0.00     0.053 A 
HETATM   14  C   UNK     0     -11.247  35.455   7.965  0.00  0.00     0.099 A 
HETATM   15  C   UNK     0     -11.779  34.751   9.047  0.00  0.00     0.098 A 
HETATM   16  C   UNK     0     -12.114  35.426  10.220  0.00  0.00     0.040 A 
HETATM   17  C   UNK     0     -11.919  36.804  10.313  0.00  0.00     0.017 A 
BRANCH  14  18
HETATM   18  O   UNK     0     -10.917  34.807   6.814  0.00  0.00    -0.358 OA
HETATM   19  H   UNK     0     -10.274  35.334   6.312  0.00  0.00     0.217 HD
ENDBRANCH  14  18
BRANCH  15  20
HETATM   20  O   UNK     0     -11.972  33.405   8.969  0.00  0.00    -0.358 OA
HETATM   21  H   UNK     0     -12.122  33.149   8.045  0.00  0.00     0.217 HD
ENDBRANCH  15  20
ENDBRANCH   5  12
BRANCH   6  22
HETATM   22  O   UNK     0     -10.025  38.813  11.422  0.00  0.00    -0.355 OA
HETATM   23  H   UNK     0     -10.744  38.486  11.986  0.00  0.00     0.218 HD
ENDBRANCH   6  22
BRANCH   8  24
HETATM   24  O   UNK     0     -10.218  43.877  10.116  0.00  0.00    -0.360 OA
HETATM   25  H   UNK     0      -9.498  43.379  10.531  0.00  0.00     0.217 HD
ENDBRANCH   8  24
BRANCH  10  26
HETATM   26  O   UNK     0     -12.500  43.736   5.954  0.00  0.00    -0.361 OA
HETATM   27  H   UNK     0     -12.478  44.693   6.128  0.00  0.00     0.217 HD
ENDBRANCH  10  26
TORSDOF 6
ENDMDL
MODEL 8
REMARK VINA RESULT:      -7.0     12.615     14.947
REMARK  6 active torsions:
REMARK  status: ('A' for Active; 'I' for Inactive)
REMARK    1  A    between atoms: O_2  and  C_12 
REMARK    2  A    between atoms: O_3  and  C_14 
REMARK    3  A    between atoms: O_5  and  C_16 
REMARK    4  A    between atoms: O_6  and  C_20 
REMARK    5  A    between atoms: O_7  and  C_22 
REMARK    6  A    between atoms: C_10  and  C_11 
ROOT
HETATM    1  O   UNK     0     -19.993  52.483  14.193  0.00  0.00    -0.306 OA
HETATM    2  O   UNK     0     -19.424  51.493  10.282  0.00  0.00    -0.284 OA
HETATM    3  C   UNK     0     -20.433  52.937  11.850  0.00  0.00     0.084 A 
HETATM    4  C   UNK     0     -20.589  53.223  13.205  0.00  0.00     0.096 A 
HETATM    5  C   UNK     0     -19.191  51.414  13.828  0.00  0.00     0.123 A 
HETATM    6  C   UNK     0     -18.966  51.028  12.558  0.00  0.00     0.152 A 
HETATM    7  C   UNK     0     -19.594  51.795  11.455  0.00  0.00     0.223 A 
HETATM    8  C   UNK     0     -21.066  53.726  10.886  0.00  0.00     0.085 A 
HETATM    9  C   UNK     0     -21.382  54.299  13.605  0.00  0.00     0.075 A 
HETATM   10  C   UNK     0     -22.015  55.088  12.644  0.00  0.00     0.071 A 
HETATM   11  C   UNK     0     -21.857  54.802  11.288  0.00  0.00     0.074 A 
ENDROOT
BRANCH   5  12
HETATM   12  C   UNK     0     -18.613  50.706  14.984  0.00  0.00     0.004 A 
HETATM   13  C   UNK     0     -19.442  50.004  15.858  0.00  0.00     0.053 A 
HETATM   14  C   UNK     0     -18.895  49.334  16.952  0.00  0.00     0.099 A 
HETATM   15  C   UNK     0     -17.517  49.367  17.172  0.00  0.00     0.098 A 
HETATM   16  C   UNK     0     -16.688  50.068  16.297  0.00  0.00     0.040 A 
HETATM   17  C   UNK     0     -17.235  50.738  15.203  0.00  0.00     0.017 A 
BRANCH  14  18
HETATM   18  O   UNK     0     -19.714  48.653  17.800  0.00  0.00    -0.358 OA
HETATM   19  H   UNK     0     -19.825  47.740  17.488  0.00  0.00     0.217 HD
ENDBRANCH  14  18
BRANCH  15  20
HETATM   20  O   UNK     0     -16.970  48.714  18.236  0.00  0.00    -0.358 OA
HETATM   21  H   UNK     0     -16.012  48.863  18.254  0.00  0.00     0.217 HD
ENDBRANCH  15  20
ENDBRANCH   5  12
BRANCH   6  22
HETATM   22  O   UNK     0     -18.188  49.939  12.229  0.00  0.00    -0.355 OA
HETATM   23  H   UNK     0     -18.652  49.119  12.467  0.00  0.00     0.218 HD
ENDBRANCH   6  22
BRANCH   8  24
HETATM   24  O   UNK     0     -20.946  53.490   9.549  0.00  0.00    -0.360 OA
HETATM   25  H   UNK     0     -21.820  53.431   9.135  0.00  0.00     0.217 HD
ENDBRANCH   8  24
BRANCH  10  26
HETATM   26  O   UNK     0     -22.789  56.140  13.033  0.00  0.00    -0.361 OA
HETATM   27  H   UNK     0     -23.434  55.829  13.691  0.00  0.00     0.217 HD
ENDBRANCH  10  26
TORSDOF 6
ENDMDL
MODEL 9
REMARK VINA RESULT:      -6.9     12.882     17.751
REMARK  6 active torsions:
REMARK  status: ('A' for Active; 'I' for Inactive)
REMARK    1  A    between atoms: O_2  and  C_12 
REMARK    2  A    between atoms: O_3  and  C_14 
REMARK    3  A    between atoms: O_5  and  C_16 
REMARK    4  A    between atoms: O_6  and  C_20 
REMARK    5  A    between atoms: O_7  and  C_22 
REMARK    6  A    between atoms: C_10  and  C_11 
ROOT
HETATM    1  O   UNK     0     -21.018  52.404  12.499  0.00  0.00    -0.306 OA
HETATM    2  O   UNK     0     -24.851  51.051  12.215  0.00  0.00    -0.284 OA
HETATM    3  C   UNK     0     -22.582  50.553  12.620  0.00  0.00     0.084 A 
HETATM    4  C   UNK     0     -21.294  51.078  12.701  0.00  0.00     0.096 A 
HETATM    5  C   UNK     0     -22.069  53.263  12.213  0.00  0.00     0.123 A 
HETATM    6  C   UNK     0     -23.354  52.883  12.099  0.00  0.00     0.152 A 
HETATM    7  C   UNK     0     -23.700  51.455  12.305  0.00  0.00     0.223 A 
HETATM    8  C   UNK     0     -22.803  49.190  12.835  0.00  0.00     0.085 A 
HETATM    9  C   UNK     0     -20.217  50.241  12.997  0.00  0.00     0.075 A 
HETATM   10  C   UNK     0     -20.434  48.880  13.212  0.00  0.00     0.071 A 
HETATM   11  C   UNK     0     -21.725  48.356  13.131  0.00  0.00     0.074 A 
ENDROOT
BRANCH   5  12
HETATM   12  C   UNK     0     -21.635  54.658  12.019  0.00  0.00     0.004 A 
HETATM   13  C   UNK     0     -21.457  55.493  13.122  0.00  0.00     0.053 A 
HETATM   14  C   UNK     0     -21.046  56.814  12.937  0.00  0.00     0.099 A 
HETATM   15  C   UNK     0     -20.814  57.298  11.650  0.00  0.00     0.098 A 
HETATM   16  C   UNK     0     -20.992  56.463  10.547  0.00  0.00     0.040 A 
HETATM   17  C   UNK     0     -21.402  55.142  10.732  0.00  0.00     0.017 A 
BRANCH  14  18
HETATM   18  O   UNK     0     -20.878  57.621  14.021  0.00  0.00    -0.358 OA
HETATM   19  H   UNK     0     -21.320  57.232  14.793  0.00  0.00     0.217 HD
ENDBRANCH  14  18
BRANCH  15  20
HETATM   20  O   UNK     0     -20.411  58.586  11.457  0.00  0.00    -0.358 OA
HETATM   21  H   UNK     0     -20.720  58.900  10.593  0.00  0.00     0.217 HD
ENDBRANCH  15  20
ENDBRANCH   5  12
BRANCH   6  22
HETATM   22  O   UNK     0     -24.372  53.756  11.781  0.00  0.00    -0.355 OA
HETATM   23  H   UNK     0     -25.230  53.309  11.869  0.00  0.00     0.218 HD
ENDBRANCH   6  22
BRANCH   8  24
HETATM   24  O   UNK     0     -24.042  48.627  12.767  0.00  0.00    -0.360 OA
HETATM   25  H   UNK     0     -24.597  49.102  12.131  0.00  0.00     0.217 HD
ENDBRANCH   8  24
BRANCH  10  26
HETATM   26  O   UNK     0     -19.384  48.062  13.501  0.00  0.00    -0.361 OA
HETATM   27  H   UNK     0     -18.809  48.001  12.719  0.00  0.00     0.217 HD
ENDBRANCH  10  26
TORSDOF 6
ENDMDL
