MODEL 1
REMARK VINA RESULT:      -9.6      0.000      0.000
REMARK  Name = 5320623
REMARK  11 active torsions:
REMARK  status: ('A' for Active; 'I' for Inactive)
REMARK    1  A    between atoms: O_2  and  C_16
REMARK    2  A    between atoms: O_2  and  C_18
REMARK    3  A    between atoms: O_3  and  C_12
REMARK    4  A    between atoms: O_4  and  C_13
REMARK    5  A    between atoms: O_5  and  C_14
REMARK    6  A    between atoms: O_6  and  C_17
REMARK    7  A    between atoms: O_8  and  C_20
REMARK    8  A    between atoms: O_9  and  C_23
REMARK    9  A    between atoms: O_11  and  C_32
REMARK   10  A    between atoms: C_15  and  C_17
REMARK   11  A    between atoms: C_25  and  C_27
REMARK                            x       y       z     vdW  Elec       q    Type
REMARK                         _______ _______ _______ _____ _____    ______ ____
ROOT
ATOM      7  O   UNL     1     169.434 172.767 167.990  0.00  0.00    +0.000 OA
ATOM     10  O   UNL     1     170.515 175.164 171.102  0.00  0.00    +0.000 OA
ATOM     18  C   UNL     1     166.220 172.960 169.696  0.00  0.00    +0.000 A 
ATOM     19  C   UNL     1     167.209 172.632 168.769  0.00  0.00    +0.000 A 
ATOM     20  C   UNL     1     166.524 173.779 170.785  0.00  0.00    +0.000 A 
ATOM     21  C   UNL     1     168.504 173.124 168.933  0.00  0.00    +0.000 A 
ATOM     22  C   UNL     1     168.806 173.941 170.021  0.00  0.00    +0.000 A 
ATOM     23  C   UNL     1     167.819 174.272 170.952  0.00  0.00    +0.000 A 
ATOM     24  C   UNL     1     170.180 174.445 170.170  0.00  0.00    +0.000 A 
ATOM     25  C   UNL     1     170.728 173.248 168.123  0.00  0.00    +0.000 A 
ATOM     26  C   UNL     1     171.142 174.035 169.128  0.00  0.00    +0.000 A 
ENDROOT
BRANCH  25  27
ATOM     27  C   UNL     1     171.647 172.798 167.058  0.00  0.00    +0.000 A 
ATOM     28  C   UNL     1     171.944 173.641 165.985  0.00  0.00    +0.000 A 
ATOM     29  C   UNL     1     172.222 171.526 167.119  0.00  0.00    +0.000 A 
ATOM     30  C   UNL     1     172.812 173.215 164.979  0.00  0.00    +0.000 A 
ATOM     31  C   UNL     1     173.090 171.100 166.114  0.00  0.00    +0.000 A 
ATOM     32  C   UNL     1     173.385 171.944 165.043  0.00  0.00    +0.000 A 
BRANCH  32  11
ATOM     11  O   UNL     1     174.232 171.529 164.062  0.00  0.00    +0.000 OA
ATOM     39  H   UNL     1     174.596 172.309 163.609  0.00  0.00    +0.000 HD
ENDBRANCH  32  11
ENDBRANCH  25  27
BRANCH  20   8
ATOM      8  O   UNL     1     165.550 174.094 171.688  0.00  0.00    +0.000 OA
ATOM     37  H   UNL     1     165.276 175.015 171.534  0.00  0.00    +0.000 HD
ENDBRANCH  20   8
BRANCH  23   9
ATOM      9  O   UNL     1     168.076 175.069 172.027  0.00  0.00    +0.000 OA
ATOM     38  H   UNL     1     168.518 175.887 171.751  0.00  0.00    +0.000 HD
ENDBRANCH  23   9
BRANCH  18   2
ATOM      2  O   UNL     1     164.956 172.474 169.526  0.00  0.00    +0.000 OA
BRANCH   2  16
ATOM      1  O   UNL     1     162.967 173.634 169.907  0.00  0.00    +0.000 OA
ATOM     12  C   UNL     1     162.277 173.532 167.120  0.00  0.00    +0.000 C 
ATOM     13  C   UNL     1     161.272 173.933 168.200  0.00  0.00    +0.000 C 
ATOM     14  C   UNL     1     163.421 172.706 167.708  0.00  0.00    +0.000 C 
ATOM     15  C   UNL     1     161.986 174.544 169.408  0.00  0.00    +0.000 C 
ATOM     16  C   UNL     1     163.999 173.368 168.960  0.00  0.00    +0.000 C 
BRANCH  12   3
ATOM      3  O   UNL     1     161.586 172.758 166.139  0.00  0.00    +0.000 OA
ATOM     33  H   UNL     1     160.886 172.263 166.599  0.00  0.00    +0.000 HD
ENDBRANCH  12   3
BRANCH  13   4
ATOM      4  O   UNL     1     160.357 174.884 167.663  0.00  0.00    +0.000 OA
ATOM     34  H   UNL     1     159.945 175.358 168.406  0.00  0.00    +0.000 HD
ENDBRANCH  13   4
BRANCH  14   5
ATOM      5  O   UNL     1     164.465 172.589 166.742  0.00  0.00    +0.000 OA
ATOM     35  H   UNL     1     165.238 172.193 167.178  0.00  0.00    +0.000 HD
ENDBRANCH  14   5
BRANCH  15  17
ATOM     17  C   UNL     1     161.017 174.844 170.546  0.00  0.00    +0.000 C 
BRANCH  17   6
ATOM      6  O   UNL     1     159.937 173.932 170.473  0.00  0.00    +0.000 OA
ATOM     36  H   UNL     1     159.588 173.962 169.565  0.00  0.00    +0.000 HD
ENDBRANCH  17   6
ENDBRANCH  15  17
ENDBRANCH   2  16
ENDBRANCH  18   2
TORSDOF 11
ENDMDL
MODEL 2
REMARK VINA RESULT:      -9.1      1.407      2.413
REMARK  Name = 5320623
REMARK  11 active torsions:
REMARK  status: ('A' for Active; 'I' for Inactive)
REMARK    1  A    between atoms: O_2  and  C_16
REMARK    2  A    between atoms: O_2  and  C_18
REMARK    3  A    between atoms: O_3  and  C_12
REMARK    4  A    between atoms: O_4  and  C_13
REMARK    5  A    between atoms: O_5  and  C_14
REMARK    6  A    between atoms: O_6  and  C_17
REMARK    7  A    between atoms: O_8  and  C_20
REMARK    8  A    between atoms: O_9  and  C_23
REMARK    9  A    between atoms: O_11  and  C_32
REMARK   10  A    between atoms: C_15  and  C_17
REMARK   11  A    between atoms: C_25  and  C_27
REMARK                            x       y       z     vdW  Elec       q    Type
REMARK                         _______ _______ _______ _____ _____    ______ ____
ROOT
ATOM      7  O   UNL     1     169.804 173.209 167.969  0.00  0.00    +0.000 OA
ATOM     10  O   UNL     1     171.303 173.833 171.706  0.00  0.00    +0.000 OA
ATOM     18  C   UNL     1     166.779 174.431 169.594  0.00  0.00    +0.000 A 
ATOM     19  C   UNL     1     167.657 173.942 168.627  0.00  0.00    +0.000 A 
ATOM     20  C   UNL     1     167.230 174.668 170.894  0.00  0.00    +0.000 A 
ATOM     21  C   UNL     1     168.988 173.690 168.962  0.00  0.00    +0.000 A 
ATOM     22  C   UNL     1     169.436 173.927 170.261  0.00  0.00    +0.000 A 
ATOM     23  C   UNL     1     168.560 174.416 171.232  0.00  0.00    +0.000 A 
ATOM     24  C   UNL     1     170.843 173.651 170.587  0.00  0.00    +0.000 A 
ATOM     25  C   UNL     1     171.133 172.957 168.272  0.00  0.00    +0.000 A 
ATOM     26  C   UNL     1     171.680 173.138 169.484  0.00  0.00    +0.000 A 
ENDROOT
BRANCH  25  27
ATOM     27  C   UNL     1     171.919 172.438 167.134  0.00  0.00    +0.000 A 
ATOM     28  C   UNL     1     171.270 171.940 166.002  0.00  0.00    +0.000 A 
ATOM     29  C   UNL     1     173.315 172.441 167.187  0.00  0.00    +0.000 A 
ATOM     30  C   UNL     1     172.013 171.449 164.928  0.00  0.00    +0.000 A 
ATOM     31  C   UNL     1     174.058 171.950 166.113  0.00  0.00    +0.000 A 
ATOM     32  C   UNL     1     173.407 171.453 164.984  0.00  0.00    +0.000 A 
BRANCH  32  11
ATOM     11  O   UNL     1     174.131 170.974 163.936  0.00  0.00    +0.000 OA
ATOM     39  H   UNL     1     174.348 171.711 163.340  0.00  0.00    +0.000 HD
ENDBRANCH  32  11
ENDBRANCH  25  27
BRANCH  20   8
ATOM      8  O   UNL     1     166.363 175.146 171.834  0.00  0.00    +0.000 OA
ATOM     37  H   UNL     1     165.724 174.444 172.046  0.00  0.00    +0.000 HD
ENDBRANCH  20   8
BRANCH  23   9
ATOM      9  O   UNL     1     168.961 174.661 172.511  0.00  0.00    +0.000 OA
ATOM     38  H   UNL     1     168.236 175.038 173.033  0.00  0.00    +0.000 HD
ENDBRANCH  23   9
BRANCH  18   2
ATOM      2  O   UNL     1     165.480 174.675 169.255  0.00  0.00    +0.000 OA
BRANCH   2  16
ATOM      1  O   UNL     1     164.225 173.245 167.903  0.00  0.00    +0.000 OA
ATOM     12  C   UNL     1     162.306 172.813 169.997  0.00  0.00    +0.000 C 
ATOM     13  C   UNL     1     162.046 172.400 168.548  0.00  0.00    +0.000 C 
ATOM     14  C   UNL     1     163.370 173.908 170.078  0.00  0.00    +0.000 C 
ATOM     15  C   UNL     1     163.362 172.110 167.821  0.00  0.00    +0.000 C 
ATOM     16  C   UNL     1     164.601 173.551 169.244  0.00  0.00    +0.000 C 
BRANCH  12   3
ATOM      3  O   UNL     1     161.080 173.299 170.544  0.00  0.00    +0.000 OA
ATOM     33  H   UNL     1     161.212 174.237 170.765  0.00  0.00    +0.000 HD
ENDBRANCH  12   3
BRANCH  13   4
ATOM      4  O   UNL     1     161.231 171.232 168.530  0.00  0.00    +0.000 OA
ATOM     34  H   UNL     1     161.692 170.536 169.028  0.00  0.00    +0.000 HD
ENDBRANCH  13   4
BRANCH  14   5
ATOM      5  O   UNL     1     163.781 174.069 171.435  0.00  0.00    +0.000 OA
ATOM     35  H   UNL     1     164.731 174.271 171.442  0.00  0.00    +0.000 HD
ENDBRANCH  14   5
BRANCH  15  17
ATOM     17  C   UNL     1     163.137 171.810 166.343  0.00  0.00    +0.000 C 
BRANCH  17   6
ATOM      6  O   UNL     1     161.993 172.520 165.906  0.00  0.00    +0.000 OA
ATOM     36  H   UNL     1     161.845 172.293 164.972  0.00  0.00    +0.000 HD
ENDBRANCH  17   6
ENDBRANCH  15  17
ENDBRANCH   2  16
ENDBRANCH  18   2
TORSDOF 11
ENDMDL
MODEL 3
REMARK VINA RESULT:      -9.0      1.715      2.665
REMARK  Name = 5320623
REMARK  11 active torsions:
REMARK  status: ('A' for Active; 'I' for Inactive)
REMARK    1  A    between atoms: O_2  and  C_16
REMARK    2  A    between atoms: O_2  and  C_18
REMARK    3  A    between atoms: O_3  and  C_12
REMARK    4  A    between atoms: O_4  and  C_13
REMARK    5  A    between atoms: O_5  and  C_14
REMARK    6  A    between atoms: O_6  and  C_17
REMARK    7  A    between atoms: O_8  and  C_20
REMARK    8  A    between atoms: O_9  and  C_23
REMARK    9  A    between atoms: O_11  and  C_32
REMARK   10  A    between atoms: C_15  and  C_17
REMARK   11  A    between atoms: C_25  and  C_27
REMARK                            x       y       z     vdW  Elec       q    Type
REMARK                         _______ _______ _______ _____ _____    ______ ____
ROOT
ATOM      7  O   UNL     1     169.940 173.298 168.477  0.00  0.00    +0.000 OA
ATOM     10  O   UNL     1     171.672 174.713 171.883  0.00  0.00    +0.000 OA
ATOM     18  C   UNL     1     166.922 174.165 170.327  0.00  0.00    +0.000 A 
ATOM     19  C   UNL     1     167.772 173.712 169.319  0.00  0.00    +0.000 A 
ATOM     20  C   UNL     1     167.451 174.663 171.518  0.00  0.00    +0.000 A 
ATOM     21  C   UNL     1     169.154 173.758 169.504  0.00  0.00    +0.000 A 
ATOM     22  C   UNL     1     169.681 174.256 170.695  0.00  0.00    +0.000 A 
ATOM     23  C   UNL     1     168.833 174.710 171.707  0.00  0.00    +0.000 A 
ATOM     24  C   UNL     1     171.142 174.292 170.864  0.00  0.00    +0.000 A 
ATOM     25  C   UNL     1     171.317 173.339 168.630  0.00  0.00    +0.000 A 
ATOM     26  C   UNL     1     171.942 173.789 169.730  0.00  0.00    +0.000 A 
ENDROOT
BRANCH  25  27
ATOM     27  C   UNL     1     172.065 172.815 167.469  0.00  0.00    +0.000 A 
ATOM     28  C   UNL     1     173.055 171.847 167.651  0.00  0.00    +0.000 A 
ATOM     29  C   UNL     1     171.788 173.289 166.184  0.00  0.00    +0.000 A 
ATOM     30  C   UNL     1     173.762 171.353 166.555  0.00  0.00    +0.000 A 
ATOM     31  C   UNL     1     172.494 172.795 165.088  0.00  0.00    +0.000 A 
ATOM     32  C   UNL     1     173.482 171.828 165.273  0.00  0.00    +0.000 A 
BRANCH  32  11
ATOM     11  O   UNL     1     174.172 171.346 164.203  0.00  0.00    +0.000 OA
ATOM     39  H   UNL     1     175.089 171.665 164.250  0.00  0.00    +0.000 HD
ENDBRANCH  32  11
ENDBRANCH  25  27
BRANCH  20   8
ATOM      8  O   UNL     1     166.612 175.104 172.500  0.00  0.00    +0.000 OA
ATOM     37  H   UNL     1     165.720 174.759 172.318  0.00  0.00    +0.000 HD
ENDBRANCH  20   8
BRANCH  23   9
ATOM      9  O   UNL     1     169.311 175.205 172.883  0.00  0.00    +0.000 OA
ATOM     38  H   UNL     1     169.057 174.634 173.625  0.00  0.00    +0.000 HD
ENDBRANCH  23   9
BRANCH  18   2
ATOM      2  O   UNL     1     165.571 174.116 170.135  0.00  0.00    +0.000 OA
BRANCH   2  16
ATOM      1  O   UNL     1     164.353 173.221 168.357  0.00  0.00    +0.000 OA
ATOM     12  C   UNL     1     163.388 171.066 169.993  0.00  0.00    +0.000 C 
ATOM     13  C   UNL     1     162.788 171.389 168.625  0.00  0.00    +0.000 C 
ATOM     14  C   UNL     1     164.108 172.280 170.583  0.00  0.00    +0.000 C 
ATOM     15  C   UNL     1     163.826 172.056 167.720  0.00  0.00    +0.000 C 
ATOM     16  C   UNL     1     165.051 172.917 169.562  0.00  0.00    +0.000 C 
BRANCH  12   3
ATOM      3  O   UNL     1     162.323 170.675 170.861  0.00  0.00    +0.000 OA
ATOM     33  H   UNL     1     162.714 170.476 171.729  0.00  0.00    +0.000 HD
ENDBRANCH  12   3
BRANCH  13   4
ATOM      4  O   UNL     1     162.334 170.185 168.013  0.00  0.00    +0.000 OA
ATOM     34  H   UNL     1     161.610 169.827 168.555  0.00  0.00    +0.000 HD
ENDBRANCH  13   4
BRANCH  14   5
ATOM      5  O   UNL     1     164.879 171.870 171.711  0.00  0.00    +0.000 OA
ATOM     35  H   UNL     1     165.028 172.648 172.275  0.00  0.00    +0.000 HD
ENDBRANCH  14   5
BRANCH  15  17
ATOM     17  C   UNL     1     163.220 172.494 166.391  0.00  0.00    +0.000 C 
BRANCH  17   6
ATOM      6  O   UNL     1     161.815 172.575 166.539  0.00  0.00    +0.000 OA
ATOM     36  H   UNL     1     161.465 173.054 165.768  0.00  0.00    +0.000 HD
ENDBRANCH  17   6
ENDBRANCH  15  17
ENDBRANCH   2  16
ENDBRANCH  18   2
TORSDOF 11
ENDMDL
MODEL 4
REMARK VINA RESULT:      -8.9      1.401      1.833
REMARK  Name = 5320623
REMARK  11 active torsions:
REMARK  status: ('A' for Active; 'I' for Inactive)
REMARK    1  A    between atoms: O_2  and  C_16
REMARK    2  A    between atoms: O_2  and  C_18
REMARK    3  A    between atoms: O_3  and  C_12
REMARK    4  A    between atoms: O_4  and  C_13
REMARK    5  A    between atoms: O_5  and  C_14
REMARK    6  A    between atoms: O_6  and  C_17
REMARK    7  A    between atoms: O_8  and  C_20
REMARK    8  A    between atoms: O_9  and  C_23
REMARK    9  A    between atoms: O_11  and  C_32
REMARK   10  A    between atoms: C_15  and  C_17
REMARK   11  A    between atoms: C_25  and  C_27
REMARK                            x       y       z     vdW  Elec       q    Type
REMARK                         _______ _______ _______ _____ _____    ______ ____
ROOT
ATOM      7  O   UNL     1     169.163 173.515 167.268  0.00  0.00    +0.000 OA
ATOM     10  O   UNL     1     169.606 173.240 171.309  0.00  0.00    +0.000 OA
ATOM     18  C   UNL     1     165.918 174.828 168.282  0.00  0.00    +0.000 A 
ATOM     19  C   UNL     1     166.987 174.406 167.492  0.00  0.00    +0.000 A 
ATOM     20  C   UNL     1     166.006 174.762 169.674  0.00  0.00    +0.000 A 
ATOM     21  C   UNL     1     168.145 173.916 168.096  0.00  0.00    +0.000 A 
ATOM     22  C   UNL     1     168.231 173.850 169.487  0.00  0.00    +0.000 A 
ATOM     23  C   UNL     1     167.163 174.272 170.281  0.00  0.00    +0.000 A 
ATOM     24  C   UNL     1     169.463 173.329 170.097  0.00  0.00    +0.000 A 
ATOM     25  C   UNL     1     170.329 173.032 167.841  0.00  0.00    +0.000 A 
ATOM     26  C   UNL     1     170.529 172.913 169.163  0.00  0.00    +0.000 A 
ENDROOT
BRANCH  25  27
ATOM     27  C   UNL     1     171.355 172.623 166.860  0.00  0.00    +0.000 A 
ATOM     28  C   UNL     1     171.800 171.300 166.819  0.00  0.00    +0.000 A 
ATOM     29  C   UNL     1     171.887 173.560 165.970  0.00  0.00    +0.000 A 
ATOM     30  C   UNL     1     172.769 170.915 165.892  0.00  0.00    +0.000 A 
ATOM     31  C   UNL     1     172.856 173.176 165.044  0.00  0.00    +0.000 A 
ATOM     32  C   UNL     1     173.298 171.853 165.006  0.00  0.00    +0.000 A 
BRANCH  32  11
ATOM     11  O   UNL     1     174.244 171.478 164.101  0.00  0.00    +0.000 OA
ATOM     39  H   UNL     1     173.837 170.883 163.449  0.00  0.00    +0.000 HD
ENDBRANCH  32  11
ENDBRANCH  25  27
BRANCH  20   8
ATOM      8  O   UNL     1     164.955 175.177 170.439  0.00  0.00    +0.000 OA
ATOM     37  H   UNL     1     164.646 176.034 170.096  0.00  0.00    +0.000 HD
ENDBRANCH  20   8
BRANCH  23   9
ATOM      9  O   UNL     1     167.211 174.224 171.642  0.00  0.00    +0.000 OA
ATOM     38  H   UNL     1     168.084 174.495 171.965  0.00  0.00    +0.000 HD
ENDBRANCH  23   9
BRANCH  18   2
ATOM      2  O   UNL     1     164.790 175.306 167.681  0.00  0.00    +0.000 OA
BRANCH   2  16
ATOM      1  O   UNL     1     163.008 174.363 168.857  0.00  0.00    +0.000 OA
ATOM     12  C   UNL     1     163.115 171.974 167.266  0.00  0.00    +0.000 C 
ATOM     13  C   UNL     1     162.312 172.060 168.565  0.00  0.00    +0.000 C 
ATOM     14  C   UNL     1     164.219 173.030 167.227  0.00  0.00    +0.000 C 
ATOM     15  C   UNL     1     161.871 173.500 168.837  0.00  0.00    +0.000 C 
ATOM     16  C   UNL     1     163.681 174.412 167.601  0.00  0.00    +0.000 C 
BRANCH  12   3
ATOM      3  O   UNL     1     163.698 170.672 167.193  0.00  0.00    +0.000 OA
ATOM     33  H   UNL     1     163.927 170.405 168.099  0.00  0.00    +0.000 HD
ENDBRANCH  12   3
BRANCH  13   4
ATOM      4  O   UNL     1     161.162 171.225 168.465  0.00  0.00    +0.000 OA
ATOM     34  H   UNL     1     160.921 170.937 169.362  0.00  0.00    +0.000 HD
ENDBRANCH  13   4
BRANCH  14   5
ATOM      5  O   UNL     1     164.759 173.102 165.908  0.00  0.00    +0.000 OA
ATOM     35  H   UNL     1     164.732 174.029 165.620  0.00  0.00    +0.000 HD
ENDBRANCH  14   5
BRANCH  15  17
ATOM     17  C   UNL     1     161.170 173.632 170.185  0.00  0.00    +0.000 C 
BRANCH  17   6
ATOM      6  O   UNL     1     159.772 173.650 169.968  0.00  0.00    +0.000 OA
ATOM     36  H   UNL     1     159.621 173.562 169.011  0.00  0.00    +0.000 HD
ENDBRANCH  17   6
ENDBRANCH  15  17
ENDBRANCH   2  16
ENDBRANCH  18   2
TORSDOF 11
ENDMDL
MODEL 5
REMARK VINA RESULT:      -8.7      1.627      2.200
REMARK  Name = 5320623
REMARK  11 active torsions:
REMARK  status: ('A' for Active; 'I' for Inactive)
REMARK    1  A    between atoms: O_2  and  C_16
REMARK    2  A    between atoms: O_2  and  C_18
REMARK    3  A    between atoms: O_3  and  C_12
REMARK    4  A    between atoms: O_4  and  C_13
REMARK    5  A    between atoms: O_5  and  C_14
REMARK    6  A    between atoms: O_6  and  C_17
REMARK    7  A    between atoms: O_8  and  C_20
REMARK    8  A    between atoms: O_9  and  C_23
REMARK    9  A    between atoms: O_11  and  C_32
REMARK   10  A    between atoms: C_15  and  C_17
REMARK   11  A    between atoms: C_25  and  C_27
REMARK                            x       y       z     vdW  Elec       q    Type
REMARK                         _______ _______ _______ _____ _____    ______ ____
ROOT
ATOM      7  O   UNL     1     169.081 173.357 167.596  0.00  0.00    +0.000 OA
ATOM     10  O   UNL     1     170.060 173.942 171.508  0.00  0.00    +0.000 OA
ATOM     18  C   UNL     1     165.819 174.398 168.844  0.00  0.00    +0.000 A 
ATOM     19  C   UNL     1     166.836 173.975 167.988  0.00  0.00    +0.000 A 
ATOM     20  C   UNL     1     166.089 174.618 170.196  0.00  0.00    +0.000 A 
ATOM     21  C   UNL     1     168.123 173.772 168.486  0.00  0.00    +0.000 A 
ATOM     22  C   UNL     1     168.390 173.993 169.836  0.00  0.00    +0.000 A 
ATOM     23  C   UNL     1     167.375 174.416 170.697  0.00  0.00    +0.000 A 
ATOM     24  C   UNL     1     169.756 173.771 170.335  0.00  0.00    +0.000 A 
ATOM     25  C   UNL     1     170.371 173.155 168.061  0.00  0.00    +0.000 A 
ATOM     26  C   UNL     1     170.750 173.326 169.338  0.00  0.00    +0.000 A 
ENDROOT
BRANCH  25  27
ATOM     27  C   UNL     1     171.319 172.703 167.023  0.00  0.00    +0.000 A 
ATOM     28  C   UNL     1     171.732 171.369 166.982  0.00  0.00    +0.000 A 
ATOM     29  C   UNL     1     171.810 173.608 166.079  0.00  0.00    +0.000 A 
ATOM     30  C   UNL     1     172.627 170.943 166.001  0.00  0.00    +0.000 A 
ATOM     31  C   UNL     1     172.705 173.182 165.098  0.00  0.00    +0.000 A 
ATOM     32  C   UNL     1     173.115 171.850 165.060  0.00  0.00    +0.000 A 
BRANCH  32  11
ATOM     11  O   UNL     1     173.989 171.433 164.103  0.00  0.00    +0.000 OA
ATOM     39  H   UNL     1     173.494 171.224 163.293  0.00  0.00    +0.000 HD
ENDBRANCH  32  11
ENDBRANCH  25  27
BRANCH  20   8
ATOM      8  O   UNL     1     165.088 175.031 171.027  0.00  0.00    +0.000 OA
ATOM     37  H   UNL     1     165.477 175.245 171.893  0.00  0.00    +0.000 HD
ENDBRANCH  20   8
BRANCH  23   9
ATOM      9  O   UNL     1     167.598 174.643 172.022  0.00  0.00    +0.000 OA
ATOM     38  H   UNL     1     168.518 174.440 172.256  0.00  0.00    +0.000 HD
ENDBRANCH  23   9
BRANCH  18   2
ATOM      2  O   UNL     1     164.563 174.594 168.347  0.00  0.00    +0.000 OA
BRANCH   2  16
ATOM      1  O   UNL     1     163.926 172.857 169.769  0.00  0.00    +0.000 OA
ATOM     12  C   UNL     1     162.847 171.346 167.576  0.00  0.00    +0.000 C 
ATOM     13  C   UNL     1     163.086 170.732 168.956  0.00  0.00    +0.000 C 
ATOM     14  C   UNL     1     163.716 172.586 167.364  0.00  0.00    +0.000 C 
ATOM     15  C   UNL     1     163.004 171.802 170.048  0.00  0.00    +0.000 C 
ATOM     16  C   UNL     1     163.623 173.541 168.555  0.00  0.00    +0.000 C 
BRANCH  12   3
ATOM      3  O   UNL     1     163.173 170.362 166.593  0.00  0.00    +0.000 OA
ATOM     33  H   UNL     1     162.741 169.532 166.858  0.00  0.00    +0.000 HD
ENDBRANCH  12   3
BRANCH  13   4
ATOM      4  O   UNL     1     162.104 169.730 169.204  0.00  0.00    +0.000 OA
ATOM     34  H   UNL     1     162.341 169.275 170.030  0.00  0.00    +0.000 HD
ENDBRANCH  13   4
BRANCH  14   5
ATOM      5  O   UNL     1     163.272 173.280 166.199  0.00  0.00    +0.000 OA
ATOM     35  H   UNL     1     162.744 174.044 166.484  0.00  0.00    +0.000 HD
ENDBRANCH  14   5
BRANCH  15  17
ATOM     17  C   UNL     1     163.355 171.237 171.421  0.00  0.00    +0.000 C 
BRANCH  17   6
ATOM      6  O   UNL     1     162.224 170.557 171.932  0.00  0.00    +0.000 OA
ATOM     36  H   UNL     1     161.482 170.721 171.325  0.00  0.00    +0.000 HD
ENDBRANCH  17   6
ENDBRANCH  15  17
ENDBRANCH   2  16
ENDBRANCH  18   2
TORSDOF 11
ENDMDL
MODEL 6
REMARK VINA RESULT:      -8.5      1.546      2.171
REMARK  Name = 5320623
REMARK  11 active torsions:
REMARK  status: ('A' for Active; 'I' for Inactive)
REMARK    1  A    between atoms: O_2  and  C_16
REMARK    2  A    between atoms: O_2  and  C_18
REMARK    3  A    between atoms: O_3  and  C_12
REMARK    4  A    between atoms: O_4  and  C_13
REMARK    5  A    between atoms: O_5  and  C_14
REMARK    6  A    between atoms: O_6  and  C_17
REMARK    7  A    between atoms: O_8  and  C_20
REMARK    8  A    between atoms: O_9  and  C_23
REMARK    9  A    between atoms: O_11  and  C_32
REMARK   10  A    between atoms: C_15  and  C_17
REMARK   11  A    between atoms: C_25  and  C_27
REMARK                            x       y       z     vdW  Elec       q    Type
REMARK                         _______ _______ _______ _____ _____    ______ ____
ROOT
ATOM      7  O   UNL     1     169.756 172.998 168.564  0.00  0.00    +0.000 OA
ATOM     10  O   UNL     1     171.058 175.720 171.303  0.00  0.00    +0.000 OA
ATOM     18  C   UNL     1     166.707 173.320 170.534  0.00  0.00    +0.000 A 
ATOM     19  C   UNL     1     167.615 172.912 169.557  0.00  0.00    +0.000 A 
ATOM     20  C   UNL     1     167.089 174.251 171.501  0.00  0.00    +0.000 A 
ATOM     21  C   UNL     1     168.907 173.437 169.549  0.00  0.00    +0.000 A 
ATOM     22  C   UNL     1     169.288 174.367 170.516  0.00  0.00    +0.000 A 
ATOM     23  C   UNL     1     168.381 174.778 171.495  0.00  0.00    +0.000 A 
ATOM     24  C   UNL     1     170.656 174.904 170.484  0.00  0.00    +0.000 A 
ATOM     25  C   UNL     1     171.044 173.509 168.527  0.00  0.00    +0.000 A 
ATOM     26  C   UNL     1     171.529 174.402 169.404  0.00  0.00    +0.000 A 
ENDROOT
BRANCH  25  27
ATOM     27  C   UNL     1     171.874 172.965 167.432  0.00  0.00    +0.000 A 
ATOM     28  C   UNL     1     172.846 172.000 167.702  0.00  0.00    +0.000 A 
ATOM     29  C   UNL     1     171.690 173.416 166.123  0.00  0.00    +0.000 A 
ATOM     30  C   UNL     1     173.630 171.487 166.668  0.00  0.00    +0.000 A 
ATOM     31  C   UNL     1     172.474 172.903 165.089  0.00  0.00    +0.000 A 
ATOM     32  C   UNL     1     173.444 171.939 165.362  0.00  0.00    +0.000 A 
BRANCH  32  11
ATOM     11  O   UNL     1     174.209 171.439 164.353  0.00  0.00    +0.000 OA
ATOM     39  H   UNL     1     175.146 171.550 164.584  0.00  0.00    +0.000 HD
ENDBRANCH  32  11
ENDBRANCH  25  27
BRANCH  20   8
ATOM      8  O   UNL     1     166.194 174.644 172.453  0.00  0.00    +0.000 OA
ATOM     37  H   UNL     1     165.419 174.057 172.406  0.00  0.00    +0.000 HD
ENDBRANCH  20   8
BRANCH  23   9
ATOM      9  O   UNL     1     168.716 175.685 172.455  0.00  0.00    +0.000 OA
ATOM     38  H   UNL     1     169.583 175.478 172.838  0.00  0.00    +0.000 HD
ENDBRANCH  23   9
BRANCH  18   2
ATOM      2  O   UNL     1     165.445 172.800 170.532  0.00  0.00    +0.000 OA
BRANCH   2  16
ATOM      1  O   UNL     1     164.633 173.697 168.536  0.00  0.00    +0.000 OA
ATOM     12  C   UNL     1     162.834 171.486 168.178  0.00  0.00    +0.000 C 
ATOM     13  C   UNL     1     162.726 172.772 167.358  0.00  0.00    +0.000 C 
ATOM     14  C   UNL     1     163.580 171.726 169.490  0.00  0.00    +0.000 C 
ATOM     15  C   UNL     1     164.091 173.455 167.237  0.00  0.00    +0.000 C 
ATOM     16  C   UNL     1     164.883 172.492 169.257  0.00  0.00    +0.000 C 
BRANCH  12   3
ATOM      3  O   UNL     1     161.510 171.030 168.459  0.00  0.00    +0.000 OA
ATOM     33  H   UNL     1     160.892 171.689 168.099  0.00  0.00    +0.000 HD
ENDBRANCH  12   3
BRANCH  13   4
ATOM      4  O   UNL     1     162.236 172.463 166.057  0.00  0.00    +0.000 OA
ATOM     34  H   UNL     1     161.438 172.997 165.901  0.00  0.00    +0.000 HD
ENDBRANCH  13   4
BRANCH  14   5
ATOM      5  O   UNL     1     163.900 170.471 170.089  0.00  0.00    +0.000 OA
ATOM     35  H   UNL     1     163.999 170.608 171.046  0.00  0.00    +0.000 HD
ENDBRANCH  14   5
BRANCH  15  17
ATOM     17  C   UNL     1     163.989 174.800 166.525  0.00  0.00    +0.000 C 
BRANCH  17   6
ATOM      6  O   UNL     1     162.626 175.180 166.468  0.00  0.00    +0.000 OA
ATOM     36  H   UNL     1     162.192 174.837 167.268  0.00  0.00    +0.000 HD
ENDBRANCH  17   6
ENDBRANCH  15  17
ENDBRANCH   2  16
ENDBRANCH  18   2
TORSDOF 11
ENDMDL
MODEL 7
REMARK VINA RESULT:      -8.3      1.681      8.940
REMARK  Name = 5320623
REMARK  11 active torsions:
REMARK  status: ('A' for Active; 'I' for Inactive)
REMARK    1  A    between atoms: O_2  and  C_16
REMARK    2  A    between atoms: O_2  and  C_18
REMARK    3  A    between atoms: O_3  and  C_12
REMARK    4  A    between atoms: O_4  and  C_13
REMARK    5  A    between atoms: O_5  and  C_14
REMARK    6  A    between atoms: O_6  and  C_17
REMARK    7  A    between atoms: O_8  and  C_20
REMARK    8  A    between atoms: O_9  and  C_23
REMARK    9  A    between atoms: O_11  and  C_32
REMARK   10  A    between atoms: C_15  and  C_17
REMARK   11  A    between atoms: C_25  and  C_27
REMARK                            x       y       z     vdW  Elec       q    Type
REMARK                         _______ _______ _______ _____ _____    ______ ____
ROOT
ATOM      7  O   UNL     1     165.916 174.035 169.165  0.00  0.00    +0.000 OA
ATOM     10  O   UNL     1     166.366 172.339 172.842  0.00  0.00    +0.000 OA
ATOM     18  C   UNL     1     169.552 174.135 169.390  0.00  0.00    +0.000 A 
ATOM     19  C   UNL     1     168.250 174.286 168.912  0.00  0.00    +0.000 A 
ATOM     20  C   UNL     1     169.775 173.560 170.642  0.00  0.00    +0.000 A 
ATOM     21  C   UNL     1     167.172 173.861 169.688  0.00  0.00    +0.000 A 
ATOM     22  C   UNL     1     167.397 173.286 170.938  0.00  0.00    +0.000 A 
ATOM     23  C   UNL     1     168.699 173.134 171.421  0.00  0.00    +0.000 A 
ATOM     24  C   UNL     1     166.242 172.848 171.736  0.00  0.00    +0.000 A 
ATOM     25  C   UNL     1     164.825 173.614 169.910  0.00  0.00    +0.000 A 
ATOM     26  C   UNL     1     164.913 173.055 171.128  0.00  0.00    +0.000 A 
ENDROOT
BRANCH  25  27
ATOM     27  C   UNL     1     163.523 173.855 169.257  0.00  0.00    +0.000 A 
ATOM     28  C   UNL     1     163.344 173.535 167.910  0.00  0.00    +0.000 A 
ATOM     29  C   UNL     1     162.465 174.407 169.984  0.00  0.00    +0.000 A 
ATOM     30  C   UNL     1     162.113 173.763 167.293  0.00  0.00    +0.000 A 
ATOM     31  C   UNL     1     161.235 174.635 169.368  0.00  0.00    +0.000 A 
ATOM     32  C   UNL     1     161.059 174.314 168.022  0.00  0.00    +0.000 A 
BRANCH  32  11
ATOM     11  O   UNL     1     159.858 174.536 167.420  0.00  0.00    +0.000 OA
ATOM     39  H   UNL     1     159.155 174.154 167.970  0.00  0.00    +0.000 HD
ENDBRANCH  32  11
ENDBRANCH  25  27
BRANCH  20   8
ATOM      8  O   UNL     1     171.052 173.417 171.103  0.00  0.00    +0.000 OA
ATOM     37  H   UNL     1     171.608 174.094 170.680  0.00  0.00    +0.000 HD
ENDBRANCH  20   8
BRANCH  23   9
ATOM      9  O   UNL     1     168.958 172.576 172.637  0.00  0.00    +0.000 OA
ATOM     38  H   UNL     1     168.133 172.376 173.107  0.00  0.00    +0.000 HD
ENDBRANCH  23   9
BRANCH  18   2
ATOM      2  O   UNL     1     170.599 174.554 168.622  0.00  0.00    +0.000 OA
BRANCH   2  16
ATOM      1  O   UNL     1     172.059 172.824 168.052  0.00  0.00    +0.000 OA
ATOM     12  C   UNL     1     172.121 173.669 165.307  0.00  0.00    +0.000 C 
ATOM     13  C   UNL     1     173.117 172.659 165.878  0.00  0.00    +0.000 C 
ATOM     14  C   UNL     1     171.513 174.532 166.414  0.00  0.00    +0.000 C 
ATOM     15  C   UNL     1     172.507 171.901 167.059  0.00  0.00    +0.000 C 
ATOM     16  C   UNL     1     171.017 173.675 167.579  0.00  0.00    +0.000 C 
BRANCH  12   3
ATOM      3  O   UNL     1     172.819 174.503 164.381  0.00  0.00    +0.000 OA
ATOM     33  H   UNL     1     173.758 174.496 164.634  0.00  0.00    +0.000 HD
ENDBRANCH  12   3
BRANCH  13   4
ATOM      4  O   UNL     1     173.483 171.731 164.860  0.00  0.00    +0.000 OA
ATOM     34  H   UNL     1     172.677 171.272 164.569  0.00  0.00    +0.000 HD
ENDBRANCH  13   4
BRANCH  14   5
ATOM      5  O   UNL     1     170.403 175.260 165.890  0.00  0.00    +0.000 OA
ATOM     35  H   UNL     1     169.728 175.325 166.585  0.00  0.00    +0.000 HD
ENDBRANCH  14   5
BRANCH  15  17
ATOM     17  C   UNL     1     173.520 170.972 167.719  0.00  0.00    +0.000 C 
BRANCH  17   6
ATOM      6  O   UNL     1     174.821 171.374 167.333  0.00  0.00    +0.000 OA
ATOM     36  H   UNL     1     175.250 171.769 168.112  0.00  0.00    +0.000 HD
ENDBRANCH  17   6
ENDBRANCH  15  17
ENDBRANCH   2  16
ENDBRANCH  18   2
TORSDOF 11
ENDMDL
MODEL 8
REMARK VINA RESULT:      -8.1      1.903      8.487
REMARK  Name = 5320623
REMARK  11 active torsions:
REMARK  status: ('A' for Active; 'I' for Inactive)
REMARK    1  A    between atoms: O_2  and  C_16
REMARK    2  A    between atoms: O_2  and  C_18
REMARK    3  A    between atoms: O_3  and  C_12
REMARK    4  A    between atoms: O_4  and  C_13
REMARK    5  A    between atoms: O_5  and  C_14
REMARK    6  A    between atoms: O_6  and  C_17
REMARK    7  A    between atoms: O_8  and  C_20
REMARK    8  A    between atoms: O_9  and  C_23
REMARK    9  A    between atoms: O_11  and  C_32
REMARK   10  A    between atoms: C_15  and  C_17
REMARK   11  A    between atoms: C_25  and  C_27
REMARK                            x       y       z     vdW  Elec       q    Type
REMARK                         _______ _______ _______ _____ _____    ______ ____
ROOT
ATOM      7  O   UNL     1     166.796 173.919 168.878  0.00  0.00    +0.000 OA
ATOM     10  O   UNL     1     167.104 172.668 172.743  0.00  0.00    +0.000 OA
ATOM     18  C   UNL     1     170.341 174.580 169.403  0.00  0.00    +0.000 A 
ATOM     19  C   UNL     1     169.086 174.490 168.801  0.00  0.00    +0.000 A 
ATOM     20  C   UNL     1     170.514 174.167 170.725  0.00  0.00    +0.000 A 
ATOM     21  C   UNL     1     168.005 173.984 169.523  0.00  0.00    +0.000 A 
ATOM     22  C   UNL     1     168.180 173.572 170.843  0.00  0.00    +0.000 A 
ATOM     23  C   UNL     1     169.435 173.662 171.450  0.00  0.00    +0.000 A 
ATOM     24  C   UNL     1     167.023 173.045 171.581  0.00  0.00    +0.000 A 
ATOM     25  C   UNL     1     165.705 173.414 169.568  0.00  0.00    +0.000 A 
ATOM     26  C   UNL     1     165.746 172.993 170.842  0.00  0.00    +0.000 A 
ENDROOT
BRANCH  25  27
ATOM     27  C   UNL     1     164.454 173.395 168.782  0.00  0.00    +0.000 A 
ATOM     28  C   UNL     1     163.322 174.068 169.248  0.00  0.00    +0.000 A 
ATOM     29  C   UNL     1     164.397 172.701 167.571  0.00  0.00    +0.000 A 
ATOM     30  C   UNL     1     162.142 174.049 168.506  0.00  0.00    +0.000 A 
ATOM     31  C   UNL     1     163.217 172.682 166.829  0.00  0.00    +0.000 A 
ATOM     32  C   UNL     1     162.088 173.355 167.297  0.00  0.00    +0.000 A 
BRANCH  32  11
ATOM     11  O   UNL     1     160.936 173.337 166.573  0.00  0.00    +0.000 OA
ATOM     39  H   UNL     1     160.205 173.643 167.136  0.00  0.00    +0.000 HD
ENDBRANCH  32  11
ENDBRANCH  25  27
BRANCH  20   8
ATOM      8  O   UNL     1     171.746 174.260 171.307  0.00  0.00    +0.000 OA
ATOM     37  H   UNL     1     172.129 173.367 171.358  0.00  0.00    +0.000 HD
ENDBRANCH  20   8
BRANCH  23   9
ATOM      9  O   UNL     1     169.645 173.267 172.737  0.00  0.00    +0.000 OA
ATOM     38  H   UNL     1     169.102 173.788 173.350  0.00  0.00    +0.000 HD
ENDBRANCH  23   9
BRANCH  18   2
ATOM      2  O   UNL     1     171.392 175.075 168.688  0.00  0.00    +0.000 OA
BRANCH   2  16
ATOM      1  O   UNL     1     171.043 173.523 166.980  0.00  0.00    +0.000 OA
ATOM     12  C   UNL     1     173.403 172.059 167.716  0.00  0.00    +0.000 C 
ATOM     13  C   UNL     1     172.352 171.494 166.760  0.00  0.00    +0.000 C 
ATOM     14  C   UNL     1     172.811 173.154 168.604  0.00  0.00    +0.000 C 
ATOM     15  C   UNL     1     171.617 172.622 166.032  0.00  0.00    +0.000 C 
ATOM     16  C   UNL     1     172.027 174.175 167.780  0.00  0.00    +0.000 C 
BRANCH  12   3
ATOM      3  O   UNL     1     173.878 170.987 168.533  0.00  0.00    +0.000 OA
ATOM     33  H   UNL     1     174.252 171.381 169.340  0.00  0.00    +0.000 HD
ENDBRANCH  12   3
BRANCH  13   4
ATOM      4  O   UNL     1     172.988 170.652 165.803  0.00  0.00    +0.000 OA
ATOM     34  H   UNL     1     173.630 171.191 165.308  0.00  0.00    +0.000 HD
ENDBRANCH  13   4
BRANCH  14   5
ATOM      5  O   UNL     1     173.867 173.838 169.277  0.00  0.00    +0.000 OA
ATOM     35  H   UNL     1     174.706 173.595 168.851  0.00  0.00    +0.000 HD
ENDBRANCH  14   5
BRANCH  15  17
ATOM     17  C   UNL     1     170.484 172.090 165.160  0.00  0.00    +0.000 C 
BRANCH  17   6
ATOM      6  O   UNL     1     170.475 170.677 165.244  0.00  0.00    +0.000 OA
ATOM     36  H   UNL     1     171.231 170.410 165.796  0.00  0.00    +0.000 HD
ENDBRANCH  17   6
ENDBRANCH  15  17
ENDBRANCH   2  16
ENDBRANCH  18   2
TORSDOF 11
ENDMDL
MODEL 9
REMARK VINA RESULT:      -8.1      4.690      8.873
REMARK  Name = 5320623
REMARK  11 active torsions:
REMARK  status: ('A' for Active; 'I' for Inactive)
REMARK    1  A    between atoms: O_2  and  C_16
REMARK    2  A    between atoms: O_2  and  C_18
REMARK    3  A    between atoms: O_3  and  C_12
REMARK    4  A    between atoms: O_4  and  C_13
REMARK    5  A    between atoms: O_5  and  C_14
REMARK    6  A    between atoms: O_6  and  C_17
REMARK    7  A    between atoms: O_8  and  C_20
REMARK    8  A    between atoms: O_9  and  C_23
REMARK    9  A    between atoms: O_11  and  C_32
REMARK   10  A    between atoms: C_15  and  C_17
REMARK   11  A    between atoms: C_25  and  C_27
REMARK                            x       y       z     vdW  Elec       q    Type
REMARK                         _______ _______ _______ _____ _____    ______ ____
ROOT
ATOM      7  O   UNL     1     170.130 178.099 173.026  0.00  0.00    +0.000 OA
ATOM     10  O   UNL     1     166.936 176.266 174.770  0.00  0.00    +0.000 OA
ATOM     18  C   UNL     1     170.608 174.741 171.692  0.00  0.00    +0.000 A 
ATOM     19  C   UNL     1     170.792 176.098 171.961  0.00  0.00    +0.000 A 
ATOM     20  C   UNL     1     169.532 174.055 172.256  0.00  0.00    +0.000 A 
ATOM     21  C   UNL     1     169.898 176.766 172.798  0.00  0.00    +0.000 A 
ATOM     22  C   UNL     1     168.824 176.078 173.361  0.00  0.00    +0.000 A 
ATOM     23  C   UNL     1     168.637 174.720 173.094  0.00  0.00    +0.000 A 
ATOM     24  C   UNL     1     167.897 176.807 174.240  0.00  0.00    +0.000 A 
ATOM     25  C   UNL     1     169.252 178.791 173.847  0.00  0.00    +0.000 A 
ATOM     26  C   UNL     1     168.188 178.239 174.452  0.00  0.00    +0.000 A 
ENDROOT
BRANCH  25  27
ATOM     27  C   UNL     1     169.599 180.215 174.030  0.00  0.00    +0.000 A 
ATOM     28  C   UNL     1     168.720 181.212 173.599  0.00  0.00    +0.000 A 
ATOM     29  C   UNL     1     170.808 180.571 174.632  0.00  0.00    +0.000 A 
ATOM     30  C   UNL     1     169.048 182.556 173.772  0.00  0.00    +0.000 A 
ATOM     31  C   UNL     1     171.136 181.915 174.804  0.00  0.00    +0.000 A 
ATOM     32  C   UNL     1     170.257 182.908 174.373  0.00  0.00    +0.000 A 
BRANCH  32  11
ATOM     11  O   UNL     1     170.576 184.221 174.542  0.00  0.00    +0.000 OA
ATOM     39  H   UNL     1     171.504 184.285 174.825  0.00  0.00    +0.000 HD
ENDBRANCH  32  11
ENDBRANCH  25  27
BRANCH  20   8
ATOM      8  O   UNL     1     169.361 172.727 171.988  0.00  0.00    +0.000 OA
ATOM     37  H   UNL     1     168.664 172.639 171.314  0.00  0.00    +0.000 HD
ENDBRANCH  20   8
BRANCH  23   9
ATOM      9  O   UNL     1     167.598 174.015 173.625  0.00  0.00    +0.000 OA
ATOM     38  H   UNL     1     166.758 174.285 173.223  0.00  0.00    +0.000 HD
ENDBRANCH  23   9
BRANCH  18   2
ATOM      2  O   UNL     1     171.489 174.097 170.872  0.00  0.00    +0.000 OA
BRANCH   2  16
ATOM      1  O   UNL     1     169.889 174.090 169.173  0.00  0.00    +0.000 OA
ATOM     12  C   UNL     1     171.810 173.149 167.254  0.00  0.00    +0.000 C 
ATOM     13  C   UNL     1     170.306 173.148 166.978  0.00  0.00    +0.000 C 
ATOM     14  C   UNL     1     172.096 173.164 168.756  0.00  0.00    +0.000 C 
ATOM     15  C   UNL     1     169.605 174.246 167.782  0.00  0.00    +0.000 C 
ATOM     16  C   UNL     1     171.276 174.241 169.468  0.00  0.00    +0.000 C 
BRANCH  12   3
ATOM      3  O   UNL     1     172.366 171.967 166.675  0.00  0.00    +0.000 OA
ATOM     33  H   UNL     1     171.660 171.299 166.644  0.00  0.00    +0.000 HD
ENDBRANCH  12   3
BRANCH  13   4
ATOM      4  O   UNL     1     170.082 173.366 165.588  0.00  0.00    +0.000 OA
ATOM     34  H   UNL     1     169.341 172.800 165.311  0.00  0.00    +0.000 HD
ENDBRANCH  13   4
BRANCH  14   5
ATOM      5  O   UNL     1     173.479 173.441 168.971  0.00  0.00    +0.000 OA
ATOM     35  H   UNL     1     173.802 172.850 169.671  0.00  0.00    +0.000 HD
ENDBRANCH  14   5
BRANCH  15  17
ATOM     17  C   UNL     1     168.090 174.190 167.614  0.00  0.00    +0.000 C 
BRANCH  17   6
ATOM      6  O   UNL     1     167.678 172.837 167.672  0.00  0.00    +0.000 OA
ATOM     36  H   UNL     1     168.304 172.364 168.246  0.00  0.00    +0.000 HD
ENDBRANCH  17   6
ENDBRANCH  15  17
ENDBRANCH   2  16
ENDBRANCH  18   2
TORSDOF 11
ENDMDL
MODEL 10
REMARK VINA RESULT:      -7.7      2.923      6.157
REMARK  Name = 5320623
REMARK  11 active torsions:
REMARK  status: ('A' for Active; 'I' for Inactive)
REMARK    1  A    between atoms: O_2  and  C_16
REMARK    2  A    between atoms: O_2  and  C_18
REMARK    3  A    between atoms: O_3  and  C_12
REMARK    4  A    between atoms: O_4  and  C_13
REMARK    5  A    between atoms: O_5  and  C_14
REMARK    6  A    between atoms: O_6  and  C_17
REMARK    7  A    between atoms: O_8  and  C_20
REMARK    8  A    between atoms: O_9  and  C_23
REMARK    9  A    between atoms: O_11  and  C_32
REMARK   10  A    between atoms: C_15  and  C_17
REMARK   11  A    between atoms: C_25  and  C_27
REMARK                            x       y       z     vdW  Elec       q    Type
REMARK                         _______ _______ _______ _____ _____    ______ ____
ROOT
ATOM      7  O   UNL     1     167.790 175.388 172.613  0.00  0.00    +0.000 OA
ATOM     10  O   UNL     1     171.098 174.930 170.279  0.00  0.00    +0.000 OA
ATOM     18  C   UNL     1     166.361 173.264 170.019  0.00  0.00    +0.000 A 
ATOM     19  C   UNL     1     166.492 174.046 171.167  0.00  0.00    +0.000 A 
ATOM     20  C   UNL     1     167.457 173.066 169.178  0.00  0.00    +0.000 A 
ATOM     21  C   UNL     1     167.722 174.630 171.471  0.00  0.00    +0.000 A 
ATOM     22  C   UNL     1     168.815 174.431 170.629  0.00  0.00    +0.000 A 
ATOM     23  C   UNL     1     168.688 173.649 169.479  0.00  0.00    +0.000 A 
ATOM     24  C   UNL     1     170.099 175.060 170.974  0.00  0.00    +0.000 A 
ATOM     25  C   UNL     1     169.001 175.975 172.945  0.00  0.00    +0.000 A 
ATOM     26  C   UNL     1     170.121 175.863 172.213  0.00  0.00    +0.000 A 
ENDROOT
BRANCH  25  27
ATOM     27  C   UNL     1     168.961 176.773 174.187  0.00  0.00    +0.000 A 
ATOM     28  C   UNL     1     168.263 176.302 175.302  0.00  0.00    +0.000 A 
ATOM     29  C   UNL     1     169.619 178.004 174.252  0.00  0.00    +0.000 A 
ATOM     30  C   UNL     1     168.225 177.056 176.474  0.00  0.00    +0.000 A 
ATOM     31  C   UNL     1     169.581 178.758 175.425  0.00  0.00    +0.000 A 
ATOM     32  C   UNL     1     168.883 178.284 176.535  0.00  0.00    +0.000 A 
BRANCH  32  11
ATOM     11  O   UNL     1     168.846 179.020 177.680  0.00  0.00    +0.000 OA
ATOM     39  H   UNL     1     168.759 179.960 177.448  0.00  0.00    +0.000 HD
ENDBRANCH  32  11
ENDBRANCH  25  27
BRANCH  20   8
ATOM      8  O   UNL     1     167.320 172.300 168.056  0.00  0.00    +0.000 OA
ATOM     37  H   UNL     1     166.718 171.563 168.261  0.00  0.00    +0.000 HD
ENDBRANCH  20   8
BRANCH  23   9
ATOM      9  O   UNL     1     169.734 173.432 168.634  0.00  0.00    +0.000 OA
ATOM     38  H   UNL     1     170.499 173.080 169.116  0.00  0.00    +0.000 HD
ENDBRANCH  23   9
BRANCH  18   2
ATOM      2  O   UNL     1     165.154 172.696 169.731  0.00  0.00    +0.000 OA
BRANCH   2  16
ATOM      1  O   UNL     1     163.092 173.747 170.033  0.00  0.00    +0.000 OA
ATOM     12  C   UNL     1     162.530 173.639 167.218  0.00  0.00    +0.000 C 
ATOM     13  C   UNL     1     161.459 173.976 168.256  0.00  0.00    +0.000 C 
ATOM     14  C   UNL     1     163.690 172.868 167.849  0.00  0.00    +0.000 C 
ATOM     15  C   UNL     1     162.087 174.610 169.499  0.00  0.00    +0.000 C 
ATOM     16  C   UNL     1     164.177 173.545 169.130  0.00  0.00    +0.000 C 
BRANCH  12   3
ATOM      3  O   UNL     1     161.924 172.841 166.201  0.00  0.00    +0.000 OA
ATOM     33  H   UNL     1     161.059 172.550 166.536  0.00  0.00    +0.000 HD
ENDBRANCH  12   3
BRANCH  13   4
ATOM      4  O   UNL     1     160.520 174.883 167.687  0.00  0.00    +0.000 OA
ATOM     34  H   UNL     1     159.760 174.368 167.366  0.00  0.00    +0.000 HD
ENDBRANCH  13   4
BRANCH  14   5
ATOM      5  O   UNL     1     164.779 172.815 166.929  0.00  0.00    +0.000 OA
ATOM     35  H   UNL     1     164.665 172.030 166.369  0.00  0.00    +0.000 HD
ENDBRANCH  14   5
BRANCH  15  17
ATOM     17  C   UNL     1     161.055 174.847 170.596  0.00  0.00    +0.000 C 
BRANCH  17   6
ATOM      6  O   UNL     1     160.007 173.908 170.441  0.00  0.00    +0.000 OA
ATOM     36  H   UNL     1     159.738 173.618 171.330  0.00  0.00    +0.000 HD
ENDBRANCH  17   6
ENDBRANCH  15  17
ENDBRANCH   2  16
ENDBRANCH  18   2
TORSDOF 11
ENDMDL
