REMARK  Name = 370
REMARK  5 active torsions:
REMARK  status: ('A' for Active; 'I' for Inactive)
REMARK    1  A    between atoms: O_1  and  C_7
REMARK    2  A    between atoms: O_2  and  C_8
REMARK    3  A    between atoms: O_3  and  C_9
REMARK    4  A    between atoms: O_4  and  C_12
REMARK    5  A    between atoms: C_6  and  C_12
REMARK                            x       y       z     vdW  Elec       q    Type
REMARK                         _______ _______ _______ _____ _____    ______ ____
ROOT
ATOM      1  C   UNL     1       1.753  -0.014   0.000  0.00  0.00    +0.201 A 
ATOM      2  C   UNL     1       1.031  -1.208   0.001  0.00  0.00    +0.163 A 
ATOM      3  C   UNL     1      -0.363  -1.180   0.001  0.00  0.00    +0.064 A 
ATOM      4  C   UNL     1      -1.037   0.042   0.001  0.00  0.00    +0.066 A 
ATOM      5  C   UNL     1      -0.315   1.235   0.000  0.00  0.00    +0.064 A 
ATOM      6  C   UNL     1       1.079   1.208   0.000  0.00  0.00    +0.163 A 
ENDROOT
BRANCH   1   7
ATOM      7  O   UNL     1       3.116  -0.041  -0.001  0.00  0.00    -0.501 OA
ATOM      8  H   UNL     1       3.441   0.876  -0.001  0.00  0.00    +0.292 HD
ENDBRANCH   1   7
BRANCH   4   9
ATOM      9  C   UNL     1      -2.491   0.071   0.000  0.00  0.00    +0.337 C 
ATOM     10  O   UNL     1      -3.186   1.092  -0.000  0.00  0.00    -0.245 OA
BRANCH   9  11
ATOM     11  O   UNL     1      -3.036  -1.176  -0.001  0.00  0.00    -0.477 OA
ATOM     12  H   UNL     1      -4.017  -1.146  -0.002  0.00  0.00    +0.295 HD
ENDBRANCH   9  11
ENDBRANCH   4   9
BRANCH   2  13
ATOM     13  O   UNL     1       1.677  -2.408  -0.001  0.00  0.00    -0.503 OA
ATOM     14  H   UNL     1       2.635  -2.239  -0.001  0.00  0.00    +0.292 HD
ENDBRANCH   2  13
BRANCH   6  15
ATOM     15  O   UNL     1       1.773   2.380  -0.000  0.00  0.00    -0.503 OA
ATOM     16  H   UNL     1       1.143   3.122  -0.001  0.00  0.00    +0.292 HD
ENDBRANCH   6  15
TORSDOF 5
