REMARK  Name = 
REMARK                            x       y       z     vdW  Elec       q    Type
REMARK                         _______ _______ _______ _____ _____    ______ ____
ROOT
ATOM      1  O   LIG    1        3.495  -0.265  -1.420  0.00  0.00    -0.320 OA
ATOM      2  C   LIG    1        4.758  -0.925  -1.637  0.00  0.00    +0.313 C 
ATOM      3  O   LIG    1        4.579  -1.772  -2.765  0.00  0.00    -0.186 OA
ATOM      4  C   LIG    1        5.899   0.103  -1.887  0.00  0.00    +0.271 C 
ATOM     17  C   LIG    1        5.944   1.114  -0.702  0.00  0.00    +0.256 C 
ATOM     30  C   LIG    1        4.542   1.741  -0.440  0.00  0.00    +0.243 C 
ATOM     43  C   LIG    1        3.465   0.620  -0.278  0.00  0.00    +0.205 C 
ENDROOT
BRANCH   4   5
ATOM      5  O   LIG    1        7.185  -0.535  -2.006  0.00  0.00    -0.440 OA
BRANCH   5   6
ATOM      6  C   LIG    1        7.583  -1.429  -2.961  0.00  0.00    +0.342 C 
ATOM      7  O   LIG    1        7.841  -2.577  -2.533  0.00  0.00    -0.245 OA
BRANCH   6   8
ATOM      8  C   LIG    1        7.809  -1.094  -4.327  0.00  0.00    +0.082 A 
ATOM      9  C   LIG    1        8.004  -2.103  -5.304  0.00  0.00    +0.052 A 
ATOM     10  C   LIG    1        8.250  -1.780  -6.653  0.00  0.00    +0.238 A 
ATOM     11  O   LIG    1        8.415  -2.785  -7.552  0.00  0.00    -0.283 OA
ATOM     12  C   LIG    1        8.325  -0.431  -7.052  0.00  0.00    +0.273 A 
ATOM     13  O   LIG    1        8.607  -0.137  -8.349  0.00  0.00    -0.280 OA
ATOM     14  C   LIG    1        8.120   0.589  -6.099  0.00  0.00    +0.238 A 
ATOM     15  O   LIG    1        8.173   1.893  -6.470  0.00  0.00    -0.283 OA
ATOM     16  C   LIG    1        7.865   0.253  -4.754  0.00  0.00    +0.052 A 
ENDBRANCH   6   8
ENDBRANCH   5   6
ENDBRANCH   4   5
BRANCH  17  18
ATOM     18  O   LIG    1        6.860   2.194  -0.957  0.00  0.00    -0.441 OA
BRANCH  18  19
ATOM     19  C   LIG    1        8.220   2.118  -1.025  0.00  0.00    +0.342 C 
ATOM     20  O   LIG    1        8.717   2.452  -2.125  0.00  0.00    -0.245 OA
BRANCH  19  21
ATOM     21  C   LIG    1        9.054   1.819   0.087  0.00  0.00    +0.082 A 
ATOM     22  C   LIG    1       10.427   1.407  -0.176  0.00  0.00    +0.052 A 
ATOM     23  C   LIG    1       11.286   1.195   0.923  0.00  0.00    +0.238 A 
ATOM     24  O   LIG    1       12.571   0.830   0.688  0.00  0.00    -0.283 OA
ATOM     25  C   LIG    1       10.854   1.360   2.259  0.00  0.00    +0.273 A 
ATOM     26  O   LIG    1       11.732   1.156   3.275  0.00  0.00    -0.280 OA
ATOM     27  C   LIG    1        9.469   1.736   2.490  0.00  0.00    +0.238 A 
ATOM     28  O   LIG    1        9.153   1.841   3.848  0.00  0.00    -0.283 OA
ATOM     29  C   LIG    1        8.494   1.984   1.416  0.00  0.00    +0.052 A 
ENDBRANCH  19  21
ENDBRANCH  18  19
ENDBRANCH  17  18
BRANCH  30  31
ATOM     31  O   LIG    1        4.600   2.534   0.761  0.00  0.00    -0.443 OA
BRANCH  31  32
ATOM     32  C   LIG    1        4.787   3.880   0.920  0.00  0.00    +0.341 C 
ATOM     33  O   LIG    1        5.401   4.190   1.966  0.00  0.00    -0.245 OA
BRANCH  32  34
ATOM     34  C   LIG    1        4.302   4.906   0.066  0.00  0.00    +0.082 A 
ATOM     35  C   LIG    1        5.044   6.097  -0.122  0.00  0.00    +0.052 A 
ATOM     36  C   LIG    1        4.541   7.144  -0.920  0.00  0.00    +0.238 A 
ATOM     37  O   LIG    1        5.266   8.278  -1.088  0.00  0.00    -0.283 OA
ATOM     38  C   LIG    1        3.285   7.011  -1.546  0.00  0.00    +0.273 A 
ATOM     39  O   LIG    1        2.784   8.023  -2.293  0.00  0.00    -0.280 OA
ATOM     40  C   LIG    1        2.545   5.825  -1.392  0.00  0.00    +0.238 A 
ATOM     41  O   LIG    1        1.346   5.690  -2.019  0.00  0.00    -0.283 OA
ATOM     42  C   LIG    1        3.052   4.790  -0.582  0.00  0.00    +0.052 A 
ENDBRANCH  32  34
ENDBRANCH  31  32
ENDBRANCH  30  31
BRANCH  43  44
ATOM     44  C   LIG    1        2.030   1.195  -0.153  0.00  0.00    +0.242 C 
BRANCH  44  45
ATOM     45  O   LIG    1        1.037   0.160  -0.042  0.00  0.00    -0.443 OA
BRANCH  45  46
ATOM     46  C   LIG    1       -0.321   0.348   0.052  0.00  0.00    +0.341 C 
ATOM     47  O   LIG    1       -0.766   1.522   0.084  0.00  0.00    -0.245 OA
BRANCH  46  48
ATOM     48  C   LIG    1       -1.213  -0.763   0.095  0.00  0.00    +0.082 A 
ATOM     49  C   LIG    1       -2.620  -0.585   0.078  0.00  0.00    +0.052 A 
ATOM     50  C   LIG    1       -3.499  -1.687   0.108  0.00  0.00    +0.238 A 
ATOM     51  O   LIG    1       -4.842  -1.490   0.096  0.00  0.00    -0.283 OA
ATOM     52  C   LIG    1       -2.982  -2.998   0.146  0.00  0.00    +0.273 A 
ATOM     53  O   LIG    1       -3.813  -4.074   0.173  0.00  0.00    -0.280 OA
ATOM     54  C   LIG    1       -1.585  -3.195   0.155  0.00  0.00    +0.238 A 
ATOM     55  O   LIG    1       -1.047  -4.442   0.172  0.00  0.00    -0.283 OA
ATOM     56  C   LIG    1       -0.715  -2.088   0.142  0.00  0.00    +0.052 A 
ENDBRANCH  46  48
ENDBRANCH  45  46
ENDBRANCH  44  45
ENDBRANCH  43  44
TORSDOF 13
