MODEL 1
REMARK VINA RESULT:      -6.8      0.000      0.000
REMARK  6 active torsions:
REMARK  status: ('A' for Active; 'I' for Inactive)
REMARK    1  A    between atoms: O_2  and  C_9 
REMARK    2  A    between atoms: O_4  and  C_14 
REMARK    3  A    between atoms: O_5  and  C_19 
REMARK    4  A    between atoms: O_6  and  C_20 
REMARK    5  A    between atoms: O_7  and  C_22 
REMARK    6  A    between atoms: C_8  and  C_10 
ROOT
HETATM    1  O   UNK     0     184.064 182.051 172.864  0.00  0.00    -0.337 OA
HETATM    2  O   UNK     0     179.992 182.454 173.174  0.00  0.00    -0.289 OA
HETATM    3  C   UNK     0     183.433 183.336 172.759  0.00  0.00     0.198 C 
HETATM    4  C   UNK     0     182.167 183.404 173.615  0.00  0.00     0.227 C 
HETATM    5  C   UNK     0     181.210 182.326 173.153  0.00  0.00     0.196 C 
HETATM    6  C   UNK     0     181.838 181.068 172.702  0.00  0.00     0.079 A 
HETATM    7  C   UNK     0     183.229 180.999 172.599  0.00  0.00     0.089 A 
HETATM    8  C   UNK     0     181.051 179.951 172.409  0.00  0.00     0.085 A 
HETATM    9  C   UNK     0     183.837 179.796 172.235  0.00  0.00     0.074 A 
HETATM   10  C   UNK     0     181.663 178.758 172.027  0.00  0.00     0.074 A 
HETATM   11  C   UNK     0     183.054 178.678 171.945  0.00  0.00     0.071 A 
ENDROOT
BRANCH   3  12
HETATM   12  C   UNK     0     184.454 184.375 173.182  0.00  0.00    -0.023 A 
HETATM   13  C   UNK     0     185.174 184.199 174.362  0.00  0.00     0.049 A 
HETATM   14  C   UNK     0     186.114 185.153 174.752  0.00  0.00     0.099 A 
HETATM   15  C   UNK     0     186.330 186.282 173.962  0.00  0.00     0.098 A 
HETATM   16  C   UNK     0     185.607 186.457 172.781  0.00  0.00     0.040 A 
HETATM   17  C   UNK     0     184.668 185.502 172.392  0.00  0.00     0.013 A 
BRANCH  14  18
HETATM   18  O   UNK     0     186.814 184.973 175.906  0.00  0.00    -0.358 OA
HETATM   19  H   UNK     0     187.563 185.594 175.911  0.00  0.00     0.217 HD
ENDBRANCH  14  18
BRANCH  15  20
HETATM   20  O   UNK     0     187.246 187.222 174.332  0.00  0.00    -0.358 OA
HETATM   21  H   UNK     0     188.103 186.787 174.479  0.00  0.00     0.217 HD
ENDBRANCH  15  20
ENDBRANCH   3  12
BRANCH   4  22
HETATM   22  O   UNK     0     181.530 184.659 173.448  0.00  0.00    -0.385 OA
HETATM   23  H   UNK     0     182.084 185.329 173.884  0.00  0.00     0.210 HD
ENDBRANCH   4  22
BRANCH   8  24
HETATM   24  O   UNK     0     179.691 179.966 172.489  0.00  0.00    -0.360 OA
HETATM   25  H   UNK     0     179.404 180.026 173.413  0.00  0.00     0.217 HD
ENDBRANCH   8  24
BRANCH  11  26
HETATM   26  O   UNK     0     183.648 177.509 171.580  0.00  0.00    -0.361 OA
HETATM   27  H   UNK     0     184.385 177.704 170.977  0.00  0.00     0.217 HD
ENDBRANCH  11  26
TORSDOF 6
ENDMDL
MODEL 2
REMARK VINA RESULT:      -6.7     11.894     13.685
REMARK  6 active torsions:
REMARK  status: ('A' for Active; 'I' for Inactive)
REMARK    1  A    between atoms: O_2  and  C_9 
REMARK    2  A    between atoms: O_4  and  C_14 
REMARK    3  A    between atoms: O_5  and  C_19 
REMARK    4  A    between atoms: O_6  and  C_20 
REMARK    5  A    between atoms: O_7  and  C_22 
REMARK    6  A    between atoms: C_8  and  C_10 
ROOT
HETATM    1  O   UNK     0     190.767 186.751 183.976  0.00  0.00    -0.337 OA
HETATM    2  O   UNK     0     191.221 185.965 179.973  0.00  0.00    -0.289 OA
HETATM    3  C   UNK     0     190.595 187.781 182.990  0.00  0.00     0.198 C 
HETATM    4  C   UNK     0     190.052 187.209 181.680  0.00  0.00     0.227 C 
HETATM    5  C   UNK     0     191.021 186.167 181.165  0.00  0.00     0.196 C 
HETATM    6  C   UNK     0     191.700 185.363 182.200  0.00  0.00     0.079 A 
HETATM    7  C   UNK     0     191.521 185.692 183.546  0.00  0.00     0.089 A 
HETATM    8  C   UNK     0     192.489 184.267 181.840  0.00  0.00     0.085 A 
HETATM    9  C   UNK     0     192.106 184.900 184.535  0.00  0.00     0.074 A 
HETATM   10  C   UNK     0     193.087 183.492 182.833  0.00  0.00     0.074 A 
HETATM   11  C   UNK     0     192.892 183.804 184.178  0.00  0.00     0.071 A 
ENDROOT
BRANCH   3  12
HETATM   12  C   UNK     0     189.660 188.818 183.582  0.00  0.00    -0.023 A 
HETATM   13  C   UNK     0     188.431 188.424 184.107  0.00  0.00     0.049 A 
HETATM   14  C   UNK     0     187.570 189.377 184.652  0.00  0.00     0.099 A 
HETATM   15  C   UNK     0     187.940 190.722 184.669  0.00  0.00     0.098 A 
HETATM   16  C   UNK     0     189.171 191.114 184.143  0.00  0.00     0.040 A 
HETATM   17  C   UNK     0     190.031 190.161 183.598  0.00  0.00     0.013 A 
BRANCH  14  18
HETATM   18  O   UNK     0     186.371 188.983 185.164  0.00  0.00    -0.358 OA
HETATM   19  H   UNK     0     186.121 189.604 185.870  0.00  0.00     0.217 HD
ENDBRANCH  14  18
BRANCH  15  20
HETATM   20  O   UNK     0     187.108 191.663 185.199  0.00  0.00    -0.358 OA
HETATM   21  H   UNK     0     187.105 192.444 184.620  0.00  0.00     0.217 HD
ENDBRANCH  15  20
ENDBRANCH   3  12
BRANCH   4  22
HETATM   22  O   UNK     0     189.947 188.233 180.705  0.00  0.00    -0.385 OA
HETATM   23  H   UNK     0     190.842 188.576 180.543  0.00  0.00     0.210 HD
ENDBRANCH   4  22
BRANCH   8  24
HETATM   24  O   UNK     0     192.700 183.906 180.543  0.00  0.00    -0.360 OA
HETATM   25  H   UNK     0     193.581 184.181 180.249  0.00  0.00     0.217 HD
ENDBRANCH   8  24
BRANCH  11  26
HETATM   26  O   UNK     0     193.471 183.039 185.144  0.00  0.00    -0.361 OA
HETATM   27  H   UNK     0     194.298 183.464 185.431  0.00  0.00     0.217 HD
ENDBRANCH  11  26
TORSDOF 6
ENDMDL
MODEL 3
REMARK VINA RESULT:      -6.6      1.734      3.070
REMARK  6 active torsions:
REMARK  status: ('A' for Active; 'I' for Inactive)
REMARK    1  A    between atoms: O_2  and  C_9 
REMARK    2  A    between atoms: O_4  and  C_14 
REMARK    3  A    between atoms: O_5  and  C_19 
REMARK    4  A    between atoms: O_6  and  C_20 
REMARK    5  A    between atoms: O_7  and  C_22 
REMARK    6  A    between atoms: C_8  and  C_10 
ROOT
HETATM    1  O   UNK     0     182.537 184.128 172.249  0.00  0.00    -0.337 OA
HETATM    2  O   UNK     0     182.619 180.158 173.288  0.00  0.00    -0.289 OA
HETATM    3  C   UNK     0     183.275 183.672 173.393  0.00  0.00     0.198 C 
HETATM    4  C   UNK     0     183.810 182.255 173.180  0.00  0.00     0.227 C 
HETATM    5  C   UNK     0     182.642 181.328 172.924  0.00  0.00     0.196 C 
HETATM    6  C   UNK     0     181.520 181.913 172.163  0.00  0.00     0.079 A 
HETATM    7  C   UNK     0     181.541 183.275 171.856  0.00  0.00     0.089 A 
HETATM    8  C   UNK     0     180.464 181.107 171.730  0.00  0.00     0.085 A 
HETATM    9  C   UNK     0     180.518 183.825 171.082  0.00  0.00     0.074 A 
HETATM   10  C   UNK     0     179.435 181.667 170.973  0.00  0.00     0.074 A 
HETATM   11  C   UNK     0     179.463 183.022 170.645  0.00  0.00     0.071 A 
ENDROOT
BRANCH   3  12
HETATM   12  C   UNK     0     184.396 184.667 173.630  0.00  0.00    -0.023 A 
HETATM   13  C   UNK     0     184.662 185.117 174.922  0.00  0.00     0.049 A 
HETATM   14  C   UNK     0     185.693 186.032 175.141  0.00  0.00     0.099 A 
HETATM   15  C   UNK     0     186.453 186.495 174.067  0.00  0.00     0.098 A 
HETATM   16  C   UNK     0     186.185 186.042 172.775  0.00  0.00     0.040 A 
HETATM   17  C   UNK     0     185.155 185.128 172.557  0.00  0.00     0.013 A 
BRANCH  14  18
HETATM   18  O   UNK     0     185.946 186.466 176.406  0.00  0.00    -0.358 OA
HETATM   19  H   UNK     0     186.600 187.185 176.358  0.00  0.00     0.217 HD
ENDBRANCH  14  18
BRANCH  15  20
HETATM   20  O   UNK     0     187.463 187.387 174.268  0.00  0.00    -0.358 OA
HETATM   21  H   UNK     0     187.245 187.945 175.034  0.00  0.00     0.217 HD
ENDBRANCH  15  20
ENDBRANCH   3  12
BRANCH   4  22
HETATM   22  O   UNK     0     184.483 181.806 174.344  0.00  0.00    -0.385 OA
HETATM   23  H   UNK     0     184.846 180.925 174.151  0.00  0.00     0.210 HD
ENDBRANCH   4  22
BRANCH   8  24
HETATM   24  O   UNK     0     180.393 179.774 172.005  0.00  0.00    -0.360 OA
HETATM   25  H   UNK     0     179.520 179.422 171.772  0.00  0.00     0.217 HD
ENDBRANCH   8  24
BRANCH  11  26
HETATM   26  O   UNK     0     178.461 183.563 169.899  0.00  0.00    -0.361 OA
HETATM   27  H   UNK     0     178.460 183.144 169.021  0.00  0.00     0.217 HD
ENDBRANCH  11  26
TORSDOF 6
ENDMDL
MODEL 4
REMARK VINA RESULT:      -6.6      4.354      6.877
REMARK  6 active torsions:
REMARK  status: ('A' for Active; 'I' for Inactive)
REMARK    1  A    between atoms: O_2  and  C_9 
REMARK    2  A    between atoms: O_4  and  C_14 
REMARK    3  A    between atoms: O_5  and  C_19 
REMARK    4  A    between atoms: O_6  and  C_20 
REMARK    5  A    between atoms: O_7  and  C_22 
REMARK    6  A    between atoms: C_8  and  C_10 
ROOT
HETATM    1  O   UNK     0     185.554 187.544 171.673  0.00  0.00    -0.337 OA
HETATM    2  O   UNK     0     182.001 186.216 170.107  0.00  0.00    -0.289 OA
HETATM    3  C   UNK     0     184.696 186.663 172.414  0.00  0.00     0.198 C 
HETATM    4  C   UNK     0     183.923 185.729 171.483  0.00  0.00     0.227 C 
HETATM    5  C   UNK     0     183.096 186.565 170.532  0.00  0.00     0.196 C 
HETATM    6  C   UNK     0     183.710 187.837 170.103  0.00  0.00     0.079 A 
HETATM    7  C   UNK     0     184.912 188.245 170.687  0.00  0.00     0.089 A 
HETATM    8  C   UNK     0     183.112 188.611 169.105  0.00  0.00     0.085 A 
HETATM    9  C   UNK     0     185.534 189.413 170.245  0.00  0.00     0.074 A 
HETATM   10  C   UNK     0     183.729 189.787 168.681  0.00  0.00     0.074 A 
HETATM   11  C   UNK     0     184.941 190.185 169.245  0.00  0.00     0.071 A 
ENDROOT
BRANCH   3  12
HETATM   12  C   UNK     0     185.573 185.893 173.383  0.00  0.00    -0.023 A 
HETATM   13  C   UNK     0     185.578 186.233 174.734  0.00  0.00     0.049 A 
HETATM   14  C   UNK     0     186.384 185.525 175.627  0.00  0.00     0.099 A 
HETATM   15  C   UNK     0     187.183 184.480 175.165  0.00  0.00     0.098 A 
HETATM   16  C   UNK     0     187.176 184.141 173.812  0.00  0.00     0.040 A 
HETATM   17  C   UNK     0     186.371 184.849 172.920  0.00  0.00     0.013 A 
BRANCH  14  18
HETATM   18  O   UNK     0     186.382 185.864 176.946  0.00  0.00    -0.358 OA
HETATM   19  H   UNK     0     185.463 186.036 177.216  0.00  0.00     0.217 HD
ENDBRANCH  14  18
BRANCH  15  20
HETATM   20  O   UNK     0     187.974 183.780 176.027  0.00  0.00    -0.358 OA
HETATM   21  H   UNK     0     188.610 183.251 175.514  0.00  0.00     0.217 HD
ENDBRANCH  15  20
ENDBRANCH   3  12
BRANCH   4  22
HETATM   22  O   UNK     0     183.041 184.911 172.233  0.00  0.00    -0.385 OA
HETATM   23  H   UNK     0     183.583 184.349 172.812  0.00  0.00     0.210 HD
ENDBRANCH   4  22
BRANCH   8  24
HETATM   24  O   UNK     0     181.939 188.261 168.505  0.00  0.00    -0.360 OA
HETATM   25  H   UNK     0     181.891 187.301 168.382  0.00  0.00     0.217 HD
ENDBRANCH   8  24
BRANCH  11  26
HETATM   26  O   UNK     0     185.544 191.330 168.823  0.00  0.00    -0.361 OA
HETATM   27  H   UNK     0     186.379 191.446 169.310  0.00  0.00     0.217 HD
ENDBRANCH  11  26
TORSDOF 6
ENDMDL
MODEL 5
REMARK VINA RESULT:      -6.5      1.892      6.790
REMARK  6 active torsions:
REMARK  status: ('A' for Active; 'I' for Inactive)
REMARK    1  A    between atoms: O_2  and  C_9 
REMARK    2  A    between atoms: O_4  and  C_14 
REMARK    3  A    between atoms: O_5  and  C_19 
REMARK    4  A    between atoms: O_6  and  C_20 
REMARK    5  A    between atoms: O_7  and  C_22 
REMARK    6  A    between atoms: C_8  and  C_10 
ROOT
HETATM    1  O   UNK     0     184.564 184.139 171.920  0.00  0.00    -0.337 OA
HETATM    2  O   UNK     0     185.522 186.126 175.380  0.00  0.00    -0.289 OA
HETATM    3  C   UNK     0     184.134 183.654 173.201  0.00  0.00     0.198 C 
HETATM    4  C   UNK     0     183.898 184.805 174.179  0.00  0.00     0.227 C 
HETATM    5  C   UNK     0     185.186 185.584 174.334  0.00  0.00     0.196 C 
HETATM    6  C   UNK     0     186.017 185.688 173.119  0.00  0.00     0.079 A 
HETATM    7  C   UNK     0     185.649 184.972 171.977  0.00  0.00     0.089 A 
HETATM    8  C   UNK     0     187.143 186.516 173.100  0.00  0.00     0.085 A 
HETATM    9  C   UNK     0     186.390 185.113 170.803  0.00  0.00     0.074 A 
HETATM   10  C   UNK     0     187.891 186.637 171.930  0.00  0.00     0.074 A 
HETATM   11  C   UNK     0     187.513 185.942 170.781  0.00  0.00     0.071 A 
ENDROOT
BRANCH   3  12
HETATM   12  C   UNK     0     182.874 182.841 172.974  0.00  0.00    -0.023 A 
HETATM   13  C   UNK     0     182.927 181.450 173.028  0.00  0.00     0.049 A 
HETATM   14  C   UNK     0     181.768 180.701 172.819  0.00  0.00     0.099 A 
HETATM   15  C   UNK     0     180.560 181.346 172.556  0.00  0.00     0.098 A 
HETATM   16  C   UNK     0     180.509 182.739 172.503  0.00  0.00     0.040 A 
HETATM   17  C   UNK     0     181.667 183.487 172.712  0.00  0.00     0.013 A 
BRANCH  14  18
HETATM   18  O   UNK     0     181.829 179.342 172.874  0.00  0.00    -0.358 OA
HETATM   19  H   UNK     0     182.751 179.070 172.719  0.00  0.00     0.217 HD
ENDBRANCH  14  18
BRANCH  15  20
HETATM   20  O   UNK     0     179.421 180.626 172.352  0.00  0.00    -0.358 OA
HETATM   21  H   UNK     0     179.457 179.816 172.890  0.00  0.00     0.217 HD
ENDBRANCH  15  20
ENDBRANCH   3  12
BRANCH   4  22
HETATM   22  O   UNK     0     183.533 184.299 175.452  0.00  0.00    -0.385 OA
HETATM   23  H   UNK     0     182.744 184.785 175.746  0.00  0.00     0.210 HD
ENDBRANCH   4  22
BRANCH   8  24
HETATM   24  O   UNK     0     187.548 187.232 174.186  0.00  0.00    -0.360 OA
HETATM   25  H   UNK     0     188.190 186.729 174.709  0.00  0.00     0.217 HD
ENDBRANCH   8  24
BRANCH  11  26
HETATM   26  O   UNK     0     188.241 186.070 169.638  0.00  0.00    -0.361 OA
HETATM   27  H   UNK     0     187.842 185.515 168.946  0.00  0.00     0.217 HD
ENDBRANCH  11  26
TORSDOF 6
ENDMDL
MODEL 6
REMARK VINA RESULT:      -6.5      3.567      5.435
REMARK  6 active torsions:
REMARK  status: ('A' for Active; 'I' for Inactive)
REMARK    1  A    between atoms: O_2  and  C_9 
REMARK    2  A    between atoms: O_4  and  C_14 
REMARK    3  A    between atoms: O_5  and  C_19 
REMARK    4  A    between atoms: O_6  and  C_20 
REMARK    5  A    between atoms: O_7  and  C_22 
REMARK    6  A    between atoms: C_8  and  C_10 
ROOT
HETATM    1  O   UNK     0     184.086 186.292 171.800  0.00  0.00    -0.337 OA
HETATM    2  O   UNK     0     180.236 184.906 172.112  0.00  0.00    -0.289 OA
HETATM    3  C   UNK     0     183.582 185.765 173.037  0.00  0.00     0.198 C 
HETATM    4  C   UNK     0     182.541 184.673 172.791  0.00  0.00     0.227 C 
HETATM    5  C   UNK     0     181.403 185.259 171.984  0.00  0.00     0.196 C 
HETATM    6  C   UNK     0     181.788 186.275 170.985  0.00  0.00     0.079 A 
HETATM    7  C   UNK     0     183.110 186.720 170.940  0.00  0.00     0.089 A 
HETATM    8  C   UNK     0     180.847 186.764 170.075  0.00  0.00     0.085 A 
HETATM    9  C   UNK     0     183.500 187.633 169.959  0.00  0.00     0.074 A 
HETATM   10  C   UNK     0     181.238 187.690 169.109  0.00  0.00     0.074 A 
HETATM   11  C   UNK     0     182.564 188.120 169.047  0.00  0.00     0.071 A 
ENDROOT
BRANCH   3  12
HETATM   12  C   UNK     0     184.771 185.243 173.821  0.00  0.00    -0.023 A 
HETATM   13  C   UNK     0     185.111 185.830 175.038  0.00  0.00     0.049 A 
HETATM   14  C   UNK     0     186.205 185.351 175.760  0.00  0.00     0.099 A 
HETATM   15  C   UNK     0     186.955 184.286 175.262  0.00  0.00     0.098 A 
HETATM   16  C   UNK     0     186.612 183.699 174.043  0.00  0.00     0.040 A 
HETATM   17  C   UNK     0     185.519 184.179 173.322  0.00  0.00     0.013 A 
BRANCH  14  18
HETATM   18  O   UNK     0     186.530 185.930 176.948  0.00  0.00    -0.358 OA
HETATM   19  H   UNK     0     186.750 185.226 177.582  0.00  0.00     0.217 HD
ENDBRANCH  14  18
BRANCH  15  20
HETATM   20  O   UNK     0     188.025 183.807 175.958  0.00  0.00    -0.358 OA
HETATM   21  H   UNK     0     188.757 184.444 175.890  0.00  0.00     0.217 HD
ENDBRANCH  15  20
ENDBRANCH   3  12
BRANCH   4  22
HETATM   22  O   UNK     0     182.015 184.211 174.024  0.00  0.00    -0.385 OA
HETATM   23  H   UNK     0     181.430 184.906 174.371  0.00  0.00     0.210 HD
ENDBRANCH   4  22
BRANCH   8  24
HETATM   24  O   UNK     0     179.543 186.366 170.077  0.00  0.00    -0.360 OA
HETATM   25  H   UNK     0     179.250 186.158 170.977  0.00  0.00     0.217 HD
ENDBRANCH   8  24
BRANCH  11  26
HETATM   26  O   UNK     0     182.943 189.018 168.097  0.00  0.00    -0.361 OA
HETATM   27  H   UNK     0     183.171 188.539 167.281  0.00  0.00     0.217 HD
ENDBRANCH  11  26
TORSDOF 6
ENDMDL
MODEL 7
REMARK VINA RESULT:      -6.5      4.218      7.147
REMARK  6 active torsions:
REMARK  status: ('A' for Active; 'I' for Inactive)
REMARK    1  A    between atoms: O_2  and  C_9 
REMARK    2  A    between atoms: O_4  and  C_14 
REMARK    3  A    between atoms: O_5  and  C_19 
REMARK    4  A    between atoms: O_6  and  C_20 
REMARK    5  A    between atoms: O_7  and  C_22 
REMARK    6  A    between atoms: C_8  and  C_10 
ROOT
HETATM    1  O   UNK     0     186.959 184.682 170.229  0.00  0.00    -0.337 OA
HETATM    2  O   UNK     0     186.640 188.773 170.159  0.00  0.00    -0.289 OA
HETATM    3  C   UNK     0     187.078 185.459 171.430  0.00  0.00     0.198 C 
HETATM    4  C   UNK     0     186.219 186.722 171.361  0.00  0.00     0.227 C 
HETATM    5  C   UNK     0     186.663 187.548 170.173  0.00  0.00     0.196 C 
HETATM    6  C   UNK     0     187.101 186.779 168.991  0.00  0.00     0.079 A 
HETATM    7  C   UNK     0     187.208 185.389 169.084  0.00  0.00     0.089 A 
HETATM    8  C   UNK     0     187.377 187.430 167.786  0.00  0.00     0.085 A 
HETATM    9  C   UNK     0     187.559 184.646 167.955  0.00  0.00     0.074 A 
HETATM   10  C   UNK     0     187.747 186.684 166.668  0.00  0.00     0.074 A 
HETATM   11  C   UNK     0     187.832 185.294 166.750  0.00  0.00     0.071 A 
ENDROOT
BRANCH   3  12
HETATM   12  C   UNK     0     186.671 184.565 172.586  0.00  0.00    -0.023 A 
HETATM   13  C   UNK     0     187.463 184.509 173.732  0.00  0.00     0.049 A 
HETATM   14  C   UNK     0     187.090 183.687 174.796  0.00  0.00     0.099 A 
HETATM   15  C   UNK     0     185.927 182.922 174.710  0.00  0.00     0.098 A 
HETATM   16  C   UNK     0     185.135 182.980 173.562  0.00  0.00     0.040 A 
HETATM   17  C   UNK     0     185.509 183.802 172.499  0.00  0.00     0.013 A 
BRANCH  14  18
HETATM   18  O   UNK     0     187.869 183.639 175.911  0.00  0.00    -0.358 OA
HETATM   19  H   UNK     0     188.451 184.418 175.911  0.00  0.00     0.217 HD
ENDBRANCH  14  18
BRANCH  15  20
HETATM   20  O   UNK     0     185.550 182.116 175.742  0.00  0.00    -0.358 OA
HETATM   21  H   UNK     0     185.034 182.638 176.380  0.00  0.00     0.217 HD
ENDBRANCH  15  20
ENDBRANCH   3  12
BRANCH   4  22
HETATM   22  O   UNK     0     186.399 187.502 172.531  0.00  0.00    -0.385 OA
HETATM   23  H   UNK     0     187.306 187.353 172.846  0.00  0.00     0.210 HD
ENDBRANCH   4  22
BRANCH   8  24
HETATM   24  O   UNK     0     187.292 188.783 167.643  0.00  0.00    -0.360 OA
HETATM   25  H   UNK     0     187.263 189.217 168.509  0.00  0.00     0.217 HD
ENDBRANCH   8  24
BRANCH  11  26
HETATM   26  O   UNK     0     188.185 184.569 165.653  0.00  0.00    -0.361 OA
HETATM   27  H   UNK     0     189.155 184.500 165.618  0.00  0.00     0.217 HD
ENDBRANCH  11  26
TORSDOF 6
ENDMDL
MODEL 8
REMARK VINA RESULT:      -6.5      4.795      7.734
REMARK  6 active torsions:
REMARK  status: ('A' for Active; 'I' for Inactive)
REMARK    1  A    between atoms: O_2  and  C_9 
REMARK    2  A    between atoms: O_4  and  C_14 
REMARK    3  A    between atoms: O_5  and  C_19 
REMARK    4  A    between atoms: O_6  and  C_20 
REMARK    5  A    between atoms: O_7  and  C_22 
REMARK    6  A    between atoms: C_8  and  C_10 
ROOT
HETATM    1  O   UNK     0     187.260 183.573 171.268  0.00  0.00    -0.337 OA
HETATM    2  O   UNK     0     188.616 187.404 171.838  0.00  0.00    -0.289 OA
HETATM    3  C   UNK     0     187.610 184.413 170.156  0.00  0.00     0.198 C 
HETATM    4  C   UNK     0     188.734 185.381 170.526  0.00  0.00     0.227 C 
HETATM    5  C   UNK     0     188.276 186.236 171.688  0.00  0.00     0.196 C 
HETATM    6  C   UNK     0     187.409 185.561 172.673  0.00  0.00     0.079 A 
HETATM    7  C   UNK     0     186.965 184.263 172.413  0.00  0.00     0.089 A 
HETATM    8  C   UNK     0     187.061 186.201 173.865  0.00  0.00     0.085 A 
HETATM    9  C   UNK     0     186.198 183.590 173.366  0.00  0.00     0.074 A 
HETATM   10  C   UNK     0     186.278 185.531 174.805  0.00  0.00     0.074 A 
HETATM   11  C   UNK     0     185.851 184.226 174.559  0.00  0.00     0.071 A 
ENDROOT
BRANCH   3  12
HETATM   12  C   UNK     0     188.007 183.500 169.012  0.00  0.00    -0.023 A 
HETATM   13  C   UNK     0     189.165 182.731 169.107  0.00  0.00     0.049 A 
HETATM   14  C   UNK     0     189.531 181.892 168.054  0.00  0.00     0.099 A 
HETATM   15  C   UNK     0     188.739 181.825 166.908  0.00  0.00     0.098 A 
HETATM   16  C   UNK     0     187.579 182.596 166.815  0.00  0.00     0.040 A 
HETATM   17  C   UNK     0     187.214 183.435 167.868  0.00  0.00     0.013 A 
BRANCH  14  18
HETATM   18  O   UNK     0     190.664 181.144 168.156  0.00  0.00    -0.358 OA
HETATM   19  H   UNK     0     191.431 181.733 168.049  0.00  0.00     0.217 HD
ENDBRANCH  14  18
BRANCH  15  20
HETATM   20  O   UNK     0     189.085 181.009 165.873  0.00  0.00    -0.358 OA
HETATM   21  H   UNK     0     190.053 180.922 165.849  0.00  0.00     0.217 HD
ENDBRANCH  15  20
ENDBRANCH   3  12
BRANCH   4  22
HETATM   22  O   UNK     0     189.020 186.238 169.433  0.00  0.00    -0.385 OA
HETATM   23  H   UNK     0     189.663 185.783 168.864  0.00  0.00     0.210 HD
ENDBRANCH   4  22
BRANCH   8  24
HETATM   24  O   UNK     0     187.464 187.468 174.166  0.00  0.00    -0.360 OA
HETATM   25  H   UNK     0     187.047 187.774 174.985  0.00  0.00     0.217 HD
ENDBRANCH   8  24
BRANCH  11  26
HETATM   26  O   UNK     0     185.095 183.573 175.482  0.00  0.00    -0.361 OA
HETATM   27  H   UNK     0     185.604 183.490 176.307  0.00  0.00     0.217 HD
ENDBRANCH  11  26
TORSDOF 6
ENDMDL
MODEL 9
REMARK VINA RESULT:      -6.5      8.150     10.582
REMARK  6 active torsions:
REMARK  status: ('A' for Active; 'I' for Inactive)
REMARK    1  A    between atoms: O_2  and  C_9 
REMARK    2  A    between atoms: O_4  and  C_14 
REMARK    3  A    between atoms: O_5  and  C_19 
REMARK    4  A    between atoms: O_6  and  C_20 
REMARK    5  A    between atoms: O_7  and  C_22 
REMARK    6  A    between atoms: C_8  and  C_10 
ROOT
HETATM    1  O   UNK     0     177.679 176.346 169.221  0.00  0.00    -0.337 OA
HETATM    2  O   UNK     0     175.230 173.164 170.073  0.00  0.00    -0.289 OA
HETATM    3  C   UNK     0     178.064 175.343 170.174  0.00  0.00     0.198 C 
HETATM    4  C   UNK     0     177.488 173.976 169.805  0.00  0.00     0.227 C 
HETATM    5  C   UNK     0     175.979 174.081 169.756  0.00  0.00     0.196 C 
HETATM    6  C   UNK     0     175.446 175.365 169.261  0.00  0.00     0.079 A 
HETATM    7  C   UNK     0     176.328 176.417 169.007  0.00  0.00     0.089 A 
HETATM    8  C   UNK     0     174.077 175.517 169.021  0.00  0.00     0.085 A 
HETATM    9  C   UNK     0     175.843 177.614 168.477  0.00  0.00     0.074 A 
HETATM   10  C   UNK     0     173.597 176.722 168.510  0.00  0.00     0.074 A 
HETATM   11  C   UNK     0     174.478 177.767 168.233  0.00  0.00     0.071 A 
ENDROOT
BRANCH   3  12
HETATM   12  C   UNK     0     179.580 175.322 170.216  0.00  0.00    -0.023 A 
HETATM   13  C   UNK     0     180.246 175.633 171.400  0.00  0.00     0.049 A 
HETATM   14  C   UNK     0     181.640 175.614 171.440  0.00  0.00     0.099 A 
HETATM   15  C   UNK     0     182.365 175.285 170.295  0.00  0.00     0.098 A 
HETATM   16  C   UNK     0     181.697 174.973 169.110  0.00  0.00     0.040 A 
HETATM   17  C   UNK     0     180.303 174.993 169.071  0.00  0.00     0.013 A 
BRANCH  14  18
HETATM   18  O   UNK     0     182.282 175.919 172.601  0.00  0.00    -0.358 OA
HETATM   19  H   UNK     0     182.341 176.888 172.674  0.00  0.00     0.217 HD
ENDBRANCH  14  18
BRANCH  15  20
HETATM   20  O   UNK     0     183.728 175.262 170.320  0.00  0.00    -0.358 OA
HETATM   21  H   UNK     0     184.044 175.925 170.958  0.00  0.00     0.217 HD
ENDBRANCH  15  20
ENDBRANCH   3  12
BRANCH   4  22
HETATM   22  O   UNK     0     177.832 173.017 170.791  0.00  0.00    -0.385 OA
HETATM   23  H   UNK     0     177.039 172.485 170.971  0.00  0.00     0.210 HD
ENDBRANCH   4  22
BRANCH   8  24
HETATM   24  O   UNK     0     173.174 174.524 169.254  0.00  0.00    -0.360 OA
HETATM   25  H   UNK     0     172.927 174.084 168.427  0.00  0.00     0.217 HD
ENDBRANCH   8  24
BRANCH  11  26
HETATM   26  O   UNK     0     174.005 178.939 167.727  0.00  0.00    -0.361 OA
HETATM   27  H   UNK     0     174.406 179.679 168.216  0.00  0.00     0.217 HD
ENDBRANCH  11  26
TORSDOF 6
ENDMDL
MODEL 10
REMARK VINA RESULT:      -6.5      4.237      6.969
REMARK  6 active torsions:
REMARK  status: ('A' for Active; 'I' for Inactive)
REMARK    1  A    between atoms: O_2  and  C_9 
REMARK    2  A    between atoms: O_4  and  C_14 
REMARK    3  A    between atoms: O_5  and  C_19 
REMARK    4  A    between atoms: O_6  and  C_20 
REMARK    5  A    between atoms: O_7  and  C_22 
REMARK    6  A    between atoms: C_8  and  C_10 
ROOT
HETATM    1  O   UNK     0     186.457 183.860 170.429  0.00  0.00    -0.337 OA
HETATM    2  O   UNK     0     189.707 186.329 170.865  0.00  0.00    -0.289 OA
HETATM    3  C   UNK     0     187.065 184.072 171.712  0.00  0.00     0.198 C 
HETATM    4  C   UNK     0     187.660 185.477 171.820  0.00  0.00     0.227 C 
HETATM    5  C   UNK     0     188.695 185.651 170.730  0.00  0.00     0.196 C 
HETATM    6  C   UNK     0     188.395 184.975 169.452  0.00  0.00     0.079 A 
HETATM    7  C   UNK     0     187.284 184.132 169.372  0.00  0.00     0.089 A 
HETATM    8  C   UNK     0     189.195 185.198 168.329  0.00  0.00     0.085 A 
HETATM    9  C   UNK     0     186.954 183.538 168.152  0.00  0.00     0.074 A 
HETATM   10  C   UNK     0     188.871 184.587 167.118  0.00  0.00     0.074 A 
HETATM   11  C   UNK     0     187.750 183.762 167.028  0.00  0.00     0.071 A 
ENDROOT
BRANCH   3  12
HETATM   12  C   UNK     0     185.996 183.832 172.761  0.00  0.00    -0.023 A 
HETATM   13  C   UNK     0     186.261 182.997 173.844  0.00  0.00     0.049 A 
HETATM   14  C   UNK     0     185.278 182.776 174.809  0.00  0.00     0.099 A 
HETATM   15  C   UNK     0     184.032 183.390 174.687  0.00  0.00     0.098 A 
HETATM   16  C   UNK     0     183.768 184.226 173.602  0.00  0.00     0.040 A 
HETATM   17  C   UNK     0     184.751 184.447 172.638  0.00  0.00     0.013 A 
BRANCH  14  18
HETATM   18  O   UNK     0     185.546 181.958 175.864  0.00  0.00    -0.358 OA
HETATM   19  H   UNK     0     185.587 181.042 175.539  0.00  0.00     0.217 HD
ENDBRANCH  14  18
BRANCH  15  20
HETATM   20  O   UNK     0     183.063 183.183 175.624  0.00  0.00    -0.358 OA
HETATM   21  H   UNK     0     182.855 182.233 175.659  0.00  0.00     0.217 HD
ENDBRANCH  15  20
ENDBRANCH   3  12
BRANCH   4  22
HETATM   22  O   UNK     0     188.305 185.641 173.071  0.00  0.00    -0.385 OA
HETATM   23  H   UNK     0     188.320 186.592 173.270  0.00  0.00     0.210 HD
ENDBRANCH   4  22
BRANCH   8  24
HETATM   24  O   UNK     0     190.291 186.008 168.354  0.00  0.00    -0.360 OA
HETATM   25  H   UNK     0     190.280 186.574 169.140  0.00  0.00     0.217 HD
ENDBRANCH   8  24
BRANCH  11  26
HETATM   26  O   UNK     0     187.432 183.173 165.843  0.00  0.00    -0.361 OA
HETATM   27  H   UNK     0     186.463 183.143 165.754  0.00  0.00     0.217 HD
ENDBRANCH  11  26
TORSDOF 6
ENDMDL
