REMARK VINA RESULT:      -6.5      3.567      5.435
REMARK  6 active torsions:
REMARK  status: ('A' for Active; 'I' for Inactive)
REMARK    1  A    between atoms: O_2  and  C_9 
REMARK    2  A    between atoms: O_4  and  C_14 
REMARK    3  A    between atoms: O_5  and  C_19 
REMARK    4  A    between atoms: O_6  and  C_20 
REMARK    5  A    between atoms: O_7  and  C_22 
REMARK    6  A    between atoms: C_8  and  C_10 
ROOT
HETATM    1  O   UNK     0     184.086 186.292 171.800  0.00  0.00    -0.337 OA
HETATM    2  O   UNK     0     180.236 184.906 172.112  0.00  0.00    -0.289 OA
HETATM    3  C   UNK     0     183.582 185.765 173.037  0.00  0.00     0.198 C 
HETATM    4  C   UNK     0     182.541 184.673 172.791  0.00  0.00     0.227 C 
HETATM    5  C   UNK     0     181.403 185.259 171.984  0.00  0.00     0.196 C 
HETATM    6  C   UNK     0     181.788 186.275 170.985  0.00  0.00     0.079 A 
HETATM    7  C   UNK     0     183.110 186.720 170.940  0.00  0.00     0.089 A 
HETATM    8  C   UNK     0     180.847 186.764 170.075  0.00  0.00     0.085 A 
HETATM    9  C   UNK     0     183.500 187.633 169.959  0.00  0.00     0.074 A 
HETATM   10  C   UNK     0     181.238 187.690 169.109  0.00  0.00     0.074 A 
HETATM   11  C   UNK     0     182.564 188.120 169.047  0.00  0.00     0.071 A 
ENDROOT
BRANCH   3  12
HETATM   12  C   UNK     0     184.771 185.243 173.821  0.00  0.00    -0.023 A 
HETATM   13  C   UNK     0     185.111 185.830 175.038  0.00  0.00     0.049 A 
HETATM   14  C   UNK     0     186.205 185.351 175.760  0.00  0.00     0.099 A 
HETATM   15  C   UNK     0     186.955 184.286 175.262  0.00  0.00     0.098 A 
HETATM   16  C   UNK     0     186.612 183.699 174.043  0.00  0.00     0.040 A 
HETATM   17  C   UNK     0     185.519 184.179 173.322  0.00  0.00     0.013 A 
BRANCH  14  18
HETATM   18  O   UNK     0     186.530 185.930 176.948  0.00  0.00    -0.358 OA
HETATM   19  H   UNK     0     186.750 185.226 177.582  0.00  0.00     0.217 HD
ENDBRANCH  14  18
BRANCH  15  20
HETATM   20  O   UNK     0     188.025 183.807 175.958  0.00  0.00    -0.358 OA
HETATM   21  H   UNK     0     188.757 184.444 175.890  0.00  0.00     0.217 HD
ENDBRANCH  15  20
ENDBRANCH   3  12
BRANCH   4  22
HETATM   22  O   UNK     0     182.015 184.211 174.024  0.00  0.00    -0.385 OA
HETATM   23  H   UNK     0     181.430 184.906 174.371  0.00  0.00     0.210 HD
ENDBRANCH   4  22
BRANCH   8  24
HETATM   24  O   UNK     0     179.543 186.366 170.077  0.00  0.00    -0.360 OA
HETATM   25  H   UNK     0     179.250 186.158 170.977  0.00  0.00     0.217 HD
ENDBRANCH   8  24
BRANCH  11  26
HETATM   26  O   UNK     0     182.943 189.018 168.097  0.00  0.00    -0.361 OA
HETATM   27  H   UNK     0     183.171 188.539 167.281  0.00  0.00     0.217 HD
ENDBRANCH  11  26
TORSDOF 6
