REMARK VINA RESULT:      -6.6      1.734      3.070
REMARK  6 active torsions:
REMARK  status: ('A' for Active; 'I' for Inactive)
REMARK    1  A    between atoms: O_2  and  C_9 
REMARK    2  A    between atoms: O_4  and  C_14 
REMARK    3  A    between atoms: O_5  and  C_19 
REMARK    4  A    between atoms: O_6  and  C_20 
REMARK    5  A    between atoms: O_7  and  C_22 
REMARK    6  A    between atoms: C_8  and  C_10 
ROOT
HETATM    1  O   UNK     0     182.537 184.128 172.249  0.00  0.00    -0.337 OA
HETATM    2  O   UNK     0     182.619 180.158 173.288  0.00  0.00    -0.289 OA
HETATM    3  C   UNK     0     183.275 183.672 173.393  0.00  0.00     0.198 C 
HETATM    4  C   UNK     0     183.810 182.255 173.180  0.00  0.00     0.227 C 
HETATM    5  C   UNK     0     182.642 181.328 172.924  0.00  0.00     0.196 C 
HETATM    6  C   UNK     0     181.520 181.913 172.163  0.00  0.00     0.079 A 
HETATM    7  C   UNK     0     181.541 183.275 171.856  0.00  0.00     0.089 A 
HETATM    8  C   UNK     0     180.464 181.107 171.730  0.00  0.00     0.085 A 
HETATM    9  C   UNK     0     180.518 183.825 171.082  0.00  0.00     0.074 A 
HETATM   10  C   UNK     0     179.435 181.667 170.973  0.00  0.00     0.074 A 
HETATM   11  C   UNK     0     179.463 183.022 170.645  0.00  0.00     0.071 A 
ENDROOT
BRANCH   3  12
HETATM   12  C   UNK     0     184.396 184.667 173.630  0.00  0.00    -0.023 A 
HETATM   13  C   UNK     0     184.662 185.117 174.922  0.00  0.00     0.049 A 
HETATM   14  C   UNK     0     185.693 186.032 175.141  0.00  0.00     0.099 A 
HETATM   15  C   UNK     0     186.453 186.495 174.067  0.00  0.00     0.098 A 
HETATM   16  C   UNK     0     186.185 186.042 172.775  0.00  0.00     0.040 A 
HETATM   17  C   UNK     0     185.155 185.128 172.557  0.00  0.00     0.013 A 
BRANCH  14  18
HETATM   18  O   UNK     0     185.946 186.466 176.406  0.00  0.00    -0.358 OA
HETATM   19  H   UNK     0     186.600 187.185 176.358  0.00  0.00     0.217 HD
ENDBRANCH  14  18
BRANCH  15  20
HETATM   20  O   UNK     0     187.463 187.387 174.268  0.00  0.00    -0.358 OA
HETATM   21  H   UNK     0     187.245 187.945 175.034  0.00  0.00     0.217 HD
ENDBRANCH  15  20
ENDBRANCH   3  12
BRANCH   4  22
HETATM   22  O   UNK     0     184.483 181.806 174.344  0.00  0.00    -0.385 OA
HETATM   23  H   UNK     0     184.846 180.925 174.151  0.00  0.00     0.210 HD
ENDBRANCH   4  22
BRANCH   8  24
HETATM   24  O   UNK     0     180.393 179.774 172.005  0.00  0.00    -0.360 OA
HETATM   25  H   UNK     0     179.520 179.422 171.772  0.00  0.00     0.217 HD
ENDBRANCH   8  24
BRANCH  11  26
HETATM   26  O   UNK     0     178.461 183.563 169.899  0.00  0.00    -0.361 OA
HETATM   27  H   UNK     0     178.460 183.144 169.021  0.00  0.00     0.217 HD
ENDBRANCH  11  26
TORSDOF 6
