MODEL 1
REMARK VINA RESULT:     -10.7      0.000      0.000
REMARK  13 active torsions:
REMARK  status: ('A' for Active; 'I' for Inactive)
REMARK    1  A    between atoms: O_2  and  C_16 
REMARK    2  A    between atoms: O_2  and  C_17 
REMARK    3  A    between atoms: O_4  and  C_12 
REMARK    4  A    between atoms: O_5  and  C_13 
REMARK    5  A    between atoms: O_6  and  C_15 
REMARK    6  A    between atoms: O_6  and  C_22 
REMARK    7  A    between atoms: O_7  and  C_14 
REMARK    8  A    between atoms: O_8  and  C_18 
REMARK    9  A    between atoms: O_9  and  C_19 
REMARK   10  A    between atoms: O_10  and  C_20 
REMARK   11  A    between atoms: C_11  and  C_16 
REMARK   12  A    between atoms: C_22  and  C_23 
REMARK   13  A    between atoms: C_24  and  C_25 
ROOT
HETATM    1  O   UNK     0      30.584  19.261  89.400  0.00  0.00    -0.348 OA
HETATM    2  C   UNK     0      30.919  20.596  89.780  0.00  0.00     0.180 C 
HETATM    3  C   UNK     0      29.653  21.454  89.846  0.00  0.00     0.180 C 
HETATM    4  C   UNK     0      28.900  21.413  88.517  0.00  0.00     0.183 C 
HETATM    5  C   UNK     0      28.709  19.975  88.033  0.00  0.00     0.204 C 
HETATM    6  C   UNK     0      30.018  19.189  88.094  0.00  0.00     0.291 C 
ENDROOT
BRANCH   2   7
HETATM    7  C   UNK     0      31.626  20.528  91.130  0.00  0.00     0.205 C 
BRANCH   7   8
HETATM    8  O   UNK     0      31.996  21.840  91.511  0.00  0.00    -0.356 OA
BRANCH   8   9
HETATM    9  C   UNK     0      33.376  22.092  91.266  0.00  0.00     0.290 C 
HETATM   10  O   UNK     0      34.131  22.175  92.480  0.00  0.00    -0.356 OA
HETATM   11  C   UNK     0      33.799  23.303  93.286  0.00  0.00     0.205 C 
HETATM   12  C   UNK     0      34.064  24.600  92.532  0.00  0.00     0.173 C 
HETATM   13  C   UNK     0      33.271  24.635  91.224  0.00  0.00     0.182 C 
HETATM   14  C   UNK     0      33.533  23.361  90.414  0.00  0.00     0.204 C 
BRANCH  12  15
HETATM   15  O   UNK     0      33.720  25.719  93.335  0.00  0.00    -0.391 OA
HETATM   16  H   UNK     0      32.755  25.837  93.277  0.00  0.00     0.210 HD
ENDBRANCH  12  15
BRANCH  13  17
HETATM   17  O   UNK     0      31.879  24.735  91.520  0.00  0.00    -0.390 OA
HETATM   18  H   UNK     0      31.634  25.674  91.464  0.00  0.00     0.210 HD
ENDBRANCH  13  17
BRANCH  14  19
HETATM   19  O   UNK     0      34.865  23.389  89.906  0.00  0.00    -0.388 OA
HETATM   20  H   UNK     0      35.092  22.499  89.589  0.00  0.00     0.210 HD
ENDBRANCH  14  19
ENDBRANCH   8   9
ENDBRANCH   7   8
ENDBRANCH   2   7
BRANCH   6  21
HETATM   21  O   UNK     0      29.731  17.831  87.766  0.00  0.00    -0.355 OA
BRANCH  21  22
HETATM   22  C   UNK     0      28.606  17.352  88.487  0.00  0.00     0.198 C 
BRANCH  22  23
HETATM   23  C   UNK     0      28.824  15.909  88.815  0.00  0.00     0.000 C 
HETATM   24  C   UNK     0      29.849  15.471  89.562  0.00  0.00     0.009 C 
BRANCH  24  25
HETATM   25  C   UNK     0      30.096  14.064  89.924  0.00  0.00    -0.036 A 
HETATM   26  C   UNK     0      30.805  13.774  91.079  0.00  0.00     0.011 A 
HETATM   27  C   UNK     0      31.039  12.442  91.422  0.00  0.00     0.001 A 
HETATM   28  C   UNK     0      30.559  11.419  90.605  0.00  0.00     0.000 A 
HETATM   29  C   UNK     0      29.847  11.725  89.446  0.00  0.00     0.001 A 
HETATM   30  C   UNK     0      29.613  13.057  89.103  0.00  0.00     0.011 A 
ENDBRANCH  24  25
ENDBRANCH  22  23
ENDBRANCH  21  22
ENDBRANCH   6  21
BRANCH   3  31
HETATM   31  O   UNK     0      30.010  22.801  90.144  0.00  0.00    -0.390 OA
HETATM   32  H   UNK     0      30.749  23.051  89.562  0.00  0.00     0.210 HD
ENDBRANCH   3  31
BRANCH   5  33
HETATM   33  O   UNK     0      28.256  19.987  86.679  0.00  0.00    -0.388 OA
HETATM   34  H   UNK     0      29.026  19.849  86.102  0.00  0.00     0.210 HD
ENDBRANCH   5  33
BRANCH   4  35
HETATM   35  O   UNK     0      27.623  22.023  88.714  0.00  0.00    -0.390 OA
HETATM   36  H   UNK     0      27.549  22.754  88.078  0.00  0.00     0.210 HD
ENDBRANCH   4  35
TORSDOF 13
ENDMDL
MODEL 2
REMARK VINA RESULT:     -10.3      2.202      5.297
REMARK  13 active torsions:
REMARK  status: ('A' for Active; 'I' for Inactive)
REMARK    1  A    between atoms: O_2  and  C_16 
REMARK    2  A    between atoms: O_2  and  C_17 
REMARK    3  A    between atoms: O_4  and  C_12 
REMARK    4  A    between atoms: O_5  and  C_13 
REMARK    5  A    between atoms: O_6  and  C_15 
REMARK    6  A    between atoms: O_6  and  C_22 
REMARK    7  A    between atoms: O_7  and  C_14 
REMARK    8  A    between atoms: O_8  and  C_18 
REMARK    9  A    between atoms: O_9  and  C_19 
REMARK   10  A    between atoms: O_10  and  C_20 
REMARK   11  A    between atoms: C_11  and  C_16 
REMARK   12  A    between atoms: C_22  and  C_23 
REMARK   13  A    between atoms: C_24  and  C_25 
ROOT
HETATM    1  O   UNK     0      33.168  22.176  91.338  0.00  0.00    -0.348 OA
HETATM    2  C   UNK     0      33.612  23.246  92.173  0.00  0.00     0.180 C 
HETATM    3  C   UNK     0      34.815  22.794  93.006  0.00  0.00     0.180 C 
HETATM    4  C   UNK     0      34.474  21.545  93.817  0.00  0.00     0.183 C 
HETATM    5  C   UNK     0      33.829  20.473  92.937  0.00  0.00     0.204 C 
HETATM    6  C   UNK     0      32.702  21.056  92.086  0.00  0.00     0.291 C 
ENDROOT
BRANCH   2   7
HETATM    7  C   UNK     0      33.963  24.422  91.266  0.00  0.00     0.205 C 
BRANCH   7   8
HETATM    8  O   UNK     0      33.772  24.026  89.920  0.00  0.00    -0.356 OA
BRANCH   8   9
HETATM    9  C   UNK     0      32.792  24.828  89.268  0.00  0.00     0.290 C 
HETATM   10  O   UNK     0      31.461  24.375  89.540  0.00  0.00    -0.356 OA
HETATM   11  C   UNK     0      31.164  23.096  88.985  0.00  0.00     0.205 C 
HETATM   12  C   UNK     0      31.301  23.124  87.468  0.00  0.00     0.173 C 
HETATM   13  C   UNK     0      32.710  23.561  87.062  0.00  0.00     0.182 C 
HETATM   14  C   UNK     0      33.076  24.875  87.759  0.00  0.00     0.204 C 
BRANCH  12  15
HETATM   15  O   UNK     0      31.017  21.844  86.922  0.00  0.00    -0.391 OA
HETATM   16  H   UNK     0      31.864  21.380  86.804  0.00  0.00     0.210 HD
ENDBRANCH  12  15
BRANCH  13  17
HETATM   17  O   UNK     0      33.643  22.547  87.433  0.00  0.00    -0.390 OA
HETATM   18  H   UNK     0      33.405  22.243  88.326  0.00  0.00     0.210 HD
ENDBRANCH  13  17
BRANCH  14  19
HETATM   19  O   UNK     0      32.307  25.938  87.199  0.00  0.00    -0.388 OA
HETATM   20  H   UNK     0      32.915  26.569  86.780  0.00  0.00     0.210 HD
ENDBRANCH  14  19
ENDBRANCH   8   9
ENDBRANCH   7   8
ENDBRANCH   2   7
BRANCH   6  21
HETATM   21  O   UNK     0      32.250  20.036  91.197  0.00  0.00    -0.355 OA
BRANCH  21  22
HETATM   22  C   UNK     0      30.893  20.236  90.829  0.00  0.00     0.198 C 
BRANCH  22  23
HETATM   23  C   UNK     0      30.440  19.067  90.014  0.00  0.00     0.000 C 
HETATM   24  C   UNK     0      30.109  17.881  90.547  0.00  0.00     0.009 C 
BRANCH  24  25
HETATM   25  C   UNK     0      29.644  16.708  89.788  0.00  0.00    -0.036 A 
HETATM   26  C   UNK     0      28.652  16.867  88.833  0.00  0.00     0.011 A 
HETATM   27  C   UNK     0      28.211  15.756  88.113  0.00  0.00     0.001 A 
HETATM   28  C   UNK     0      28.768  14.502  88.357  0.00  0.00     0.000 A 
HETATM   29  C   UNK     0      29.765  14.356  89.321  0.00  0.00     0.001 A 
HETATM   30  C   UNK     0      30.207  15.467  90.041  0.00  0.00     0.011 A 
ENDBRANCH  24  25
ENDBRANCH  22  23
ENDBRANCH  21  22
ENDBRANCH   6  21
BRANCH   3  31
HETATM   31  O   UNK     0      35.195  23.843  93.892  0.00  0.00    -0.390 OA
HETATM   32  H   UNK     0      36.166  23.897  93.894  0.00  0.00     0.210 HD
ENDBRANCH   3  31
BRANCH   5  33
HETATM   33  O   UNK     0      33.281  19.448  93.766  0.00  0.00    -0.388 OA
HETATM   34  H   UNK     0      32.329  19.388  93.582  0.00  0.00     0.210 HD
ENDBRANCH   5  33
BRANCH   4  35
HETATM   35  O   UNK     0      35.686  21.036  94.375  0.00  0.00    -0.390 OA
HETATM   36  H   UNK     0      35.974  21.661  95.063  0.00  0.00     0.210 HD
ENDBRANCH   4  35
TORSDOF 13
ENDMDL
MODEL 3
REMARK VINA RESULT:     -10.0      1.991      5.623
REMARK  13 active torsions:
REMARK  status: ('A' for Active; 'I' for Inactive)
REMARK    1  A    between atoms: O_2  and  C_16 
REMARK    2  A    between atoms: O_2  and  C_17 
REMARK    3  A    between atoms: O_4  and  C_12 
REMARK    4  A    between atoms: O_5  and  C_13 
REMARK    5  A    between atoms: O_6  and  C_15 
REMARK    6  A    between atoms: O_6  and  C_22 
REMARK    7  A    between atoms: O_7  and  C_14 
REMARK    8  A    between atoms: O_8  and  C_18 
REMARK    9  A    between atoms: O_9  and  C_19 
REMARK   10  A    between atoms: O_10  and  C_20 
REMARK   11  A    between atoms: C_11  and  C_16 
REMARK   12  A    between atoms: C_22  and  C_23 
REMARK   13  A    between atoms: C_24  and  C_25 
ROOT
HETATM    1  O   UNK     0      32.914  20.478  91.409  0.00  0.00    -0.348 OA
HETATM    2  C   UNK     0      32.649  21.881  91.441  0.00  0.00     0.180 C 
HETATM    3  C   UNK     0      33.842  22.624  92.048  0.00  0.00     0.180 C 
HETATM    4  C   UNK     0      34.173  22.076  93.436  0.00  0.00     0.183 C 
HETATM    5  C   UNK     0      34.274  20.550  93.419  0.00  0.00     0.204 C 
HETATM    6  C   UNK     0      33.074  19.922  92.711  0.00  0.00     0.291 C 
ENDROOT
BRANCH   2   7
HETATM    7  C   UNK     0      32.373  22.331  90.010  0.00  0.00     0.205 C 
BRANCH   7   8
HETATM    8  O   UNK     0      31.077  21.892  89.642  0.00  0.00    -0.356 OA
BRANCH   8   9
HETATM    9  C   UNK     0      31.097  21.148  88.428  0.00  0.00     0.290 C 
HETATM   10  O   UNK     0      31.155  22.000  87.278  0.00  0.00    -0.356 OA
HETATM   11  C   UNK     0      29.981  22.786  87.085  0.00  0.00     0.205 C 
HETATM   12  C   UNK     0      28.763  21.893  86.890  0.00  0.00     0.173 C 
HETATM   13  C   UNK     0      28.581  20.960  88.088  0.00  0.00     0.182 C 
HETATM   14  C   UNK     0      29.884  20.206  88.373  0.00  0.00     0.204 C 
BRANCH  12  15
HETATM   15  O   UNK     0      27.595  22.681  86.711  0.00  0.00    -0.391 OA
HETATM   16  H   UNK     0      26.911  22.109  86.322  0.00  0.00     0.210 HD
ENDBRANCH  12  15
BRANCH  13  17
HETATM   17  O   UNK     0      28.214  21.729  89.233  0.00  0.00    -0.390 OA
HETATM   18  H   UNK     0      28.327  22.667  89.003  0.00  0.00     0.210 HD
ENDBRANCH  13  17
BRANCH  14  19
HETATM   19  O   UNK     0      30.114  19.252  87.338  0.00  0.00    -0.388 OA
HETATM   20  H   UNK     0      31.035  19.339  87.039  0.00  0.00     0.210 HD
ENDBRANCH  14  19
ENDBRANCH   8   9
ENDBRANCH   7   8
ENDBRANCH   2   7
BRANCH   6  21
HETATM   21  O   UNK     0      33.309  18.518  92.611  0.00  0.00    -0.355 OA
BRANCH  21  22
HETATM   22  C   UNK     0      32.326  17.778  93.319  0.00  0.00     0.198 C 
BRANCH  22  23
HETATM   23  C   UNK     0      31.701  16.793  92.384  0.00  0.00     0.000 C 
HETATM   24  C   UNK     0      31.803  15.464  92.538  0.00  0.00     0.009 C 
BRANCH  24  25
HETATM   25  C   UNK     0      31.193  14.456  91.653  0.00  0.00    -0.036 A 
HETATM   26  C   UNK     0      30.540  14.869  90.503  0.00  0.00     0.011 A 
HETATM   27  C   UNK     0      29.962  13.916  89.664  0.00  0.00     0.001 A 
HETATM   28  C   UNK     0      30.046  12.562  89.987  0.00  0.00     0.000 A 
HETATM   29  C   UNK     0      30.706  12.161  91.148  0.00  0.00     0.001 A 
HETATM   30  C   UNK     0      31.284  13.114  91.987  0.00  0.00     0.011 A 
ENDBRANCH  24  25
ENDBRANCH  22  23
ENDBRANCH  21  22
ENDBRANCH   6  21
BRANCH   3  31
HETATM   31  O   UNK     0      33.531  24.011  92.150  0.00  0.00    -0.390 OA
HETATM   32  H   UNK     0      33.309  24.201  93.079  0.00  0.00     0.210 HD
ENDBRANCH   3  31
BRANCH   5  33
HETATM   33  O   UNK     0      34.308  20.064  94.761  0.00  0.00    -0.388 OA
HETATM   34  H   UNK     0      33.453  20.264  95.177  0.00  0.00     0.210 HD
ENDBRANCH   5  33
BRANCH   4  35
HETATM   35  O   UNK     0      35.425  22.631  93.843  0.00  0.00    -0.390 OA
HETATM   36  H   UNK     0      35.457  23.546  93.516  0.00  0.00     0.210 HD
ENDBRANCH   4  35
TORSDOF 13
ENDMDL
MODEL 4
REMARK VINA RESULT:     -10.0      2.553      5.059
REMARK  13 active torsions:
REMARK  status: ('A' for Active; 'I' for Inactive)
REMARK    1  A    between atoms: O_2  and  C_16 
REMARK    2  A    between atoms: O_2  and  C_17 
REMARK    3  A    between atoms: O_4  and  C_12 
REMARK    4  A    between atoms: O_5  and  C_13 
REMARK    5  A    between atoms: O_6  and  C_15 
REMARK    6  A    between atoms: O_6  and  C_22 
REMARK    7  A    between atoms: O_7  and  C_14 
REMARK    8  A    between atoms: O_8  and  C_18 
REMARK    9  A    between atoms: O_9  and  C_19 
REMARK   10  A    between atoms: O_10  and  C_20 
REMARK   11  A    between atoms: C_11  and  C_16 
REMARK   12  A    between atoms: C_22  and  C_23 
REMARK   13  A    between atoms: C_24  and  C_25 
ROOT
HETATM    1  O   UNK     0      32.897  19.713  91.955  0.00  0.00    -0.348 OA
HETATM    2  C   UNK     0      32.381  21.043  91.874  0.00  0.00     0.180 C 
HETATM    3  C   UNK     0      33.497  22.053  92.154  0.00  0.00     0.180 C 
HETATM    4  C   UNK     0      34.150  21.778  93.508  0.00  0.00     0.183 C 
HETATM    5  C   UNK     0      34.533  20.304  93.649  0.00  0.00     0.204 C 
HETATM    6  C   UNK     0      33.373  19.389  93.258  0.00  0.00     0.291 C 
ENDROOT
BRANCH   2   7
HETATM    7  C   UNK     0      31.792  21.225  90.479  0.00  0.00     0.205 C 
BRANCH   7   8
HETATM    8  O   UNK     0      32.783  21.791  89.641  0.00  0.00    -0.356 OA
BRANCH   8   9
HETATM    9  C   UNK     0      32.327  21.923  88.299  0.00  0.00     0.290 C 
HETATM   10  O   UNK     0      33.356  22.408  87.428  0.00  0.00    -0.356 OA
HETATM   11  C   UNK     0      33.756  23.748  87.702  0.00  0.00     0.205 C 
HETATM   12  C   UNK     0      32.579  24.703  87.542  0.00  0.00     0.173 C 
HETATM   13  C   UNK     0      31.427  24.298  88.462  0.00  0.00     0.182 C 
HETATM   14  C   UNK     0      31.081  22.820  88.255  0.00  0.00     0.204 C 
BRANCH  12  15
HETATM   15  O   UNK     0      32.980  26.035  87.828  0.00  0.00    -0.391 OA
HETATM   16  H   UNK     0      33.906  26.131  87.545  0.00  0.00     0.210 HD
ENDBRANCH  12  15
BRANCH  13  17
HETATM   17  O   UNK     0      31.810  24.513  89.820  0.00  0.00    -0.390 OA
HETATM   18  H   UNK     0      31.484  25.392  90.080  0.00  0.00     0.210 HD
ENDBRANCH  13  17
BRANCH  14  19
HETATM   19  O   UNK     0      30.461  22.653  86.982  0.00  0.00    -0.388 OA
HETATM   20  H   UNK     0      30.309  21.704  86.836  0.00  0.00     0.210 HD
ENDBRANCH  14  19
ENDBRANCH   8   9
ENDBRANCH   7   8
ENDBRANCH   2   7
BRANCH   6  21
HETATM   21  O   UNK     0      33.848  18.044  93.278  0.00  0.00    -0.355 OA
BRANCH  21  22
HETATM   22  C   UNK     0      33.040  17.223  94.108  0.00  0.00     0.198 C 
BRANCH  22  23
HETATM   23  C   UNK     0      32.620  16.018  93.329  0.00  0.00     0.000 C 
HETATM   24  C   UNK     0      31.574  16.013  92.489  0.00  0.00     0.009 C 
BRANCH  24  25
HETATM   25  C   UNK     0      31.131  14.857  91.690  0.00  0.00    -0.036 A 
HETATM   26  C   UNK     0      30.494  15.072  90.479  0.00  0.00     0.011 A 
HETATM   27  C   UNK     0      30.075  13.977  89.722  0.00  0.00     0.001 A 
HETATM   28  C   UNK     0      30.300  12.682  90.187  0.00  0.00     0.000 A 
HETATM   29  C   UNK     0      30.943  12.480  91.408  0.00  0.00     0.001 A 
HETATM   30  C   UNK     0      31.362  13.575  92.165  0.00  0.00     0.011 A 
ENDBRANCH  24  25
ENDBRANCH  22  23
ENDBRANCH  21  22
ENDBRANCH   6  21
BRANCH   3  31
HETATM   31  O   UNK     0      32.952  23.370  92.153  0.00  0.00    -0.390 OA
HETATM   32  H   UNK     0      33.352  23.859  91.413  0.00  0.00     0.210 HD
ENDBRANCH   3  31
BRANCH   5  33
HETATM   33  O   UNK     0      34.881  20.033  95.006  0.00  0.00    -0.388 OA
HETATM   34  H   UNK     0      35.183  19.111  95.062  0.00  0.00     0.210 HD
ENDBRANCH   5  33
BRANCH   4  35
HETATM   35  O   UNK     0      35.325  22.585  93.603  0.00  0.00    -0.390 OA
HETATM   36  H   UNK     0      35.615  22.786  92.697  0.00  0.00     0.210 HD
ENDBRANCH   4  35
TORSDOF 13
ENDMDL
MODEL 5
REMARK VINA RESULT:      -9.9      1.984      5.744
REMARK  13 active torsions:
REMARK  status: ('A' for Active; 'I' for Inactive)
REMARK    1  A    between atoms: O_2  and  C_16 
REMARK    2  A    between atoms: O_2  and  C_17 
REMARK    3  A    between atoms: O_4  and  C_12 
REMARK    4  A    between atoms: O_5  and  C_13 
REMARK    5  A    between atoms: O_6  and  C_15 
REMARK    6  A    between atoms: O_6  and  C_22 
REMARK    7  A    between atoms: O_7  and  C_14 
REMARK    8  A    between atoms: O_8  and  C_18 
REMARK    9  A    between atoms: O_9  and  C_19 
REMARK   10  A    between atoms: O_10  and  C_20 
REMARK   11  A    between atoms: C_11  and  C_16 
REMARK   12  A    between atoms: C_22  and  C_23 
REMARK   13  A    between atoms: C_24  and  C_25 
ROOT
HETATM    1  O   UNK     0      32.917  20.371  91.799  0.00  0.00    -0.348 OA
HETATM    2  C   UNK     0      32.703  21.770  91.992  0.00  0.00     0.180 C 
HETATM    3  C   UNK     0      33.998  22.436  92.463  0.00  0.00     0.180 C 
HETATM    4  C   UNK     0      34.525  21.762  93.730  0.00  0.00     0.183 C 
HETATM    5  C   UNK     0      34.576  20.242  93.568  0.00  0.00     0.204 C 
HETATM    6  C   UNK     0      33.262  19.699  93.008  0.00  0.00     0.291 C 
ENDROOT
BRANCH   2   7
HETATM    7  C   UNK     0      32.221  22.349  90.665  0.00  0.00     0.205 C 
BRANCH   7   8
HETATM    8  O   UNK     0      31.699  21.294  89.877  0.00  0.00    -0.356 OA
BRANCH   8   9
HETATM    9  C   UNK     0      30.295  21.143  90.061  0.00  0.00     0.290 C 
HETATM   10  O   UNK     0      29.930  19.779  90.303  0.00  0.00    -0.356 OA
HETATM   11  C   UNK     0      30.142  18.920  89.185  0.00  0.00     0.205 C 
HETATM   12  C   UNK     0      29.311  19.377  87.993  0.00  0.00     0.173 C 
HETATM   13  C   UNK     0      29.650  20.821  87.620  0.00  0.00     0.182 C 
HETATM   14  C   UNK     0      29.543  21.723  88.853  0.00  0.00     0.204 C 
BRANCH  12  15
HETATM   15  O   UNK     0      29.535  18.525  86.878  0.00  0.00    -0.391 OA
HETATM   16  H   UNK     0      28.677  18.378  86.443  0.00  0.00     0.210 HD
ENDBRANCH  12  15
BRANCH  13  17
HETATM   17  O   UNK     0      30.979  20.874  87.103  0.00  0.00    -0.390 OA
HETATM   18  H   UNK     0      30.966  20.465  86.220  0.00  0.00     0.210 HD
ENDBRANCH  13  17
BRANCH  14  19
HETATM   19  O   UNK     0      28.172  21.868  89.216  0.00  0.00    -0.388 OA
HETATM   20  H   UNK     0      27.880  22.760  88.963  0.00  0.00     0.210 HD
ENDBRANCH  14  19
ENDBRANCH   8   9
ENDBRANCH   7   8
ENDBRANCH   2   7
BRANCH   6  21
HETATM   21  O   UNK     0      33.435  18.306  92.753  0.00  0.00    -0.355 OA
BRANCH  21  22
HETATM   22  C   UNK     0      32.465  17.530  93.440  0.00  0.00     0.198 C 
BRANCH  22  23
HETATM   23  C   UNK     0      31.781  16.636  92.455  0.00  0.00     0.000 C 
HETATM   24  C   UNK     0      31.843  15.297  92.510  0.00  0.00     0.009 C 
BRANCH  24  25
HETATM   25  C   UNK     0      31.175  14.376  91.574  0.00  0.00    -0.036 A 
HETATM   26  C   UNK     0      31.179  13.016  91.839  0.00  0.00     0.011 A 
HETATM   27  C   UNK     0      30.546  12.144  90.953  0.00  0.00     0.001 A 
HETATM   28  C   UNK     0      29.917  12.645  89.813  0.00  0.00     0.000 A 
HETATM   29  C   UNK     0      29.920  14.016  89.560  0.00  0.00     0.001 A 
HETATM   30  C   UNK     0      30.553  14.888  90.446  0.00  0.00     0.011 A 
ENDBRANCH  24  25
ENDBRANCH  22  23
ENDBRANCH  21  22
ENDBRANCH   6  21
BRANCH   3  31
HETATM   31  O   UNK     0      33.749  23.814  92.730  0.00  0.00    -0.390 OA
HETATM   32  H   UNK     0      33.205  24.166  92.005  0.00  0.00     0.210 HD
ENDBRANCH   3  31
BRANCH   5  33
HETATM   33  O   UNK     0      34.804  19.639  94.841  0.00  0.00    -0.388 OA
HETATM   34  H   UNK     0      33.960  19.281  95.162  0.00  0.00     0.210 HD
ENDBRANCH   5  33
BRANCH   4  35
HETATM   35  O   UNK     0      35.841  22.259  93.979  0.00  0.00    -0.390 OA
HETATM   36  H   UNK     0      36.467  21.548  93.760  0.00  0.00     0.210 HD
ENDBRANCH   4  35
TORSDOF 13
ENDMDL
MODEL 6
REMARK VINA RESULT:      -9.7      2.331      4.697
REMARK  13 active torsions:
REMARK  status: ('A' for Active; 'I' for Inactive)
REMARK    1  A    between atoms: O_2  and  C_16 
REMARK    2  A    between atoms: O_2  and  C_17 
REMARK    3  A    between atoms: O_4  and  C_12 
REMARK    4  A    between atoms: O_5  and  C_13 
REMARK    5  A    between atoms: O_6  and  C_15 
REMARK    6  A    between atoms: O_6  and  C_22 
REMARK    7  A    between atoms: O_7  and  C_14 
REMARK    8  A    between atoms: O_8  and  C_18 
REMARK    9  A    between atoms: O_9  and  C_19 
REMARK   10  A    between atoms: O_10  and  C_20 
REMARK   11  A    between atoms: C_11  and  C_16 
REMARK   12  A    between atoms: C_22  and  C_23 
REMARK   13  A    between atoms: C_24  and  C_25 
ROOT
HETATM    1  O   UNK     0      32.838  20.863  91.844  0.00  0.00    -0.348 OA
HETATM    2  C   UNK     0      33.519  21.590  92.867  0.00  0.00     0.180 C 
HETATM    3  C   UNK     0      34.688  20.761  93.407  0.00  0.00     0.180 C 
HETATM    4  C   UNK     0      34.204  19.399  93.903  0.00  0.00     0.183 C 
HETATM    5  C   UNK     0      33.323  18.711  92.859  0.00  0.00     0.204 C 
HETATM    6  C   UNK     0      32.248  19.659  92.328  0.00  0.00     0.291 C 
ENDROOT
BRANCH   2   7
HETATM    7  C   UNK     0      33.993  22.907  92.260  0.00  0.00     0.205 C 
BRANCH   7   8
HETATM    8  O   UNK     0      33.638  22.924  90.889  0.00  0.00    -0.356 OA
BRANCH   8   9
HETATM    9  C   UNK     0      32.927  24.108  90.543  0.00  0.00     0.290 C 
HETATM   10  O   UNK     0      31.515  23.883  90.465  0.00  0.00    -0.356 OA
HETATM   11  C   UNK     0      31.128  23.022  89.396  0.00  0.00     0.205 C 
HETATM   12  C   UNK     0      31.536  23.617  88.055  0.00  0.00     0.173 C 
HETATM   13  C   UNK     0      33.045  23.864  88.012  0.00  0.00     0.182 C 
HETATM   14  C   UNK     0      33.480  24.685  89.231  0.00  0.00     0.204 C 
BRANCH  12  15
HETATM   15  O   UNK     0      31.160  22.750  86.994  0.00  0.00    -0.391 OA
HETATM   16  H   UNK     0      31.227  23.254  86.164  0.00  0.00     0.210 HD
ENDBRANCH  12  15
BRANCH  13  17
HETATM   17  O   UNK     0      33.728  22.612  88.011  0.00  0.00    -0.390 OA
HETATM   18  H   UNK     0      34.384  22.636  87.293  0.00  0.00     0.210 HD
ENDBRANCH  13  17
BRANCH  14  19
HETATM   19  O   UNK     0      32.998  26.020  89.098  0.00  0.00    -0.388 OA
HETATM   20  H   UNK     0      32.547  26.100  88.241  0.00  0.00     0.210 HD
ENDBRANCH  14  19
ENDBRANCH   8   9
ENDBRANCH   7   8
ENDBRANCH   2   7
BRANCH   6  21
HETATM   21  O   UNK     0      31.564  18.996  91.266  0.00  0.00    -0.355 OA
BRANCH  21  22
HETATM   22  C   UNK     0      30.288  18.534  91.682  0.00  0.00     0.198 C 
BRANCH  22  23
HETATM   23  C   UNK     0      30.000  17.236  90.998  0.00  0.00     0.000 C 
HETATM   24  C   UNK     0      30.706  16.115  91.218  0.00  0.00     0.009 C 
BRANCH  24  25
HETATM   25  C   UNK     0      30.451  14.812  90.580  0.00  0.00    -0.036 A 
HETATM   26  C   UNK     0      30.825  13.650  91.236  0.00  0.00     0.011 A 
HETATM   27  C   UNK     0      30.583  12.416  90.632  0.00  0.00     0.001 A 
HETATM   28  C   UNK     0      29.970  12.361  89.381  0.00  0.00     0.000 A 
HETATM   29  C   UNK     0      29.598  13.538  88.733  0.00  0.00     0.001 A 
HETATM   30  C   UNK     0      29.840  14.773  89.336  0.00  0.00     0.011 A 
ENDBRANCH  24  25
ENDBRANCH  22  23
ENDBRANCH  21  22
ENDBRANCH   6  21
BRANCH   3  31
HETATM   31  O   UNK     0      35.306  21.463  94.482  0.00  0.00    -0.390 OA
HETATM   32  H   UNK     0      34.936  21.121  95.315  0.00  0.00     0.210 HD
ENDBRANCH   3  31
BRANCH   5  33
HETATM   33  O   UNK     0      32.675  17.587  93.455  0.00  0.00    -0.388 OA
HETATM   34  H   UNK     0      32.651  16.870  92.799  0.00  0.00     0.210 HD
ENDBRANCH   5  33
BRANCH   4  35
HETATM   35  O   UNK     0      35.353  18.591  94.163  0.00  0.00    -0.390 OA
HETATM   36  H   UNK     0      35.683  18.270  93.307  0.00  0.00     0.210 HD
ENDBRANCH   4  35
TORSDOF 13
ENDMDL
MODEL 7
REMARK VINA RESULT:      -8.8      2.813      4.882
REMARK  13 active torsions:
REMARK  status: ('A' for Active; 'I' for Inactive)
REMARK    1  A    between atoms: O_2  and  C_16 
REMARK    2  A    between atoms: O_2  and  C_17 
REMARK    3  A    between atoms: O_4  and  C_12 
REMARK    4  A    between atoms: O_5  and  C_13 
REMARK    5  A    between atoms: O_6  and  C_15 
REMARK    6  A    between atoms: O_6  and  C_22 
REMARK    7  A    between atoms: O_7  and  C_14 
REMARK    8  A    between atoms: O_8  and  C_18 
REMARK    9  A    between atoms: O_9  and  C_19 
REMARK   10  A    between atoms: O_10  and  C_20 
REMARK   11  A    between atoms: C_11  and  C_16 
REMARK   12  A    between atoms: C_22  and  C_23 
REMARK   13  A    between atoms: C_24  and  C_25 
ROOT
HETATM    1  O   UNK     0      32.141  18.742  92.422  0.00  0.00    -0.348 OA
HETATM    2  C   UNK     0      33.223  19.488  92.982  0.00  0.00     0.180 C 
HETATM    3  C   UNK     0      34.375  18.546  93.343  0.00  0.00     0.180 C 
HETATM    4  C   UNK     0      33.897  17.443  94.286  0.00  0.00     0.183 C 
HETATM    5  C   UNK     0      32.628  16.774  93.757  0.00  0.00     0.204 C 
HETATM    6  C   UNK     0      31.584  17.811  93.345  0.00  0.00     0.291 C 
ENDROOT
BRANCH   2   7
HETATM    7  C   UNK     0      33.647  20.530  91.950  0.00  0.00     0.205 C 
BRANCH   7   8
HETATM    8  O   UNK     0      32.710  21.591  91.971  0.00  0.00    -0.356 OA
BRANCH   8   9
HETATM    9  C   UNK     0      32.951  22.528  90.927  0.00  0.00     0.290 C 
HETATM   10  O   UNK     0      32.053  23.642  90.987  0.00  0.00    -0.356 OA
HETATM   11  C   UNK     0      30.694  23.299  90.722  0.00  0.00     0.205 C 
HETATM   12  C   UNK     0      30.552  22.714  89.323  0.00  0.00     0.173 C 
HETATM   13  C   UNK     0      31.447  21.484  89.158  0.00  0.00     0.182 C 
HETATM   14  C   UNK     0      32.886  21.822  89.564  0.00  0.00     0.204 C 
BRANCH  12  15
HETATM   15  O   UNK     0      29.199  22.362  89.068  0.00  0.00    -0.391 OA
HETATM   16  H   UNK     0      29.162  21.954  88.186  0.00  0.00     0.210 HD
ENDBRANCH  12  15
BRANCH  13  17
HETATM   17  O   UNK     0      30.954  20.429  89.981  0.00  0.00    -0.390 OA
HETATM   18  H   UNK     0      30.677  20.822  90.827  0.00  0.00     0.210 HD
ENDBRANCH  13  17
BRANCH  14  19
HETATM   19  O   UNK     0      33.461  22.690  88.589  0.00  0.00    -0.388 OA
HETATM   20  H   UNK     0      33.094  23.581  88.717  0.00  0.00     0.210 HD
ENDBRANCH  14  19
ENDBRANCH   8   9
ENDBRANCH   7   8
ENDBRANCH   2   7
BRANCH   6  21
HETATM   21  O   UNK     0      30.495  17.120  92.735  0.00  0.00    -0.355 OA
BRANCH  21  22
HETATM   22  C   UNK     0      30.409  17.411  91.349  0.00  0.00     0.198 C 
BRANCH  22  23
HETATM   23  C   UNK     0      30.186  16.135  90.602  0.00  0.00     0.000 C 
HETATM   24  C   UNK     0      30.741  14.966  90.959  0.00  0.00     0.009 C 
BRANCH  24  25
HETATM   25  C   UNK     0      30.539  13.683  90.265  0.00  0.00    -0.036 A 
HETATM   26  C   UNK     0      30.663  12.500  90.975  0.00  0.00     0.011 A 
HETATM   27  C   UNK     0      30.471  11.284  90.317  0.00  0.00     0.001 A 
HETATM   28  C   UNK     0      30.157  11.269  88.959  0.00  0.00     0.000 A 
HETATM   29  C   UNK     0      30.035  12.467  88.257  0.00  0.00     0.001 A 
HETATM   30  C   UNK     0      30.226  13.683  88.914  0.00  0.00     0.011 A 
ENDBRANCH  24  25
ENDBRANCH  22  23
ENDBRANCH  21  22
ENDBRANCH   6  21
BRANCH   3  31
HETATM   31  O   UNK     0      35.412  19.292  93.976  0.00  0.00    -0.390 OA
HETATM   32  H   UNK     0      36.173  19.321  93.369  0.00  0.00     0.210 HD
ENDBRANCH   3  31
BRANCH   5  33
HETATM   33  O   UNK     0      32.065  15.953  94.781  0.00  0.00    -0.388 OA
HETATM   34  H   UNK     0      32.675  15.214  94.945  0.00  0.00     0.210 HD
ENDBRANCH   5  33
BRANCH   4  35
HETATM   35  O   UNK     0      34.939  16.471  94.391  0.00  0.00    -0.390 OA
HETATM   36  H   UNK     0      35.601  16.679  93.711  0.00  0.00     0.210 HD
ENDBRANCH   4  35
TORSDOF 13
ENDMDL
MODEL 8
REMARK VINA RESULT:      -8.7      2.874      4.749
REMARK  13 active torsions:
REMARK  status: ('A' for Active; 'I' for Inactive)
REMARK    1  A    between atoms: O_2  and  C_16 
REMARK    2  A    between atoms: O_2  and  C_17 
REMARK    3  A    between atoms: O_4  and  C_12 
REMARK    4  A    between atoms: O_5  and  C_13 
REMARK    5  A    between atoms: O_6  and  C_15 
REMARK    6  A    between atoms: O_6  and  C_22 
REMARK    7  A    between atoms: O_7  and  C_14 
REMARK    8  A    between atoms: O_8  and  C_18 
REMARK    9  A    between atoms: O_9  and  C_19 
REMARK   10  A    between atoms: O_10  and  C_20 
REMARK   11  A    between atoms: C_11  and  C_16 
REMARK   12  A    between atoms: C_22  and  C_23 
REMARK   13  A    between atoms: C_24  and  C_25 
ROOT
HETATM    1  O   UNK     0      32.254  18.757  92.661  0.00  0.00    -0.348 OA
HETATM    2  C   UNK     0      33.317  19.636  93.032  0.00  0.00     0.180 C 
HETATM    3  C   UNK     0      34.581  18.828  93.338  0.00  0.00     0.180 C 
HETATM    4  C   UNK     0      34.306  17.780  94.416  0.00  0.00     0.183 C 
HETATM    5  C   UNK     0      33.054  16.965  94.091  0.00  0.00     0.204 C 
HETATM    6  C   UNK     0      31.883  17.872  93.715  0.00  0.00     0.291 C 
ENDROOT
BRANCH   2   7
HETATM    7  C   UNK     0      33.535  20.609  91.877  0.00  0.00     0.205 C 
BRANCH   7   8
HETATM    8  O   UNK     0      32.418  21.476  91.802  0.00  0.00    -0.356 OA
BRANCH   8   9
HETATM    9  C   UNK     0      32.271  22.038  90.502  0.00  0.00     0.290 C 
HETATM   10  O   UNK     0      33.535  22.239  89.859  0.00  0.00    -0.356 OA
HETATM   11  C   UNK     0      34.346  23.232  90.483  0.00  0.00     0.205 C 
HETATM   12  C   UNK     0      33.644  24.584  90.471  0.00  0.00     0.173 C 
HETATM   13  C   UNK     0      32.287  24.493  91.172  0.00  0.00     0.182 C 
HETATM   14  C   UNK     0      31.465  23.343  90.583  0.00  0.00     0.204 C 
BRANCH  12  15
HETATM   15  O   UNK     0      34.450  25.566  91.105  0.00  0.00    -0.391 OA
HETATM   16  H   UNK     0      33.946  26.399  91.113  0.00  0.00     0.210 HD
ENDBRANCH  12  15
BRANCH  13  17
HETATM   17  O   UNK     0      32.492  24.269  92.566  0.00  0.00    -0.390 OA
HETATM   18  H   UNK     0      33.222  23.633  92.657  0.00  0.00     0.210 HD
ENDBRANCH  13  17
BRANCH  14  19
HETATM   19  O   UNK     0      31.048  23.686  89.263  0.00  0.00    -0.388 OA
HETATM   20  H   UNK     0      31.240  24.628  89.116  0.00  0.00     0.210 HD
ENDBRANCH  14  19
ENDBRANCH   8   9
ENDBRANCH   7   8
ENDBRANCH   2   7
BRANCH   6  21
HETATM   21  O   UNK     0      30.803  17.042  93.290  0.00  0.00    -0.355 OA
BRANCH  21  22
HETATM   22  C   UNK     0      30.750  16.946  91.875  0.00  0.00     0.198 C 
BRANCH  22  23
HETATM   23  C   UNK     0      30.746  15.501  91.491  0.00  0.00     0.000 C 
HETATM   24  C   UNK     0      30.366  15.062  90.282  0.00  0.00     0.009 C 
BRANCH  24  25
HETATM   25  C   UNK     0      30.359  13.652  89.854  0.00  0.00    -0.036 A 
HETATM   26  C   UNK     0      30.139  13.348  88.520  0.00  0.00     0.011 A 
HETATM   27  C   UNK     0      30.132  12.013  88.114  0.00  0.00     0.001 A 
HETATM   28  C   UNK     0      30.347  11.000  89.048  0.00  0.00     0.000 A 
HETATM   29  C   UNK     0      30.568  11.321  90.388  0.00  0.00     0.001 A 
HETATM   30  C   UNK     0      30.574  12.656  90.793  0.00  0.00     0.011 A 
ENDBRANCH  24  25
ENDBRANCH  22  23
ENDBRANCH  21  22
ENDBRANCH   6  21
BRANCH   3  31
HETATM   31  O   UNK     0      35.607  19.709  93.786  0.00  0.00    -0.390 OA
HETATM   32  H   UNK     0      35.541  19.779  94.754  0.00  0.00     0.210 HD
ENDBRANCH   3  31
BRANCH   5  33
HETATM   33  O   UNK     0      32.678  16.199  95.235  0.00  0.00    -0.388 OA
HETATM   34  H   UNK     0      33.380  15.550  95.407  0.00  0.00     0.210 HD
ENDBRANCH   5  33
BRANCH   4  35
HETATM   35  O   UNK     0      35.437  16.909  94.483  0.00  0.00    -0.390 OA
HETATM   36  H   UNK     0      36.049  17.172  93.776  0.00  0.00     0.210 HD
ENDBRANCH   4  35
TORSDOF 13
ENDMDL
MODEL 9
REMARK VINA RESULT:      -8.6     20.088     23.793
REMARK  13 active torsions:
REMARK  status: ('A' for Active; 'I' for Inactive)
REMARK    1  A    between atoms: O_2  and  C_16 
REMARK    2  A    between atoms: O_2  and  C_17 
REMARK    3  A    between atoms: O_4  and  C_12 
REMARK    4  A    between atoms: O_5  and  C_13 
REMARK    5  A    between atoms: O_6  and  C_15 
REMARK    6  A    between atoms: O_6  and  C_22 
REMARK    7  A    between atoms: O_7  and  C_14 
REMARK    8  A    between atoms: O_8  and  C_18 
REMARK    9  A    between atoms: O_9  and  C_19 
REMARK   10  A    between atoms: O_10  and  C_20 
REMARK   11  A    between atoms: C_11  and  C_16 
REMARK   12  A    between atoms: C_22  and  C_23 
REMARK   13  A    between atoms: C_24  and  C_25 
ROOT
HETATM    1  O   UNK     0      19.036  33.082 102.043  0.00  0.00    -0.348 OA
HETATM    2  C   UNK     0      19.663  32.150 102.925  0.00  0.00     0.180 C 
HETATM    3  C   UNK     0      19.274  32.459 104.374  0.00  0.00     0.180 C 
HETATM    4  C   UNK     0      19.621  33.903 104.732  0.00  0.00     0.183 C 
HETATM    5  C   UNK     0      19.095  34.877 103.676  0.00  0.00     0.204 C 
HETATM    6  C   UNK     0      19.467  34.421 102.266  0.00  0.00     0.291 C 
ENDROOT
BRANCH   2   7
HETATM    7  C   UNK     0      19.221  30.750 102.508  0.00  0.00     0.205 C 
BRANCH   7   8
HETATM    8  O   UNK     0      20.337  29.883 102.591  0.00  0.00    -0.356 OA
BRANCH   8   9
HETATM    9  C   UNK     0      20.164  28.896 103.603  0.00  0.00     0.290 C 
HETATM   10  O   UNK     0      21.344  28.106 103.789  0.00  0.00    -0.356 OA
HETATM   11  C   UNK     0      21.665  27.281 102.672  0.00  0.00     0.205 C 
HETATM   12  C   UNK     0      20.537  26.298 102.388  0.00  0.00     0.173 C 
HETATM   13  C   UNK     0      19.224  27.042 102.134  0.00  0.00     0.182 C 
HETATM   14  C   UNK     0      18.944  28.022 103.278  0.00  0.00     0.204 C 
BRANCH  12  15
HETATM   15  O   UNK     0      20.856  25.488 101.266  0.00  0.00    -0.391 OA
HETATM   16  H   UNK     0      21.606  25.904 100.806  0.00  0.00     0.210 HD
ENDBRANCH  12  15
BRANCH  13  17
HETATM   17  O   UNK     0      19.320  27.759 100.904  0.00  0.00    -0.390 OA
HETATM   18  H   UNK     0      19.627  27.135 100.224  0.00  0.00     0.210 HD
ENDBRANCH  13  17
BRANCH  14  19
HETATM   19  O   UNK     0      18.600  27.290 104.453  0.00  0.00    -0.388 OA
HETATM   20  H   UNK     0      17.982  26.583 104.205  0.00  0.00     0.210 HD
ENDBRANCH  14  19
ENDBRANCH   8   9
ENDBRANCH   7   8
ENDBRANCH   2   7
BRANCH   6  21
HETATM   21  O   UNK     0      18.825  35.295 101.338  0.00  0.00    -0.355 OA
BRANCH  21  22
HETATM   22  C   UNK     0      19.773  36.035 100.585  0.00  0.00     0.198 C 
BRANCH  22  23
HETATM   23  C   UNK     0      19.126  37.294 100.102  0.00  0.00     0.000 C 
HETATM   24  C   UNK     0      17.932  37.722 100.538  0.00  0.00     0.009 C 
BRANCH  24  25
HETATM   25  C   UNK     0      17.263  38.961 100.104  0.00  0.00    -0.036 A 
HETATM   26  C   UNK     0      16.124  38.879  99.319  0.00  0.00     0.011 A 
HETATM   27  C   UNK     0      15.491  40.052  98.907  0.00  0.00     0.001 A 
HETATM   28  C   UNK     0      16.005  41.291  99.288  0.00  0.00     0.000 A 
HETATM   29  C   UNK     0      17.151  41.359 100.079  0.00  0.00     0.001 A 
HETATM   30  C   UNK     0      17.785  40.186 100.490  0.00  0.00     0.011 A 
ENDBRANCH  24  25
ENDBRANCH  22  23
ENDBRANCH  21  22
ENDBRANCH   6  21
BRANCH   3  31
HETATM   31  O   UNK     0      19.972  31.575 105.248  0.00  0.00    -0.390 OA
HETATM   32  H   UNK     0      20.152  32.053 106.076  0.00  0.00     0.210 HD
ENDBRANCH   3  31
BRANCH   5  33
HETATM   33  O   UNK     0      19.667  36.167 103.896  0.00  0.00    -0.388 OA
HETATM   34  H   UNK     0      18.941  36.798 104.037  0.00  0.00     0.210 HD
ENDBRANCH   5  33
BRANCH   4  35
HETATM   35  O   UNK     0      19.022  34.201 105.994  0.00  0.00    -0.390 OA
HETATM   36  H   UNK     0      18.628  33.378 106.330  0.00  0.00     0.210 HD
ENDBRANCH   4  35
TORSDOF 13
ENDMDL
