MODEL 1
REMARK VINA RESULT:      -9.9      0.000      0.000
REMARK  11 active torsions:
REMARK  status: ('A' for Active; 'I' for Inactive)
REMARK    1  A    between atoms: O_1  and  C_9 
REMARK    2  A    between atoms: O_2  and  C_19 
REMARK    3  A    between atoms: O_3  and  C_26 
REMARK    4  A    between atoms: O_4  and  C_27 
REMARK    5  A    between atoms: O_6  and  C_28 
REMARK    6  A    between atoms: O_7  and  C_32 
REMARK    7  A    between atoms: C_10  and  C_19 
REMARK    8  A    between atoms: C_19  and  C_27 
REMARK    9  A    between atoms: C_27  and  C_30 
REMARK   10  A    between atoms: C_30  and  C_31 
REMARK   11  A    between atoms: C_31  and  C_32 
ROOT
HETATM    1  O   UNK     0     185.933 176.350 181.096  0.00  0.00    -0.384 OA
HETATM    2  H   UNK     0     186.072 177.298 181.266  0.00  0.00     0.211 HD
ENDROOT
BRANCH   1   3
HETATM    3  C   UNK     0     185.805 176.171 179.667  0.00  0.00     0.089 C 
HETATM    4  C   UNK     0     185.269 177.480 179.031  0.00  0.00    -0.002 C 
HETATM    5  C   UNK     0     183.861 177.559 179.676  0.00  0.00     0.034 C 
HETATM    6  C   UNK     0     186.203 178.637 179.429  0.00  0.00     0.014 C 
HETATM    7  C   UNK     0     185.164 177.402 177.484  0.00  0.00     0.019 C 
HETATM    8  C   UNK     0     183.370 176.093 179.669  0.00  0.00     0.012 C 
HETATM    9  C   UNK     0     184.622 175.209 179.477  0.00  0.00     0.044 C 
HETATM   10  C   UNK     0     187.641 178.374 178.952  0.00  0.00     0.011 C 
HETATM   11  C   UNK     0     188.218 176.974 179.327  0.00  0.00     0.027 C 
HETATM   12  C   UNK     0     189.593 176.679 178.607  0.00  0.00    -0.023 C 
HETATM   13  C   UNK     0     187.196 175.837 179.172  0.00  0.00    -0.037 C 
HETATM   14  C   UNK     0     190.019 175.205 178.857  0.00  0.00     0.071 C 
HETATM   15  C   UNK     0     190.723 177.614 179.125  0.00  0.00     0.044 C 
HETATM   16  C   UNK     0     189.492 176.896 177.073  0.00  0.00     0.016 C 
HETATM   17  C   UNK     0     190.440 174.925 180.311  0.00  0.00     0.047 C 
HETATM   18  C   UNK     0     188.920 174.240 178.455  0.00  0.00     0.154 C 
HETATM   19  C   UNK     0     191.549 175.870 180.770  0.00  0.00     0.147 C 
HETATM   20  C   UNK     0     191.141 177.330 180.571  0.00  0.00     0.147 C 
HETATM   21  O   UNK     0     189.173 173.137 177.974  0.00  0.00    -0.293 OA
HETATM   22  C   UNK     0     187.513 174.611 178.728  0.00  0.00     0.057 C 
BRANCH   5  23
HETATM   23  C   UNK     0     182.869 178.517 179.029  0.00  0.00     0.084 C 
HETATM   24  C   UNK     0     181.778 178.901 180.043  0.00  0.00     0.049 C 
BRANCH  23  25
HETATM   25  O   UNK     0     183.565 179.719 178.674  0.00  0.00    -0.387 OA
HETATM   26  H   UNK     0     184.515 179.593 178.836  0.00  0.00     0.210 HD
ENDBRANCH  23  25
BRANCH  23  27
HETATM   27  C   UNK     0     182.236 177.925 177.740  0.00  0.00     0.152 C 
BRANCH  27  28
HETATM   28  O   UNK     0     182.164 178.939 176.732  0.00  0.00    -0.393 OA
HETATM   29  H   UNK     0     182.182 178.492 175.868  0.00  0.00     0.210 HD
ENDBRANCH  27  28
BRANCH  27  30
HETATM   30  C   UNK     0     180.825 177.340 177.940  0.00  0.00     0.037 C 
BRANCH  30  31
HETATM   31  C   UNK     0     179.784 178.018 177.030  0.00  0.00     0.040 C 
BRANCH  31  32
HETATM   32  C   UNK     0     178.338 177.518 177.228  0.00  0.00     0.051 C 
HETATM   33  C   UNK     0     178.139 177.094 178.688  0.00  0.00     0.045 C 
HETATM   34  C   UNK     0     177.296 178.570 176.845  0.00  0.00     0.045 C 
BRANCH  32  35
HETATM   35  O   UNK     0     178.143 176.366 176.406  0.00  0.00    -0.391 OA
HETATM   36  H   UNK     0     177.486 175.797 176.840  0.00  0.00     0.210 HD
ENDBRANCH  32  35
ENDBRANCH  31  32
ENDBRANCH  30  31
ENDBRANCH  27  30
ENDBRANCH  23  27
ENDBRANCH   5  23
BRANCH  19  37
HETATM   37  O   UNK     0     192.733 175.605 180.015  0.00  0.00    -0.393 OA
HETATM   38  H   UNK     0     193.492 175.898 180.547  0.00  0.00     0.210 HD
ENDBRANCH  19  37
BRANCH  20  39
HETATM   39  O   UNK     0     192.237 178.170 180.926  0.00  0.00    -0.393 OA
HETATM   40  H   UNK     0     192.454 177.990 181.857  0.00  0.00     0.210 HD
ENDBRANCH  20  39
ENDBRANCH   1   3
TORSDOF 11
ENDMDL
MODEL 2
REMARK VINA RESULT:      -9.6      2.064      9.426
REMARK  11 active torsions:
REMARK  status: ('A' for Active; 'I' for Inactive)
REMARK    1  A    between atoms: O_1  and  C_9 
REMARK    2  A    between atoms: O_2  and  C_19 
REMARK    3  A    between atoms: O_3  and  C_26 
REMARK    4  A    between atoms: O_4  and  C_27 
REMARK    5  A    between atoms: O_6  and  C_28 
REMARK    6  A    between atoms: O_7  and  C_32 
REMARK    7  A    between atoms: C_10  and  C_19 
REMARK    8  A    between atoms: C_19  and  C_27 
REMARK    9  A    between atoms: C_27  and  C_30 
REMARK   10  A    between atoms: C_30  and  C_31 
REMARK   11  A    between atoms: C_31  and  C_32 
ROOT
HETATM    1  O   UNK     0     183.106 179.416 179.012  0.00  0.00    -0.384 OA
HETATM    2  H   UNK     0     183.408 179.932 178.245  0.00  0.00     0.211 HD
ENDROOT
BRANCH   1   3
HETATM    3  C   UNK     0     183.227 178.015 178.678  0.00  0.00     0.089 C 
HETATM    4  C   UNK     0     184.116 177.308 179.734  0.00  0.00    -0.002 C 
HETATM    5  C   UNK     0     185.471 178.021 179.495  0.00  0.00     0.034 C 
HETATM    6  C   UNK     0     183.516 177.562 181.129  0.00  0.00     0.014 C 
HETATM    7  C   UNK     0     184.244 175.779 179.491  0.00  0.00     0.019 C 
HETATM    8  C   UNK     0     185.549 178.155 177.957  0.00  0.00     0.012 C 
HETATM    9  C   UNK     0     184.112 177.966 177.423  0.00  0.00     0.044 C 
HETATM   10  C   UNK     0     182.076 177.029 181.215  0.00  0.00     0.011 C 
HETATM   11  C   UNK     0     181.131 177.480 180.059  0.00  0.00     0.027 C 
HETATM   12  C   UNK     0     179.751 176.712 180.075  0.00  0.00    -0.023 C 
HETATM   13  C   UNK     0     181.814 177.471 178.682  0.00  0.00    -0.037 C 
HETATM   14  C   UNK     0     178.936 177.054 178.797  0.00  0.00     0.071 C 
HETATM   15  C   UNK     0     178.899 177.092 181.320  0.00  0.00     0.044 C 
HETATM   16  C   UNK     0     179.955 175.173 180.119  0.00  0.00     0.016 C 
HETATM   17  C   UNK     0     178.410 178.499 178.771  0.00  0.00     0.047 C 
HETATM   18  C   UNK     0     179.747 176.789 177.543  0.00  0.00     0.154 C 
HETATM   19  C   UNK     0     177.582 178.822 180.014  0.00  0.00     0.147 C 
HETATM   20  C   UNK     0     178.375 178.532 181.289  0.00  0.00     0.147 C 
HETATM   21  O   UNK     0     179.222 176.383 176.507  0.00  0.00    -0.293 OA
HETATM   22  C   UNK     0     181.192 177.109 177.550  0.00  0.00     0.057 C 
BRANCH   5  23
HETATM   23  C   UNK     0     186.705 177.356 180.092  0.00  0.00     0.084 C 
HETATM   24  C   UNK     0     187.655 178.427 180.653  0.00  0.00     0.049 C 
BRANCH  23  25
HETATM   25  O   UNK     0     186.290 176.534 181.191  0.00  0.00    -0.387 OA
HETATM   26  H   UNK     0     186.469 177.005 182.022  0.00  0.00     0.210 HD
ENDBRANCH  23  25
BRANCH  23  27
HETATM   27  C   UNK     0     187.442 176.454 179.065  0.00  0.00     0.152 C 
BRANCH  27  28
HETATM   28  O   UNK     0     187.563 175.128 179.590  0.00  0.00    -0.393 OA
HETATM   29  H   UNK     0     187.785 175.209 180.535  0.00  0.00     0.210 HD
ENDBRANCH  27  28
BRANCH  27  30
HETATM   30  C   UNK     0     188.848 176.953 178.679  0.00  0.00     0.037 C 
BRANCH  30  31
HETATM   31  C   UNK     0     189.605 175.931 177.810  0.00  0.00     0.040 C 
BRANCH  31  32
HETATM   32  C   UNK     0     191.022 175.587 178.314  0.00  0.00     0.051 C 
HETATM   33  C   UNK     0     191.759 176.877 178.690  0.00  0.00     0.045 C 
HETATM   34  C   UNK     0     191.004 174.631 179.508  0.00  0.00     0.045 C 
BRANCH  32  35
HETATM   35  O   UNK     0     191.741 174.966 177.247  0.00  0.00    -0.391 OA
HETATM   36  H   UNK     0     192.466 175.561 176.989  0.00  0.00     0.210 HD
ENDBRANCH  32  35
ENDBRANCH  31  32
ENDBRANCH  30  31
ENDBRANCH  27  30
ENDBRANCH  23  27
ENDBRANCH   5  23
BRANCH  19  37
HETATM   37  O   UNK     0     176.395 178.026 180.006  0.00  0.00    -0.393 OA
HETATM   38  H   UNK     0     175.972 178.123 180.875  0.00  0.00     0.210 HD
ENDBRANCH  19  37
BRANCH  20  39
HETATM   39  O   UNK     0     177.535 178.759 182.419  0.00  0.00    -0.393 OA
HETATM   40  H   UNK     0     176.827 178.093 182.396  0.00  0.00     0.210 HD
ENDBRANCH  20  39
ENDBRANCH   1   3
TORSDOF 11
ENDMDL
MODEL 3
REMARK VINA RESULT:      -9.0      2.070      3.512
REMARK  11 active torsions:
REMARK  status: ('A' for Active; 'I' for Inactive)
REMARK    1  A    between atoms: O_1  and  C_9 
REMARK    2  A    between atoms: O_2  and  C_19 
REMARK    3  A    between atoms: O_3  and  C_26 
REMARK    4  A    between atoms: O_4  and  C_27 
REMARK    5  A    between atoms: O_6  and  C_28 
REMARK    6  A    between atoms: O_7  and  C_32 
REMARK    7  A    between atoms: C_10  and  C_19 
REMARK    8  A    between atoms: C_19  and  C_27 
REMARK    9  A    between atoms: C_27  and  C_30 
REMARK   10  A    between atoms: C_30  and  C_31 
REMARK   11  A    between atoms: C_31  and  C_32 
ROOT
HETATM    1  O   UNK     0     184.416 176.255 178.359  0.00  0.00    -0.384 OA
HETATM    2  H   UNK     0     184.882 175.423 178.554  0.00  0.00     0.211 HD
ENDROOT
BRANCH   1   3
HETATM    3  C   UNK     0     184.995 177.290 179.185  0.00  0.00     0.089 C 
HETATM    4  C   UNK     0     184.459 177.154 180.634  0.00  0.00    -0.002 C 
HETATM    5  C   UNK     0     182.952 177.444 180.413  0.00  0.00     0.034 C 
HETATM    6  C   UNK     0     184.752 175.727 181.132  0.00  0.00     0.014 C 
HETATM    7  C   UNK     0     185.083 178.187 181.610  0.00  0.00     0.019 C 
HETATM    8  C   UNK     0     182.947 178.594 179.380  0.00  0.00     0.012 C 
HETATM    9  C   UNK     0     184.343 178.602 178.720  0.00  0.00     0.044 C 
HETATM   10  C   UNK     0     186.261 175.432 181.103  0.00  0.00     0.011 C 
HETATM   11  C   UNK     0     186.975 175.760 179.755  0.00  0.00     0.027 C 
HETATM   12  C   UNK     0     188.547 175.663 179.869  0.00  0.00    -0.023 C 
HETATM   13  C   UNK     0     186.492 177.073 179.120  0.00  0.00    -0.037 C 
HETATM   14  C   UNK     0     189.208 176.190 178.564  0.00  0.00     0.071 C 
HETATM   15  C   UNK     0     189.015 174.198 180.103  0.00  0.00     0.044 C 
HETATM   16  C   UNK     0     189.087 176.506 181.056  0.00  0.00     0.016 C 
HETATM   17  C   UNK     0     188.994 175.268 177.351  0.00  0.00     0.047 C 
HETATM   18  C   UNK     0     188.723 177.587 178.229  0.00  0.00     0.154 C 
HETATM   19  C   UNK     0     189.468 173.843 177.633  0.00  0.00     0.147 C 
HETATM   20  C   UNK     0     188.803 173.284 178.891  0.00  0.00     0.147 C 
HETATM   21  O   UNK     0     189.461 178.418 177.701  0.00  0.00    -0.293 OA
HETATM   22  C   UNK     0     187.302 177.923 178.470  0.00  0.00     0.057 C 
BRANCH   5  23
HETATM   23  C   UNK     0     182.131 177.763 181.656  0.00  0.00     0.084 C 
HETATM   24  C   UNK     0     182.255 176.615 182.671  0.00  0.00     0.049 C 
BRANCH  23  25
HETATM   25  O   UNK     0     182.675 178.938 182.269  0.00  0.00    -0.387 OA
HETATM   26  H   UNK     0     183.457 178.689 182.789  0.00  0.00     0.210 HD
ENDBRANCH  23  25
BRANCH  23  27
HETATM   27  C   UNK     0     180.640 178.038 181.319  0.00  0.00     0.152 C 
BRANCH  27  28
HETATM   28  O   UNK     0     179.896 178.198 182.532  0.00  0.00    -0.393 OA
HETATM   29  H   UNK     0     179.242 177.478 182.569  0.00  0.00     0.210 HD
ENDBRANCH  27  28
BRANCH  27  30
HETATM   30  C   UNK     0     179.966 176.935 180.480  0.00  0.00     0.037 C 
BRANCH  30  31
HETATM   31  C   UNK     0     179.015 177.518 179.418  0.00  0.00     0.040 C 
BRANCH  31  32
HETATM   32  C   UNK     0     179.288 177.031 177.979  0.00  0.00     0.051 C 
HETATM   33  C   UNK     0     179.931 178.162 177.169  0.00  0.00     0.045 C 
HETATM   34  C   UNK     0     180.180 175.788 177.939  0.00  0.00     0.045 C 
BRANCH  32  35
HETATM   35  O   UNK     0     178.036 176.711 177.368  0.00  0.00    -0.391 OA
HETATM   36  H   UNK     0     177.695 177.518 176.947  0.00  0.00     0.210 HD
ENDBRANCH  32  35
ENDBRANCH  31  32
ENDBRANCH  30  31
ENDBRANCH  27  30
ENDBRANCH  23  27
ENDBRANCH   5  23
BRANCH  19  37
HETATM   37  O   UNK     0     190.886 173.847 177.812  0.00  0.00    -0.393 OA
HETATM   38  H   UNK     0     191.061 173.807 178.768  0.00  0.00     0.210 HD
ENDBRANCH  19  37
BRANCH  20  39
HETATM   39  O   UNK     0     189.341 171.993 179.167  0.00  0.00    -0.393 OA
HETATM   40  H   UNK     0     189.651 171.996 180.088  0.00  0.00     0.210 HD
ENDBRANCH  20  39
ENDBRANCH   1   3
TORSDOF 11
ENDMDL
MODEL 4
REMARK VINA RESULT:      -9.0     26.230     31.844
REMARK  11 active torsions:
REMARK  status: ('A' for Active; 'I' for Inactive)
REMARK    1  A    between atoms: O_1  and  C_9 
REMARK    2  A    between atoms: O_2  and  C_19 
REMARK    3  A    between atoms: O_3  and  C_26 
REMARK    4  A    between atoms: O_4  and  C_27 
REMARK    5  A    between atoms: O_6  and  C_28 
REMARK    6  A    between atoms: O_7  and  C_32 
REMARK    7  A    between atoms: C_10  and  C_19 
REMARK    8  A    between atoms: C_19  and  C_27 
REMARK    9  A    between atoms: C_27  and  C_30 
REMARK   10  A    between atoms: C_30  and  C_31 
REMARK   11  A    between atoms: C_31  and  C_32 
ROOT
HETATM    1  O   UNK     0     162.297 184.717 160.546  0.00  0.00    -0.384 OA
HETATM    2  H   UNK     0     162.974 184.295 161.102  0.00  0.00     0.211 HD
ENDROOT
BRANCH   1   3
HETATM    3  C   UNK     0     162.603 186.128 160.471  0.00  0.00     0.089 C 
HETATM    4  C   UNK     0     161.282 186.940 160.420  0.00  0.00    -0.002 C 
HETATM    5  C   UNK     0     160.700 186.459 159.066  0.00  0.00     0.034 C 
HETATM    6  C   UNK     0     160.424 186.556 161.639  0.00  0.00     0.014 C 
HETATM    7  C   UNK     0     161.515 188.475 160.409  0.00  0.00     0.019 C 
HETATM    8  C   UNK     0     161.937 186.380 158.142  0.00  0.00     0.012 C 
HETATM    9  C   UNK     0     163.176 186.352 159.063  0.00  0.00     0.044 C 
HETATM   10  C   UNK     0     161.168 186.849 162.952  0.00  0.00     0.011 C 
HETATM   11  C   UNK     0     162.619 186.283 163.033  0.00  0.00     0.027 C 
HETATM   12  C   UNK     0     163.405 186.820 164.293  0.00  0.00    -0.023 C 
HETATM   13  C   UNK     0     163.402 186.438 161.719  0.00  0.00    -0.037 C 
HETATM   14  C   UNK     0     164.896 186.387 164.216  0.00  0.00     0.071 C 
HETATM   15  C   UNK     0     162.801 186.276 165.619  0.00  0.00     0.044 C 
HETATM   16  C   UNK     0     163.358 188.370 164.377  0.00  0.00     0.016 C 
HETATM   17  C   UNK     0     165.108 184.877 164.422  0.00  0.00     0.047 C 
HETATM   18  C   UNK     0     165.523 186.812 162.902  0.00  0.00     0.154 C 
HETATM   19  C   UNK     0     164.496 184.393 165.735  0.00  0.00     0.147 C 
HETATM   20  C   UNK     0     163.017 184.772 165.821  0.00  0.00     0.147 C 
HETATM   21  O   UNK     0     166.702 187.156 162.830  0.00  0.00    -0.293 OA
HETATM   22  C   UNK     0     164.711 186.727 161.667  0.00  0.00     0.057 C 
BRANCH   5  23
HETATM   23  C   UNK     0     159.573 187.297 158.474  0.00  0.00     0.084 C 
HETATM   24  C   UNK     0     160.109 188.681 158.071  0.00  0.00     0.049 C 
BRANCH  23  25
HETATM   25  O   UNK     0     159.110 186.653 157.280  0.00  0.00    -0.387 OA
HETATM   26  H   UNK     0     159.336 187.208 156.515  0.00  0.00     0.210 HD
ENDBRANCH  23  25
BRANCH  23  27
HETATM   27  C   UNK     0     158.371 187.436 159.447  0.00  0.00     0.152 C 
BRANCH  27  28
HETATM   28  O   UNK     0     157.707 186.175 159.572  0.00  0.00    -0.393 OA
HETATM   29  H   UNK     0     157.703 185.760 158.691  0.00  0.00     0.210 HD
ENDBRANCH  27  28
BRANCH  27  30
HETATM   30  C   UNK     0     157.332 188.491 159.022  0.00  0.00     0.037 C 
BRANCH  30  31
HETATM   31  C   UNK     0     155.964 187.859 158.705  0.00  0.00     0.040 C 
BRANCH  31  32
HETATM   32  C   UNK     0     155.693 187.641 157.202  0.00  0.00     0.051 C 
HETATM   33  C   UNK     0     154.181 187.622 156.951  0.00  0.00     0.045 C 
HETATM   34  C   UNK     0     156.353 188.707 156.325  0.00  0.00     0.045 C 
BRANCH  32  35
HETATM   35  O   UNK     0     156.215 186.363 156.832  0.00  0.00    -0.391 OA
HETATM   36  H   UNK     0     156.029 185.743 157.557  0.00  0.00     0.210 HD
ENDBRANCH  32  35
ENDBRANCH  31  32
ENDBRANCH  30  31
ENDBRANCH  27  30
ENDBRANCH  23  27
ENDBRANCH   5  23
BRANCH  19  37
HETATM   37  O   UNK     0     165.199 184.989 166.827  0.00  0.00    -0.393 OA
HETATM   38  H   UNK     0     165.993 184.453 166.991  0.00  0.00     0.210 HD
ENDBRANCH  19  37
BRANCH  20  39
HETATM   39  O   UNK     0     162.512 184.384 167.096  0.00  0.00    -0.393 OA
HETATM   40  H   UNK     0     162.894 183.515 167.310  0.00  0.00     0.210 HD
ENDBRANCH  20  39
ENDBRANCH   1   3
TORSDOF 11
ENDMDL
MODEL 5
REMARK VINA RESULT:      -9.0      2.561      4.239
REMARK  11 active torsions:
REMARK  status: ('A' for Active; 'I' for Inactive)
REMARK    1  A    between atoms: O_1  and  C_9 
REMARK    2  A    between atoms: O_2  and  C_19 
REMARK    3  A    between atoms: O_3  and  C_26 
REMARK    4  A    between atoms: O_4  and  C_27 
REMARK    5  A    between atoms: O_6  and  C_28 
REMARK    6  A    between atoms: O_7  and  C_32 
REMARK    7  A    between atoms: C_10  and  C_19 
REMARK    8  A    between atoms: C_19  and  C_27 
REMARK    9  A    between atoms: C_27  and  C_30 
REMARK   10  A    between atoms: C_30  and  C_31 
REMARK   11  A    between atoms: C_31  and  C_32 
ROOT
HETATM    1  O   UNK     0     183.204 176.059 178.842  0.00  0.00    -0.384 OA
HETATM    2  H   UNK     0     182.673 175.415 179.342  0.00  0.00     0.211 HD
ENDROOT
BRANCH   1   3
HETATM    3  C   UNK     0     183.279 177.273 179.625  0.00  0.00     0.089 C 
HETATM    4  C   UNK     0     182.618 177.035 181.007  0.00  0.00    -0.002 C 
HETATM    5  C   UNK     0     181.149 176.776 180.585  0.00  0.00     0.034 C 
HETATM    6  C   UNK     0     183.297 175.826 181.674  0.00  0.00     0.014 C 
HETATM    7  C   UNK     0     182.714 178.270 181.944  0.00  0.00     0.019 C 
HETATM    8  C   UNK     0     180.907 177.798 179.451  0.00  0.00     0.012 C 
HETATM    9  C   UNK     0     182.299 178.252 178.960  0.00  0.00     0.044 C 
HETATM   10  C   UNK     0     184.805 176.068 181.850  0.00  0.00     0.011 C 
HETATM   11  C   UNK     0     185.553 176.551 180.569  0.00  0.00     0.027 C 
HETATM   12  C   UNK     0     187.034 177.009 180.874  0.00  0.00    -0.023 C 
HETATM   13  C   UNK     0     184.755 177.582 179.756  0.00  0.00    -0.037 C 
HETATM   14  C   UNK     0     187.660 177.662 179.610  0.00  0.00     0.071 C 
HETATM   15  C   UNK     0     187.927 175.810 181.304  0.00  0.00     0.044 C 
HETATM   16  C   UNK     0     187.084 178.047 182.028  0.00  0.00     0.016 C 
HETATM   17  C   UNK     0     187.943 176.661 178.477  0.00  0.00     0.047 C 
HETATM   18  C   UNK     0     186.789 178.787 179.085  0.00  0.00     0.154 C 
HETATM   19  C   UNK     0     188.821 175.504 178.951  0.00  0.00     0.147 C 
HETATM   20  C   UNK     0     188.208 174.816 180.172  0.00  0.00     0.147 C 
HETATM   21  O   UNK     0     187.273 179.792 178.568  0.00  0.00    -0.293 OA
HETATM   22  C   UNK     0     185.318 178.624 179.125  0.00  0.00     0.057 C 
BRANCH   5  23
HETATM   23  C   UNK     0     180.099 176.856 181.686  0.00  0.00     0.084 C 
HETATM   24  C   UNK     0     180.634 176.192 182.966  0.00  0.00     0.049 C 
BRANCH  23  25
HETATM   25  O   UNK     0     179.864 178.238 181.988  0.00  0.00    -0.387 OA
HETATM   26  H   UNK     0     179.722 178.722 181.157  0.00  0.00     0.210 HD
ENDBRANCH  23  25
BRANCH  23  27
HETATM   27  C   UNK     0     178.750 176.218 181.259  0.00  0.00     0.152 C 
BRANCH  27  28
HETATM   28  O   UNK     0     178.090 175.677 182.408  0.00  0.00    -0.393 OA
HETATM   29  H   UNK     0     177.905 176.417 183.013  0.00  0.00     0.210 HD
ENDBRANCH  27  28
BRANCH  27  30
HETATM   30  C   UNK     0     178.884 175.100 180.207  0.00  0.00     0.037 C 
BRANCH  30  31
HETATM   31  C   UNK     0     177.951 175.326 179.002  0.00  0.00     0.040 C 
BRANCH  31  32
HETATM   32  C   UNK     0     178.607 175.075 177.629  0.00  0.00     0.051 C 
HETATM   33  C   UNK     0     178.745 176.403 176.876  0.00  0.00     0.045 C 
HETATM   34  C   UNK     0     179.975 174.399 177.746  0.00  0.00     0.045 C 
BRANCH  32  35
HETATM   35  O   UNK     0     177.746 174.227 176.867  0.00  0.00    -0.391 OA
HETATM   36  H   UNK     0     178.246 173.908 176.097  0.00  0.00     0.210 HD
ENDBRANCH  32  35
ENDBRANCH  31  32
ENDBRANCH  30  31
ENDBRANCH  27  30
ENDBRANCH  23  27
ENDBRANCH   5  23
BRANCH  19  37
HETATM   37  O   UNK     0     190.114 176.006 179.293  0.00  0.00    -0.393 OA
HETATM   38  H   UNK     0     190.701 175.242 179.424  0.00  0.00     0.210 HD
ENDBRANCH  19  37
BRANCH  20  39
HETATM   39  O   UNK     0     189.103 173.806 180.633  0.00  0.00    -0.393 OA
HETATM   40  H   UNK     0     188.719 172.945 180.393  0.00  0.00     0.210 HD
ENDBRANCH  20  39
ENDBRANCH   1   3
TORSDOF 11
ENDMDL
MODEL 6
REMARK VINA RESULT:      -8.8      2.778      4.407
REMARK  11 active torsions:
REMARK  status: ('A' for Active; 'I' for Inactive)
REMARK    1  A    between atoms: O_1  and  C_9 
REMARK    2  A    between atoms: O_2  and  C_19 
REMARK    3  A    between atoms: O_3  and  C_26 
REMARK    4  A    between atoms: O_4  and  C_27 
REMARK    5  A    between atoms: O_6  and  C_28 
REMARK    6  A    between atoms: O_7  and  C_32 
REMARK    7  A    between atoms: C_10  and  C_19 
REMARK    8  A    between atoms: C_19  and  C_27 
REMARK    9  A    between atoms: C_27  and  C_30 
REMARK   10  A    between atoms: C_30  and  C_31 
REMARK   11  A    between atoms: C_31  and  C_32 
ROOT
HETATM    1  O   UNK     0     183.356 178.740 182.803  0.00  0.00    -0.384 OA
HETATM    2  H   UNK     0     184.280 178.941 182.571  0.00  0.00     0.211 HD
ENDROOT
BRANCH   1   3
HETATM    3  C   UNK     0     183.121 177.344 182.510  0.00  0.00     0.089 C 
HETATM    4  C   UNK     0     181.845 177.209 181.639  0.00  0.00    -0.002 C 
HETATM    5  C   UNK     0     180.766 177.726 182.625  0.00  0.00     0.034 C 
HETATM    6  C   UNK     0     182.012 178.086 180.385  0.00  0.00     0.014 C 
HETATM    7  C   UNK     0     181.552 175.744 181.217  0.00  0.00     0.019 C 
HETATM    8  C   UNK     0     181.194 177.128 183.985  0.00  0.00     0.012 C 
HETATM    9  C   UNK     0     182.675 176.714 183.839  0.00  0.00     0.044 C 
HETATM   10  C   UNK     0     183.247 177.657 179.574  0.00  0.00     0.011 C 
HETATM   11  C   UNK     0     184.565 177.520 180.396  0.00  0.00     0.027 C 
HETATM   12  C   UNK     0     185.727 176.851 179.562  0.00  0.00    -0.023 C 
HETATM   13  C   UNK     0     184.354 176.869 181.772  0.00  0.00    -0.037 C 
HETATM   14  C   UNK     0     186.945 176.559 180.483  0.00  0.00     0.071 C 
HETATM   15  C   UNK     0     186.198 177.769 178.398  0.00  0.00     0.044 C 
HETATM   16  C   UNK     0     185.273 175.509 178.925  0.00  0.00     0.016 C 
HETATM   17  C   UNK     0     187.680 177.827 180.951  0.00  0.00     0.047 C 
HETATM   18  C   UNK     0     186.534 175.738 181.691  0.00  0.00     0.154 C 
HETATM   19  C   UNK     0     188.119 178.693 179.772  0.00  0.00     0.147 C 
HETATM   20  C   UNK     0     186.932 179.030 178.868  0.00  0.00     0.147 C 
HETATM   21  O   UNK     0     187.283 174.897 182.186  0.00  0.00    -0.293 OA
HETATM   22  C   UNK     0     185.231 176.022 182.332  0.00  0.00     0.057 C 
BRANCH   5  23
HETATM   23  C   UNK     0     179.316 177.413 182.274  0.00  0.00     0.084 C 
HETATM   24  C   UNK     0     179.032 175.921 182.515  0.00  0.00     0.049 C 
BRANCH  23  25
HETATM   25  O   UNK     0     178.466 178.159 183.155  0.00  0.00    -0.387 OA
HETATM   26  H   UNK     0     178.776 178.041 184.067  0.00  0.00     0.210 HD
ENDBRANCH  23  25
BRANCH  23  27
HETATM   27  C   UNK     0     178.968 177.809 180.813  0.00  0.00     0.152 C 
BRANCH  27  28
HETATM   28  O   UNK     0     178.033 178.893 180.821  0.00  0.00    -0.393 OA
HETATM   29  H   UNK     0     178.160 179.381 181.653  0.00  0.00     0.210 HD
ENDBRANCH  27  28
BRANCH  27  30
HETATM   30  C   UNK     0     178.375 176.663 179.971  0.00  0.00     0.037 C 
BRANCH  30  31
HETATM   31  C   UNK     0     177.899 177.149 178.589  0.00  0.00     0.040 C 
BRANCH  31  32
HETATM   32  C   UNK     0     178.877 176.848 177.434  0.00  0.00     0.051 C 
HETATM   33  C   UNK     0     179.674 178.113 177.095  0.00  0.00     0.045 C 
HETATM   34  C   UNK     0     179.836 175.701 177.760  0.00  0.00     0.045 C 
BRANCH  32  35
HETATM   35  O   UNK     0     178.114 176.488 176.281  0.00  0.00    -0.391 OA
HETATM   36  H   UNK     0     177.392 177.131 176.188  0.00  0.00     0.210 HD
ENDBRANCH  32  35
ENDBRANCH  31  32
ENDBRANCH  30  31
ENDBRANCH  27  30
ENDBRANCH  23  27
ENDBRANCH   5  23
BRANCH  19  37
HETATM   37  O   UNK     0     189.104 177.988 179.014  0.00  0.00    -0.393 OA
HETATM   38  H   UNK     0     189.408 178.580 178.306  0.00  0.00     0.210 HD
ENDBRANCH  19  37
BRANCH  20  39
HETATM   39  O   UNK     0     187.402 179.759 177.737  0.00  0.00    -0.393 OA
HETATM   40  H   UNK     0     186.650 179.876 177.131  0.00  0.00     0.210 HD
ENDBRANCH  20  39
ENDBRANCH   1   3
TORSDOF 11
ENDMDL
MODEL 7
REMARK VINA RESULT:      -8.6     31.970     40.350
REMARK  11 active torsions:
REMARK  status: ('A' for Active; 'I' for Inactive)
REMARK    1  A    between atoms: O_1  and  C_9 
REMARK    2  A    between atoms: O_2  and  C_19 
REMARK    3  A    between atoms: O_3  and  C_26 
REMARK    4  A    between atoms: O_4  and  C_27 
REMARK    5  A    between atoms: O_6  and  C_28 
REMARK    6  A    between atoms: O_7  and  C_32 
REMARK    7  A    between atoms: C_10  and  C_19 
REMARK    8  A    between atoms: C_19  and  C_27 
REMARK    9  A    between atoms: C_27  and  C_30 
REMARK   10  A    between atoms: C_30  and  C_31 
REMARK   11  A    between atoms: C_31  and  C_32 
ROOT
HETATM    1  O   UNK     0     155.409 190.105 156.544  0.00  0.00    -0.384 OA
HETATM    2  H   UNK     0     155.830 190.095 157.421  0.00  0.00     0.211 HD
ENDROOT
BRANCH   1   3
HETATM    3  C   UNK     0     155.189 188.733 156.143  0.00  0.00     0.089 C 
HETATM    4  C   UNK     0     155.085 187.839 157.405  0.00  0.00    -0.002 C 
HETATM    5  C   UNK     0     156.515 187.990 157.985  0.00  0.00     0.034 C 
HETATM    6  C   UNK     0     153.980 188.402 158.316  0.00  0.00     0.014 C 
HETATM    7  C   UNK     0     154.779 186.353 157.071  0.00  0.00     0.019 C 
HETATM    8  C   UNK     0     157.424 187.966 156.735  0.00  0.00     0.012 C 
HETATM    9  C   UNK     0     156.515 188.268 155.523  0.00  0.00     0.044 C 
HETATM   10  C   UNK     0     152.627 188.436 157.586  0.00  0.00     0.011 C 
HETATM   11  C   UNK     0     152.650 189.106 156.178  0.00  0.00     0.027 C 
HETATM   12  C   UNK     0     151.299 188.894 155.389  0.00  0.00    -0.023 C 
HETATM   13  C   UNK     0     153.896 188.742 155.356  0.00  0.00    -0.037 C 
HETATM   14  C   UNK     0     151.448 189.406 153.929  0.00  0.00     0.071 C 
HETATM   15  C   UNK     0     150.119 189.655 156.059  0.00  0.00     0.044 C 
HETATM   16  C   UNK     0     150.899 187.395 155.335  0.00  0.00     0.016 C 
HETATM   17  C   UNK     0     151.555 190.937 153.822  0.00  0.00     0.047 C 
HETATM   18  C   UNK     0     152.641 188.767 153.243  0.00  0.00     0.154 C 
HETATM   19  C   UNK     0     150.375 191.635 154.496  0.00  0.00     0.147 C 
HETATM   20  C   UNK     0     150.228 191.179 155.948  0.00  0.00     0.147 C 
HETATM   21  O   UNK     0     152.629 188.498 152.043  0.00  0.00    -0.293 OA
HETATM   22  C   UNK     0     153.875 188.541 154.029  0.00  0.00     0.057 C 
BRANCH   5  23
HETATM   23  C   UNK     0     156.933 186.973 159.040  0.00  0.00     0.084 C 
HETATM   24  C   UNK     0     156.176 187.239 160.351  0.00  0.00     0.049 C 
BRANCH  23  25
HETATM   25  O   UNK     0     156.555 185.667 158.585  0.00  0.00    -0.387 OA
HETATM   26  H   UNK     0     157.031 185.470 157.761  0.00  0.00     0.210 HD
ENDBRANCH  23  25
BRANCH  23  27
HETATM   27  C   UNK     0     158.468 186.975 159.282  0.00  0.00     0.152 C 
BRANCH  27  28
HETATM   28  O   UNK     0     158.842 185.792 159.994  0.00  0.00    -0.393 OA
HETATM   29  H   UNK     0     158.306 185.059 159.642  0.00  0.00     0.210 HD
ENDBRANCH  27  28
BRANCH  27  30
HETATM   30  C   UNK     0     158.982 188.197 160.067  0.00  0.00     0.037 C 
BRANCH  30  31
HETATM   31  C   UNK     0     160.504 188.138 160.294  0.00  0.00     0.040 C 
BRANCH  31  32
HETATM   32  C   UNK     0     160.924 187.894 161.758  0.00  0.00     0.051 C 
HETATM   33  C   UNK     0     162.326 188.470 161.992  0.00  0.00     0.045 C 
HETATM   34  C   UNK     0     159.939 188.499 162.760  0.00  0.00     0.045 C 
BRANCH  32  35
HETATM   35  O   UNK     0     160.987 186.484 161.979  0.00  0.00    -0.391 OA
HETATM   36  H   UNK     0     160.147 186.097 161.681  0.00  0.00     0.210 HD
ENDBRANCH  32  35
ENDBRANCH  31  32
ENDBRANCH  30  31
ENDBRANCH  27  30
ENDBRANCH  23  27
ENDBRANCH   5  23
BRANCH  19  37
HETATM   37  O   UNK     0     149.178 191.326 153.781  0.00  0.00    -0.393 OA
HETATM   38  H   UNK     0     149.034 190.367 153.850  0.00  0.00     0.210 HD
ENDBRANCH  19  37
BRANCH  20  39
HETATM   39  O   UNK     0     149.065 191.784 156.508  0.00  0.00    -0.393 OA
HETATM   40  H   UNK     0     148.549 191.081 156.941  0.00  0.00     0.210 HD
ENDBRANCH  20  39
ENDBRANCH   1   3
TORSDOF 11
ENDMDL
MODEL 8
REMARK VINA RESULT:      -8.4      2.787      4.650
REMARK  11 active torsions:
REMARK  status: ('A' for Active; 'I' for Inactive)
REMARK    1  A    between atoms: O_1  and  C_9 
REMARK    2  A    between atoms: O_2  and  C_19 
REMARK    3  A    between atoms: O_3  and  C_26 
REMARK    4  A    between atoms: O_4  and  C_27 
REMARK    5  A    between atoms: O_6  and  C_28 
REMARK    6  A    between atoms: O_7  and  C_32 
REMARK    7  A    between atoms: C_10  and  C_19 
REMARK    8  A    between atoms: C_19  and  C_27 
REMARK    9  A    between atoms: C_27  and  C_30 
REMARK   10  A    between atoms: C_30  and  C_31 
REMARK   11  A    between atoms: C_31  and  C_32 
ROOT
HETATM    1  O   UNK     0     182.035 179.257 180.644  0.00  0.00    -0.384 OA
HETATM    2  H   UNK     0     182.847 179.429 181.151  0.00  0.00     0.211 HD
ENDROOT
BRANCH   1   3
HETATM    3  C   UNK     0     181.968 177.836 180.386  0.00  0.00     0.089 C 
HETATM    4  C   UNK     0     181.262 177.592 179.027  0.00  0.00    -0.002 C 
HETATM    5  C   UNK     0     179.843 178.134 179.337  0.00  0.00     0.034 C 
HETATM    6  C   UNK     0     182.007 178.385 177.938  0.00  0.00     0.014 C 
HETATM    7  C   UNK     0     181.206 176.091 178.634  0.00  0.00     0.019 C 
HETATM    8  C   UNK     0     179.571 177.649 180.779  0.00  0.00     0.012 C 
HETATM    9  C   UNK     0     180.943 177.283 181.388  0.00  0.00     0.044 C 
HETATM   10  C   UNK     0     183.479 177.948 177.848  0.00  0.00     0.011 C 
HETATM   11  C   UNK     0     184.246 177.919 179.207  0.00  0.00     0.027 C 
HETATM   12  C   UNK     0     185.665 177.238 179.081  0.00  0.00    -0.023 C 
HETATM   13  C   UNK     0     183.404 177.357 180.363  0.00  0.00    -0.037 C 
HETATM   14  C   UNK     0     186.296 177.057 180.490  0.00  0.00     0.071 C 
HETATM   15  C   UNK     0     186.634 178.090 178.213  0.00  0.00     0.044 C 
HETATM   16  C   UNK     0     185.570 175.839 178.413  0.00  0.00     0.016 C 
HETATM   17  C   UNK     0     186.718 178.382 181.149  0.00  0.00     0.047 C 
HETATM   18  C   UNK     0     185.359 176.308 181.418  0.00  0.00     0.154 C 
HETATM   19  C   UNK     0     187.666 179.181 180.256  0.00  0.00     0.147 C 
HETATM   20  C   UNK     0     187.054 179.408 178.873  0.00  0.00     0.147 C 
HETATM   21  O   UNK     0     185.781 175.532 182.274  0.00  0.00    -0.293 OA
HETATM   22  C   UNK     0     183.907 176.585 181.338  0.00  0.00     0.057 C 
BRANCH   5  23
HETATM   23  C   UNK     0     178.737 177.743 178.365  0.00  0.00     0.084 C 
HETATM   24  C   UNK     0     177.398 177.635 179.114  0.00  0.00     0.049 C 
BRANCH  23  25
HETATM   25  O   UNK     0     178.599 178.787 177.391  0.00  0.00    -0.387 OA
HETATM   26  H   UNK     0     178.202 178.416 176.586  0.00  0.00     0.210 HD
ENDBRANCH  23  25
BRANCH  23  27
HETATM   27  C   UNK     0     179.054 176.421 177.615  0.00  0.00     0.152 C 
BRANCH  27  28
HETATM   28  O   UNK     0     178.950 176.633 176.203  0.00  0.00    -0.393 OA
HETATM   29  H   UNK     0     179.169 175.791 175.766  0.00  0.00     0.210 HD
ENDBRANCH  27  28
BRANCH  27  30
HETATM   30  C   UNK     0     178.139 175.242 177.996  0.00  0.00     0.037 C 
BRANCH  30  31
HETATM   31  C   UNK     0     178.762 173.883 177.624  0.00  0.00     0.040 C 
BRANCH  31  32
HETATM   32  C   UNK     0     179.014 172.945 178.822  0.00  0.00     0.051 C 
HETATM   33  C   UNK     0     180.201 172.026 178.512  0.00  0.00     0.045 C 
HETATM   34  C   UNK     0     179.273 173.710 180.122  0.00  0.00     0.045 C 
BRANCH  32  35
HETATM   35  O   UNK     0     177.859 172.123 179.002  0.00  0.00    -0.391 OA
HETATM   36  H   UNK     0     178.102 171.391 179.593  0.00  0.00     0.210 HD
ENDBRANCH  32  35
ENDBRANCH  31  32
ENDBRANCH  30  31
ENDBRANCH  27  30
ENDBRANCH  23  27
ENDBRANCH   5  23
BRANCH  19  37
HETATM   37  O   UNK     0     188.894 178.463 180.116  0.00  0.00    -0.393 OA
HETATM   38  H   UNK     0     188.904 178.071 179.227  0.00  0.00     0.210 HD
ENDBRANCH  19  37
BRANCH  20  39
HETATM   39  O   UNK     0     188.007 180.074 178.048  0.00  0.00    -0.393 OA
HETATM   40  H   UNK     0     188.722 179.443 177.859  0.00  0.00     0.210 HD
ENDBRANCH  20  39
ENDBRANCH   1   3
TORSDOF 11
ENDMDL
MODEL 9
REMARK VINA RESULT:      -8.4     21.141     26.298
REMARK  11 active torsions:
REMARK  status: ('A' for Active; 'I' for Inactive)
REMARK    1  A    between atoms: O_1  and  C_9 
REMARK    2  A    between atoms: O_2  and  C_19 
REMARK    3  A    between atoms: O_3  and  C_26 
REMARK    4  A    between atoms: O_4  and  C_27 
REMARK    5  A    between atoms: O_6  and  C_28 
REMARK    6  A    between atoms: O_7  and  C_32 
REMARK    7  A    between atoms: C_10  and  C_19 
REMARK    8  A    between atoms: C_19  and  C_27 
REMARK    9  A    between atoms: C_27  and  C_30 
REMARK   10  A    between atoms: C_30  and  C_31 
REMARK   11  A    between atoms: C_31  and  C_32 
ROOT
HETATM    1  O   UNK     0     165.714 174.245 161.734  0.00  0.00    -0.384 OA
HETATM    2  H   UNK     0     164.858 174.552 161.389  0.00  0.00     0.211 HD
ENDROOT
BRANCH   1   3
HETATM    3  C   UNK     0     165.492 172.990 162.417  0.00  0.00     0.089 C 
HETATM    4  C   UNK     0     165.926 171.819 161.496  0.00  0.00    -0.002 C 
HETATM    5  C   UNK     0     164.907 171.971 160.337  0.00  0.00     0.034 C 
HETATM    6  C   UNK     0     167.389 172.044 161.073  0.00  0.00     0.014 C 
HETATM    7  C   UNK     0     165.786 170.431 162.176  0.00  0.00     0.019 C 
HETATM    8  C   UNK     0     163.585 172.328 161.054  0.00  0.00     0.012 C 
HETATM    9  C   UNK     0     163.967 172.814 162.470  0.00  0.00     0.044 C 
HETATM   10  C   UNK     0     168.313 172.114 162.300  0.00  0.00     0.011 C 
HETATM   11  C   UNK     0     167.851 173.093 163.423  0.00  0.00     0.027 C 
HETATM   12  C   UNK     0     168.704 172.940 164.743  0.00  0.00    -0.023 C 
HETATM   13  C   UNK     0     166.335 173.054 163.673  0.00  0.00    -0.037 C 
HETATM   14  C   UNK     0     168.078 173.790 165.884  0.00  0.00     0.071 C 
HETATM   15  C   UNK     0     170.174 173.403 164.532  0.00  0.00     0.044 C 
HETATM   16  C   UNK     0     168.759 171.462 165.219  0.00  0.00     0.016 C 
HETATM   17  C   UNK     0     168.227 175.307 165.673  0.00  0.00     0.047 C 
HETATM   18  C   UNK     0     166.613 173.448 166.082  0.00  0.00     0.154 C 
HETATM   19  C   UNK     0     169.687 175.709 165.469  0.00  0.00     0.147 C 
HETATM   20  C   UNK     0     170.318 174.915 164.325  0.00  0.00     0.147 C 
HETATM   21  O   UNK     0     166.090 173.467 167.195  0.00  0.00    -0.293 OA
HETATM   22  C   UNK     0     165.782 173.167 164.890  0.00  0.00     0.057 C 
BRANCH   5  23
HETATM   23  C   UNK     0     164.766 170.782 159.395  0.00  0.00     0.084 C 
HETATM   24  C   UNK     0     163.847 171.155 158.219  0.00  0.00     0.049 C 
BRANCH  23  25
HETATM   25  O   UNK     0     166.057 170.479 158.850  0.00  0.00    -0.387 OA
HETATM   26  H   UNK     0     166.670 170.290 159.580  0.00  0.00     0.210 HD
ENDBRANCH  23  25
BRANCH  23  27
HETATM   27  C   UNK     0     164.238 169.516 160.123  0.00  0.00     0.152 C 
BRANCH  27  28
HETATM   28  O   UNK     0     164.966 168.367 159.676  0.00  0.00    -0.393 OA
HETATM   29  H   UNK     0     164.448 167.954 158.963  0.00  0.00     0.210 HD
ENDBRANCH  27  28
BRANCH  27  30
HETATM   30  C   UNK     0     162.735 169.247 159.916  0.00  0.00     0.037 C 
BRANCH  30  31
HETATM   31  C   UNK     0     162.182 168.237 160.939  0.00  0.00     0.040 C 
BRANCH  31  32
HETATM   32  C   UNK     0     161.110 168.810 161.889  0.00  0.00     0.051 C 
HETATM   33  C   UNK     0     161.787 169.649 162.978  0.00  0.00     0.045 C 
HETATM   34  C   UNK     0     160.065 169.652 161.155  0.00  0.00     0.045 C 
BRANCH  32  35
HETATM   35  O   UNK     0     160.445 167.717 162.527  0.00  0.00    -0.391 OA
HETATM   36  H   UNK     0     159.734 168.082 163.079  0.00  0.00     0.210 HD
ENDBRANCH  32  35
ENDBRANCH  31  32
ENDBRANCH  30  31
ENDBRANCH  27  30
ENDBRANCH  23  27
ENDBRANCH   5  23
BRANCH  19  37
HETATM   37  O   UNK     0     170.414 175.459 166.674  0.00  0.00    -0.393 OA
HETATM   38  H   UNK     0     170.218 176.184 167.290  0.00  0.00     0.210 HD
ENDBRANCH  19  37
BRANCH  20  39
HETATM   39  O   UNK     0     171.699 175.255 164.231  0.00  0.00    -0.393 OA
HETATM   40  H   UNK     0     172.199 174.425 164.143  0.00  0.00     0.210 HD
ENDBRANCH  20  39
ENDBRANCH   1   3
TORSDOF 11
ENDMDL
