MODEL 1
REMARK VINA RESULT:      -5.4      0.000      0.000
REMARK  5 active torsions:
REMARK  status: ('A' for Active; 'I' for Inactive)
REMARK    1  A    between atoms: C_3  and  O_1 
REMARK    2  A    between atoms: C_4  and  O_14 
REMARK    3  A    between atoms: C_7  and  C_8 
REMARK    4  A    between atoms: C_9  and  C_10 
REMARK    5  A    between atoms: C_10  and  O_12 
ROOT
ATOM      1  C   LIG     1      16.568  13.559  24.580  0.00  0.00     0.162 A 
ATOM      2  C   LIG     1      17.957  13.684  24.616  0.00  0.00     0.158 A 
ATOM      3  C   LIG     1      18.588  14.664  23.851  0.00  0.00     0.050 A 
ATOM      4  C   LIG     1      17.832  15.519  23.049  0.00  0.00     0.012 A 
ATOM      5  C   LIG     1      16.444  15.393  23.013  0.00  0.00    -0.021 A 
ATOM      6  C   LIG     1      15.811  14.413  23.777  0.00  0.00     0.057 A 
ENDROOT
BRANCH   5   7
ATOM      7  C   LIG     1      15.655  16.285  22.177  0.00  0.00     0.015 C 
ATOM      8  C   LIG     1      14.307  16.274  22.077  0.00  0.00     0.092 C 
BRANCH   8   9
ATOM      9  C   LIG     1      13.622  17.242  21.198  0.00  0.00     0.330 C 
ATOM     10  O   LIG     1      12.841  18.112  21.547  0.00  0.00    -0.246 OA
BRANCH   9  11
ATOM     11  O   LIG     1      14.003  17.012  19.919  0.00  0.00    -0.478 OA
ATOM     12  H   LIG     1      14.763  17.574  19.656  0.00  0.00     0.295 HD
ENDBRANCH   9  11
ENDBRANCH   8   9
ENDBRANCH   5   7
BRANCH   1  13
ATOM     13  O   LIG     1      15.939  12.604  25.322  0.00  0.00    -0.491 OA
ATOM     14  C   LIG     1      15.341  13.026  26.546  0.00  0.00     0.277 C 
ENDBRANCH   1  13
BRANCH   2  15
ATOM     15  O   LIG     1      18.706  12.854  25.395  0.00  0.00    -0.503 OA
ATOM     16  H   LIG     1      19.163  12.212  24.824  0.00  0.00     0.292 HD
ENDBRANCH   2  15
TORSDOF 5
ENDMDL
MODEL 2
REMARK VINA RESULT:      -5.4     18.718     19.440
REMARK  5 active torsions:
REMARK  status: ('A' for Active; 'I' for Inactive)
REMARK    1  A    between atoms: C_3  and  O_1 
REMARK    2  A    between atoms: C_4  and  O_14 
REMARK    3  A    between atoms: C_7  and  C_8 
REMARK    4  A    between atoms: C_9  and  C_10 
REMARK    5  A    between atoms: C_10  and  O_12 
ROOT
ATOM      1  C   LIG     1      29.568  26.432  14.020  0.00  0.00     0.162 A 
ATOM      2  C   LIG     1      29.757  25.064  14.223  0.00  0.00     0.158 A 
ATOM      3  C   LIG     1      28.902  24.145  13.615  0.00  0.00     0.050 A 
ATOM      4  C   LIG     1      27.858  24.593  12.805  0.00  0.00     0.012 A 
ATOM      5  C   LIG     1      27.669  25.959  12.603  0.00  0.00    -0.021 A 
ATOM      6  C   LIG     1      28.524  26.879  13.210  0.00  0.00     0.057 A 
ENDROOT
BRANCH   5   7
ATOM      7  C   LIG     1      26.582  26.426  11.759  0.00  0.00     0.015 C 
ATOM      8  C   LIG     1      25.420  26.957  12.201  0.00  0.00     0.092 C 
BRANCH   8   9
ATOM      9  C   LIG     1      24.395  27.404  11.237  0.00  0.00     0.330 C 
ATOM     10  O   LIG     1      23.862  26.722  10.378  0.00  0.00    -0.246 OA
BRANCH   9  11
ATOM     11  O   LIG     1      24.132  28.713  11.459  0.00  0.00    -0.478 OA
ATOM     12  H   LIG     1      24.455  29.281  10.727  0.00  0.00     0.295 HD
ENDBRANCH   9  11
ENDBRANCH   8   9
ENDBRANCH   5   7
BRANCH   1  13
ATOM     13  O   LIG     1      30.397  27.339  14.609  0.00  0.00    -0.491 OA
ATOM     14  C   LIG     1      29.864  28.090  15.699  0.00  0.00     0.277 C 
ENDBRANCH   1  13
BRANCH   2  15
ATOM     15  O   LIG     1      30.772  24.615  15.012  0.00  0.00    -0.503 OA
ATOM     16  H   LIG     1      30.681  25.007  15.898  0.00  0.00     0.292 HD
ENDBRANCH   2  15
TORSDOF 5
ENDMDL
MODEL 3
REMARK VINA RESULT:      -5.2     13.668     15.781
REMARK  5 active torsions:
REMARK  status: ('A' for Active; 'I' for Inactive)
REMARK    1  A    between atoms: C_3  and  O_1 
REMARK    2  A    between atoms: C_4  and  O_14 
REMARK    3  A    between atoms: C_7  and  C_8 
REMARK    4  A    between atoms: C_9  and  C_10 
REMARK    5  A    between atoms: C_10  and  O_12 
ROOT
ATOM      1  C   LIG     1       9.456  28.986  29.491  0.00  0.00     0.162 A 
ATOM      2  C   LIG     1       9.162  28.180  30.591  0.00  0.00     0.158 A 
ATOM      3  C   LIG     1       8.516  26.958  30.406  0.00  0.00     0.050 A 
ATOM      4  C   LIG     1       8.164  26.542  29.122  0.00  0.00     0.012 A 
ATOM      5  C   LIG     1       8.458  27.348  28.023  0.00  0.00    -0.021 A 
ATOM      6  C   LIG     1       9.104  28.571  28.207  0.00  0.00     0.057 A 
ENDROOT
BRANCH   5   7
ATOM      7  C   LIG     1       8.092  26.914  26.684  0.00  0.00     0.015 C 
ATOM      8  C   LIG     1       7.551  25.716  26.371  0.00  0.00     0.092 C 
BRANCH   8   9
ATOM      9  C   LIG     1       7.213  25.399  24.969  0.00  0.00     0.330 C 
ATOM     10  O   LIG     1       6.196  25.721  24.378  0.00  0.00    -0.246 OA
BRANCH   9  11
ATOM     11  O   LIG     1       8.228  24.683  24.430  0.00  0.00    -0.478 OA
ATOM     12  H   LIG     1       9.104  24.994  24.743  0.00  0.00     0.295 HD
ENDBRANCH   9  11
ENDBRANCH   8   9
ENDBRANCH   5   7
BRANCH   1  13
ATOM     13  O   LIG     1      10.086  30.183  29.660  0.00  0.00    -0.491 OA
ATOM     14  C   LIG     1       9.260  31.342  29.754  0.00  0.00     0.277 C 
ENDBRANCH   1  13
BRANCH   2  15
ATOM     15  O   LIG     1       9.500  28.575  31.850  0.00  0.00    -0.503 OA
ATOM     16  H   LIG     1       8.900  28.151  32.487  0.00  0.00     0.292 HD
ENDBRANCH   2  15
TORSDOF 5
ENDMDL
MODEL 4
REMARK VINA RESULT:      -5.2     14.689     15.213
REMARK  5 active torsions:
REMARK  status: ('A' for Active; 'I' for Inactive)
REMARK    1  A    between atoms: C_3  and  O_1 
REMARK    2  A    between atoms: C_4  and  O_14 
REMARK    3  A    between atoms: C_7  and  C_8 
REMARK    4  A    between atoms: C_9  and  C_10 
REMARK    5  A    between atoms: C_10  and  O_12 
ROOT
ATOM      1  C   LIG     1       8.585  26.801  30.519  0.00  0.00     0.162 A 
ATOM      2  C   LIG     1       9.688  27.605  30.808  0.00  0.00     0.158 A 
ATOM      3  C   LIG     1      10.313  28.323  29.790  0.00  0.00     0.050 A 
ATOM      4  C   LIG     1       9.837  28.237  28.481  0.00  0.00     0.012 A 
ATOM      5  C   LIG     1       8.735  27.434  28.193  0.00  0.00    -0.021 A 
ATOM      6  C   LIG     1       8.108  26.715  29.211  0.00  0.00     0.057 A 
ENDROOT
BRANCH   5   7
ATOM      7  C   LIG     1       8.237  27.345  26.829  0.00  0.00     0.015 C 
ATOM      8  C   LIG     1       7.416  26.380  26.357  0.00  0.00     0.092 C 
BRANCH   8   9
ATOM      9  C   LIG     1       6.973  26.408  24.949  0.00  0.00     0.330 C 
ATOM     10  O   LIG     1       6.388  25.517  24.355  0.00  0.00    -0.246 OA
BRANCH   9  11
ATOM     11  O   LIG     1       7.320  27.600  24.408  0.00  0.00    -0.478 OA
ATOM     12  H   LIG     1       8.114  27.526  23.837  0.00  0.00     0.295 HD
ENDBRANCH   9  11
ENDBRANCH   8   9
ENDBRANCH   5   7
BRANCH   1  13
ATOM     13  O   LIG     1       7.966  26.094  31.506  0.00  0.00    -0.491 OA
ATOM     14  C   LIG     1       7.024  25.104  31.099  0.00  0.00     0.277 C 
ENDBRANCH   1  13
BRANCH   2  15
ATOM     15  O   LIG     1      10.163  27.696  32.082  0.00  0.00    -0.503 OA
ATOM     16  H   LIG     1       9.500  27.333  32.694  0.00  0.00     0.292 HD
ENDBRANCH   2  15
TORSDOF 5
ENDMDL
MODEL 5
REMARK VINA RESULT:      -5.0      1.997      5.840
REMARK  5 active torsions:
REMARK  status: ('A' for Active; 'I' for Inactive)
REMARK    1  A    between atoms: C_3  and  O_1 
REMARK    2  A    between atoms: C_4  and  O_14 
REMARK    3  A    between atoms: C_7  and  C_8 
REMARK    4  A    between atoms: C_9  and  C_10 
REMARK    5  A    between atoms: C_10  and  O_12 
ROOT
ATOM      1  C   LIG     1      12.144  16.474  22.533  0.00  0.00     0.162 A 
ATOM      2  C   LIG     1      12.331  17.432  21.536  0.00  0.00     0.158 A 
ATOM      3  C   LIG     1      13.601  17.641  20.999  0.00  0.00     0.050 A 
ATOM      4  C   LIG     1      14.685  16.892  21.460  0.00  0.00     0.012 A 
ATOM      5  C   LIG     1      14.498  15.936  22.456  0.00  0.00    -0.021 A 
ATOM      6  C   LIG     1      13.228  15.726  22.994  0.00  0.00     0.057 A 
ENDROOT
BRANCH   5   7
ATOM      7  C   LIG     1      15.628  15.155  22.936  0.00  0.00     0.015 C 
ATOM      8  C   LIG     1      16.910  15.581  22.981  0.00  0.00     0.092 C 
BRANCH   8   9
ATOM      9  C   LIG     1      17.968  14.692  23.501  0.00  0.00     0.330 C 
ATOM     10  O   LIG     1      17.881  13.488  23.677  0.00  0.00    -0.246 OA
BRANCH   9  11
ATOM     11  O   LIG     1      19.071  15.434  23.756  0.00  0.00    -0.478 OA
ATOM     12  H   LIG     1      18.851  16.376  23.916  0.00  0.00     0.295 HD
ENDBRANCH   9  11
ENDBRANCH   8   9
ENDBRANCH   5   7
BRANCH   1  13
ATOM     13  O   LIG     1      10.908  16.261  23.066  0.00  0.00    -0.491 OA
ATOM     14  C   LIG     1      10.692  16.715  24.401  0.00  0.00     0.277 C 
ENDBRANCH   1  13
BRANCH   2  15
ATOM     15  O   LIG     1      11.281  18.169  21.079  0.00  0.00    -0.503 OA
ATOM     16  H   LIG     1      10.934  17.758  20.268  0.00  0.00     0.292 HD
ENDBRANCH   2  15
TORSDOF 5
ENDMDL
MODEL 6
REMARK VINA RESULT:      -5.0     15.166     16.202
REMARK  5 active torsions:
REMARK  status: ('A' for Active; 'I' for Inactive)
REMARK    1  A    between atoms: C_3  and  O_1 
REMARK    2  A    between atoms: C_4  and  O_14 
REMARK    3  A    between atoms: C_7  and  C_8 
REMARK    4  A    between atoms: C_9  and  C_10 
REMARK    5  A    between atoms: C_10  and  O_12 
ROOT
ATOM      1  C   LIG     1       7.274  26.796  26.621  0.00  0.00     0.162 A 
ATOM      2  C   LIG     1       8.008  27.625  25.772  0.00  0.00     0.158 A 
ATOM      3  C   LIG     1       9.091  28.349  26.270  0.00  0.00     0.050 A 
ATOM      4  C   LIG     1       9.440  28.245  27.616  0.00  0.00     0.012 A 
ATOM      5  C   LIG     1       8.707  27.417  28.465  0.00  0.00    -0.021 A 
ATOM      6  C   LIG     1       7.624  26.692  27.968  0.00  0.00     0.057 A 
ENDROOT
BRANCH   5   7
ATOM      7  C   LIG     1       9.072  27.308  29.868  0.00  0.00     0.015 C 
ATOM      8  C   LIG     1      10.105  27.948  30.460  0.00  0.00     0.092 C 
BRANCH   8   9
ATOM      9  C   LIG     1      10.366  27.760  31.901  0.00  0.00     0.330 C 
ATOM     10  O   LIG     1      10.750  26.735  32.440  0.00  0.00    -0.246 OA
BRANCH   9  11
ATOM     11  O   LIG     1      10.110  28.923  32.544  0.00  0.00    -0.478 OA
ATOM     12  H   LIG     1       9.718  29.595  31.946  0.00  0.00     0.295 HD
ENDBRANCH   9  11
ENDBRANCH   8   9
ENDBRANCH   5   7
BRANCH   1  13
ATOM     13  O   LIG     1       6.213  26.084  26.147  0.00  0.00    -0.491 OA
ATOM     14  C   LIG     1       4.918  26.475  26.599  0.00  0.00     0.277 C 
ENDBRANCH   1  13
BRANCH   2  15
ATOM     15  O   LIG     1       7.675  27.736  24.456  0.00  0.00    -0.503 OA
ATOM     16  H   LIG     1       8.486  27.867  23.934  0.00  0.00     0.292 HD
ENDBRANCH   2  15
TORSDOF 5
ENDMDL
MODEL 7
REMARK VINA RESULT:      -4.9     19.305     20.328
REMARK  5 active torsions:
REMARK  status: ('A' for Active; 'I' for Inactive)
REMARK    1  A    between atoms: C_3  and  O_1 
REMARK    2  A    between atoms: C_4  and  O_14 
REMARK    3  A    between atoms: C_7  and  C_8 
REMARK    4  A    between atoms: C_9  and  C_10 
REMARK    5  A    between atoms: C_10  and  O_12 
ROOT
ATOM      1  C   LIG     1      29.655  25.130  13.652  0.00  0.00     0.162 A 
ATOM      2  C   LIG     1      29.129  26.318  13.142  0.00  0.00     0.158 A 
ATOM      3  C   LIG     1      29.241  27.500  13.873  0.00  0.00     0.050 A 
ATOM      4  C   LIG     1      29.878  27.496  15.114  0.00  0.00     0.012 A 
ATOM      5  C   LIG     1      30.403  26.309  15.623  0.00  0.00    -0.021 A 
ATOM      6  C   LIG     1      30.293  25.126  14.893  0.00  0.00     0.057 A 
ENDROOT
BRANCH   5   7
ATOM      7  C   LIG     1      31.069  26.305  16.916  0.00  0.00     0.015 C 
ATOM      8  C   LIG     1      30.447  26.330  18.116  0.00  0.00     0.092 C 
BRANCH   8   9
ATOM      9  C   LIG     1      31.239  26.312  19.362  0.00  0.00     0.330 C 
ATOM     10  O   LIG     1      32.111  25.511  19.655  0.00  0.00    -0.246 OA
BRANCH   9  11
ATOM     11  O   LIG     1      30.841  27.343  20.144  0.00  0.00    -0.478 OA
ATOM     12  H   LIG     1      30.287  27.041  20.895  0.00  0.00     0.295 HD
ENDBRANCH   9  11
ENDBRANCH   8   9
ENDBRANCH   5   7
BRANCH   1  13
ATOM     13  O   LIG     1      29.551  23.968  12.947  0.00  0.00    -0.491 OA
ATOM     14  C   LIG     1      30.583  23.689  12.003  0.00  0.00     0.277 C 
ENDBRANCH   1  13
BRANCH   2  15
ATOM     15  O   LIG     1      28.504  26.334  11.932  0.00  0.00    -0.503 OA
ATOM     16  H   LIG     1      28.551  25.446  11.539  0.00  0.00     0.292 HD
ENDBRANCH   2  15
TORSDOF 5
ENDMDL
MODEL 8
REMARK VINA RESULT:      -4.8      2.961      4.018
REMARK  5 active torsions:
REMARK  status: ('A' for Active; 'I' for Inactive)
REMARK    1  A    between atoms: C_3  and  O_1 
REMARK    2  A    between atoms: C_4  and  O_14 
REMARK    3  A    between atoms: C_7  and  C_8 
REMARK    4  A    between atoms: C_9  and  C_10 
REMARK    5  A    between atoms: C_10  and  O_12 
ROOT
ATOM      1  C   LIG     1      17.088  13.683  24.568  0.00  0.00     0.162 A 
ATOM      2  C   LIG     1      17.643  14.439  23.535  0.00  0.00     0.158 A 
ATOM      3  C   LIG     1      17.067  15.657  23.175  0.00  0.00     0.050 A 
ATOM      4  C   LIG     1      15.935  16.119  23.847  0.00  0.00     0.012 A 
ATOM      5  C   LIG     1      15.379  15.363  24.878  0.00  0.00    -0.021 A 
ATOM      6  C   LIG     1      15.955  14.145  25.239  0.00  0.00     0.057 A 
ENDROOT
BRANCH   5   7
ATOM      7  C   LIG     1      14.200  15.845  25.579  0.00  0.00     0.015 C 
ATOM      8  C   LIG     1      13.756  15.386  26.771  0.00  0.00     0.092 C 
BRANCH   8   9
ATOM      9  C   LIG     1      12.546  15.968  27.384  0.00  0.00     0.330 C 
ATOM     10  O   LIG     1      11.416  15.512  27.331  0.00  0.00    -0.246 OA
BRANCH   9  11
ATOM     11  O   LIG     1      12.891  17.108  28.028  0.00  0.00    -0.478 OA
ATOM     12  H   LIG     1      13.093  16.948  28.975  0.00  0.00     0.295 HD
ENDBRANCH   9  11
ENDBRANCH   8   9
ENDBRANCH   5   7
BRANCH   1  13
ATOM     13  O   LIG     1      17.641  12.491  24.928  0.00  0.00    -0.491 OA
ATOM     14  C   LIG     1      18.514  12.498  26.056  0.00  0.00     0.277 C 
ENDBRANCH   1  13
BRANCH   2  15
ATOM     15  O   LIG     1      18.748  13.998  22.871  0.00  0.00    -0.503 OA
ATOM     16  H   LIG     1      18.711  13.028  22.804  0.00  0.00     0.292 HD
ENDBRANCH   2  15
TORSDOF 5
ENDMDL
MODEL 9
REMARK VINA RESULT:      -4.8      1.547      5.732
REMARK  5 active torsions:
REMARK  status: ('A' for Active; 'I' for Inactive)
REMARK    1  A    between atoms: C_3  and  O_1 
REMARK    2  A    between atoms: C_4  and  O_14 
REMARK    3  A    between atoms: C_7  and  C_8 
REMARK    4  A    between atoms: C_9  and  C_10 
REMARK    5  A    between atoms: C_10  and  O_12 
ROOT
ATOM      1  C   LIG     1      13.607  15.440  22.931  0.00  0.00     0.162 A 
ATOM      2  C   LIG     1      14.304  16.327  22.109  0.00  0.00     0.158 A 
ATOM      3  C   LIG     1      15.697  16.359  22.143  0.00  0.00     0.050 A 
ATOM      4  C   LIG     1      16.395  15.505  22.997  0.00  0.00     0.012 A 
ATOM      5  C   LIG     1      15.698  14.619  23.817  0.00  0.00    -0.021 A 
ATOM      6  C   LIG     1      14.304  14.585  23.785  0.00  0.00     0.057 A 
ENDROOT
BRANCH   5   7
ATOM      7  C   LIG     1      16.426  13.727  24.707  0.00  0.00     0.015 C 
ATOM      8  C   LIG     1      17.691  13.291  24.515  0.00  0.00     0.092 C 
BRANCH   8   9
ATOM      9  C   LIG     1      18.323  12.393  25.502  0.00  0.00     0.330 C 
ATOM     10  O   LIG     1      18.118  11.197  25.628  0.00  0.00    -0.246 OA
BRANCH   9  11
ATOM     11  O   LIG     1      19.182  13.115  26.259  0.00  0.00    -0.478 OA
ATOM     12  H   LIG     1      18.863  14.032  26.402  0.00  0.00     0.295 HD
ENDBRANCH   9  11
ENDBRANCH   8   9
ENDBRANCH   5   7
BRANCH   1  13
ATOM     13  O   LIG     1      12.245  15.400  22.908  0.00  0.00    -0.491 OA
ATOM     14  C   LIG     1      11.559  16.133  23.920  0.00  0.00     0.277 C 
ENDBRANCH   1  13
BRANCH   2  15
ATOM     15  O   LIG     1      13.633  17.167  21.272  0.00  0.00    -0.503 OA
ATOM     16  H   LIG     1      12.905  16.678  20.850  0.00  0.00     0.292 HD
ENDBRANCH   2  15
TORSDOF 5
ENDMDL
