MODEL 1
REMARK VINA RESULT:      -9.0      0.000      0.000
REMARK  Name = 5320623
REMARK  11 active torsions:
REMARK  status: ('A' for Active; 'I' for Inactive)
REMARK    1  A    between atoms: O_2  and  C_16
REMARK    2  A    between atoms: O_2  and  C_18
REMARK    3  A    between atoms: O_3  and  C_12
REMARK    4  A    between atoms: O_4  and  C_13
REMARK    5  A    between atoms: O_5  and  C_14
REMARK    6  A    between atoms: O_6  and  C_17
REMARK    7  A    between atoms: O_8  and  C_20
REMARK    8  A    between atoms: O_9  and  C_23
REMARK    9  A    between atoms: O_11  and  C_32
REMARK   10  A    between atoms: C_15  and  C_17
REMARK   11  A    between atoms: C_25  and  C_27
REMARK                            x       y       z     vdW  Elec       q    Type
REMARK                         _______ _______ _______ _____ _____    ______ ____
ROOT
ATOM      7  O   UNL     1     152.617 151.736 147.499  0.00  0.00    +0.000 OA
ATOM     10  O   UNL     1     149.592 154.289 146.533  0.00  0.00    +0.000 OA
ATOM     18  C   UNL     1     151.892 153.036 150.826  0.00  0.00    +0.000 A 
ATOM     19  C   UNL     1     152.472 152.310 149.785  0.00  0.00    +0.000 A 
ATOM     20  C   UNL     1     150.850 153.926 150.562  0.00  0.00    +0.000 A 
ATOM     21  C   UNL     1     152.008 152.476 148.480  0.00  0.00    +0.000 A 
ATOM     22  C   UNL     1     150.967 153.367 148.219  0.00  0.00    +0.000 A 
ATOM     23  C   UNL     1     150.384 154.096 149.258  0.00  0.00    +0.000 A 
ATOM     24  C   UNL     1     150.499 153.524 146.834  0.00  0.00    +0.000 A 
ATOM     25  C   UNL     1     152.172 151.875 146.194  0.00  0.00    +0.000 A 
ATOM     26  C   UNL     1     151.185 152.703 145.816  0.00  0.00    +0.000 A 
ENDROOT
BRANCH  25  27
ATOM     27  C   UNL     1     152.900 151.037 145.219  0.00  0.00    +0.000 A 
ATOM     28  C   UNL     1     153.217 151.544 143.957  0.00  0.00    +0.000 A 
ATOM     29  C   UNL     1     153.271 149.733 145.555  0.00  0.00    +0.000 A 
ATOM     30  C   UNL     1     153.904 150.753 143.037  0.00  0.00    +0.000 A 
ATOM     31  C   UNL     1     153.958 148.941 144.634  0.00  0.00    +0.000 A 
ATOM     32  C   UNL     1     154.274 149.451 143.375  0.00  0.00    +0.000 A 
BRANCH  32  11
ATOM     11  O   UNL     1     154.945 148.678 142.477  0.00  0.00    +0.000 OA
ATOM     39  H   UNL     1     154.301 148.157 141.968  0.00  0.00    +0.000 HD
ENDBRANCH  32  11
ENDBRANCH  25  27
BRANCH  20   8
ATOM      8  O   UNL     1     150.289 154.633 151.586  0.00  0.00    +0.000 OA
ATOM     37  H   UNL     1     149.690 155.300 151.206  0.00  0.00    +0.000 HD
ENDBRANCH  20   8
BRANCH  23   9
ATOM      9  O   UNL     1     149.365 154.974 149.041  0.00  0.00    +0.000 OA
ATOM     38  H   UNL     1     148.810 154.681 148.301  0.00  0.00    +0.000 HD
ENDBRANCH  23   9
BRANCH  18   2
ATOM      2  O   UNL     1     152.353 152.865 152.099  0.00  0.00    +0.000 OA
BRANCH   2  16
ATOM      1  O   UNL     1     152.808 155.134 152.405  0.00  0.00    +0.000 OA
ATOM     12  C   UNL     1     155.627 154.700 152.063  0.00  0.00    +0.000 C 
ATOM     13  C   UNL     1     155.003 156.095 152.041  0.00  0.00    +0.000 C 
ATOM     14  C   UNL     1     154.590 153.625 151.735  0.00  0.00    +0.000 C 
ATOM     15  C   UNL     1     153.718 156.130 152.872  0.00  0.00    +0.000 C 
ATOM     16  C   UNL     1     153.317 153.811 152.561  0.00  0.00    +0.000 C 
BRANCH  12   3
ATOM      3  O   UNL     1     156.671 154.667 151.088  0.00  0.00    +0.000 OA
ATOM     33  H   UNL     1     156.291 154.310 150.267  0.00  0.00    +0.000 HD
ENDBRANCH  12   3
BRANCH  13   4
ATOM      4  O   UNL     1     155.933 157.036 152.571  0.00  0.00    +0.000 OA
ATOM     34  H   UNL     1     156.189 156.736 153.460  0.00  0.00    +0.000 HD
ENDBRANCH  13   4
BRANCH  14   5
ATOM      5  O   UNL     1     155.132 152.339 152.033  0.00  0.00    +0.000 OA
ATOM     35  H   UNL     1     155.432 152.343 152.957  0.00  0.00    +0.000 HD
ENDBRANCH  14   5
BRANCH  15  17
ATOM     17  C   UNL     1     153.015 157.479 152.771  0.00  0.00    +0.000 C 
BRANCH  17   6
ATOM      6  O   UNL     1     153.471 158.140 151.605  0.00  0.00    +0.000 OA
ATOM     36  H   UNL     1     152.825 158.835 151.389  0.00  0.00    +0.000 HD
ENDBRANCH  17   6
ENDBRANCH  15  17
ENDBRANCH   2  16
ENDBRANCH  18   2
TORSDOF 11
ENDMDL
MODEL 2
REMARK VINA RESULT:      -9.0      2.923      6.043
REMARK  Name = 5320623
REMARK  11 active torsions:
REMARK  status: ('A' for Active; 'I' for Inactive)
REMARK    1  A    between atoms: O_2  and  C_16
REMARK    2  A    between atoms: O_2  and  C_18
REMARK    3  A    between atoms: O_3  and  C_12
REMARK    4  A    between atoms: O_4  and  C_13
REMARK    5  A    between atoms: O_5  and  C_14
REMARK    6  A    between atoms: O_6  and  C_17
REMARK    7  A    between atoms: O_8  and  C_20
REMARK    8  A    between atoms: O_9  and  C_23
REMARK    9  A    between atoms: O_11  and  C_32
REMARK   10  A    between atoms: C_15  and  C_17
REMARK   11  A    between atoms: C_25  and  C_27
REMARK                            x       y       z     vdW  Elec       q    Type
REMARK                         _______ _______ _______ _____ _____    ______ ____
ROOT
ATOM      7  O   UNL     1     149.239 154.467 148.644  0.00  0.00    +0.000 OA
ATOM     10  O   UNL     1     149.136 151.745 145.614  0.00  0.00    +0.000 OA
ATOM     18  C   UNL     1     152.609 153.121 148.980  0.00  0.00    +0.000 A 
ATOM     19  C   UNL     1     151.460 153.881 149.195  0.00  0.00    +0.000 A 
ATOM     20  C   UNL     1     152.640 152.173 147.957  0.00  0.00    +0.000 A 
ATOM     21  C   UNL     1     150.340 153.690 148.385  0.00  0.00    +0.000 A 
ATOM     22  C   UNL     1     150.373 152.742 147.363  0.00  0.00    +0.000 A 
ATOM     23  C   UNL     1     151.522 151.979 147.145  0.00  0.00    +0.000 A 
ATOM     24  C   UNL     1     149.178 152.560 146.525  0.00  0.00    +0.000 A 
ATOM     25  C   UNL     1     148.115 154.304 147.850  0.00  0.00    +0.000 A 
ATOM     26  C   UNL     1     148.021 153.421 146.843  0.00  0.00    +0.000 A 
ENDROOT
BRANCH  25  27
ATOM     27  C   UNL     1     146.987 155.184 148.219  0.00  0.00    +0.000 A 
ATOM     28  C   UNL     1     145.742 155.023 147.608  0.00  0.00    +0.000 A 
ATOM     29  C   UNL     1     147.163 156.183 149.180  0.00  0.00    +0.000 A 
ATOM     30  C   UNL     1     144.677 155.854 147.957  0.00  0.00    +0.000 A 
ATOM     31  C   UNL     1     146.098 157.014 149.529  0.00  0.00    +0.000 A 
ATOM     32  C   UNL     1     144.856 156.851 148.917  0.00  0.00    +0.000 A 
BRANCH  32  11
ATOM     11  O   UNL     1     143.817 157.662 149.257  0.00  0.00    +0.000 OA
ATOM     39  H   UNL     1     143.940 158.527 148.830  0.00  0.00    +0.000 HD
ENDBRANCH  32  11
ENDBRANCH  25  27
BRANCH  20   8
ATOM      8  O   UNL     1     153.769 151.433 147.754  0.00  0.00    +0.000 OA
ATOM     37  H   UNL     1     154.284 151.848 147.039  0.00  0.00    +0.000 HD
ENDBRANCH  20   8
BRANCH  23   9
ATOM      9  O   UNL     1     151.592 151.044 146.156  0.00  0.00    +0.000 OA
ATOM     38  H   UNL     1     150.939 150.341 146.300  0.00  0.00    +0.000 HD
ENDBRANCH  23   9
BRANCH  18   2
ATOM      2  O   UNL     1     153.699 153.317 149.778  0.00  0.00    +0.000 OA
BRANCH   2  16
ATOM      1  O   UNL     1     154.118 155.581 150.157  0.00  0.00    +0.000 OA
ATOM     12  C   UNL     1     154.519 155.123 152.964  0.00  0.00    +0.000 C 
ATOM     13  C   UNL     1     154.911 156.434 152.283  0.00  0.00    +0.000 C 
ATOM     14  C   UNL     1     154.435 153.978 151.954  0.00  0.00    +0.000 C 
ATOM     15  C   UNL     1     154.037 156.690 151.053  0.00  0.00    +0.000 C 
ATOM     16  C   UNL     1     153.612 154.377 150.729  0.00  0.00    +0.000 C 
BRANCH  12   3
ATOM      3  O   UNL     1     155.513 154.820 153.945  0.00  0.00    +0.000 OA
ATOM     33  H   UNL     1     155.164 154.103 154.501  0.00  0.00    +0.000 HD
ENDBRANCH  12   3
BRANCH  13   4
ATOM      4  O   UNL     1     154.754 157.510 153.205  0.00  0.00    +0.000 OA
ATOM     34  H   UNL     1     155.599 157.989 153.254  0.00  0.00    +0.000 HD
ENDBRANCH  13   4
BRANCH  14   5
ATOM      5  O   UNL     1     153.808 152.852 152.567  0.00  0.00    +0.000 OA
ATOM     35  H   UNL     1     153.824 152.115 151.934  0.00  0.00    +0.000 HD
ENDBRANCH  14   5
BRANCH  15  17
ATOM     17  C   UNL     1     154.484 157.932 150.290  0.00  0.00    +0.000 C 
BRANCH  17   6
ATOM      6  O   UNL     1     155.840 158.192 150.603  0.00  0.00    +0.000 OA
ATOM     36  H   UNL     1     156.326 157.353 150.521  0.00  0.00    +0.000 HD
ENDBRANCH  17   6
ENDBRANCH  15  17
ENDBRANCH   2  16
ENDBRANCH  18   2
TORSDOF 11
ENDMDL
MODEL 3
REMARK VINA RESULT:      -8.8      4.177      7.314
REMARK  Name = 5320623
REMARK  11 active torsions:
REMARK  status: ('A' for Active; 'I' for Inactive)
REMARK    1  A    between atoms: O_2  and  C_16
REMARK    2  A    between atoms: O_2  and  C_18
REMARK    3  A    between atoms: O_3  and  C_12
REMARK    4  A    between atoms: O_4  and  C_13
REMARK    5  A    between atoms: O_5  and  C_14
REMARK    6  A    between atoms: O_6  and  C_17
REMARK    7  A    between atoms: O_8  and  C_20
REMARK    8  A    between atoms: O_9  and  C_23
REMARK    9  A    between atoms: O_11  and  C_32
REMARK   10  A    between atoms: C_15  and  C_17
REMARK   11  A    between atoms: C_25  and  C_27
REMARK                            x       y       z     vdW  Elec       q    Type
REMARK                         _______ _______ _______ _____ _____    ______ ____
ROOT
ATOM      7  O   UNL     1     149.587 157.607 149.636  0.00  0.00    +0.000 OA
ATOM     10  O   UNL     1     149.175 160.690 152.268  0.00  0.00    +0.000 OA
ATOM     18  C   UNL     1     153.071 157.954 150.647  0.00  0.00    +0.000 A 
ATOM     19  C   UNL     1     151.916 157.499 150.011  0.00  0.00    +0.000 A 
ATOM     20  C   UNL     1     152.998 159.006 151.562  0.00  0.00    +0.000 A 
ATOM     21  C   UNL     1     150.687 158.098 150.291  0.00  0.00    +0.000 A 
ATOM     22  C   UNL     1     150.617 159.149 151.205  0.00  0.00    +0.000 A 
ATOM     23  C   UNL     1     151.771 159.608 151.843  0.00  0.00    +0.000 A 
ATOM     24  C   UNL     1     149.309 159.762 151.481  0.00  0.00    +0.000 A 
ATOM     25  C   UNL     1     148.351 158.178 149.900  0.00  0.00    +0.000 A 
ATOM     26  C   UNL     1     148.156 159.197 150.752  0.00  0.00    +0.000 A 
ENDROOT
BRANCH  25  27
ATOM     27  C   UNL     1     147.238 157.579 149.137  0.00  0.00    +0.000 A 
ATOM     28  C   UNL     1     147.240 157.623 147.741  0.00  0.00    +0.000 A 
ATOM     29  C   UNL     1     146.176 156.967 149.808  0.00  0.00    +0.000 A 
ATOM     30  C   UNL     1     146.188 157.057 147.020  0.00  0.00    +0.000 A 
ATOM     31  C   UNL     1     145.124 156.402 149.088  0.00  0.00    +0.000 A 
ATOM     32  C   UNL     1     145.130 156.448 147.694  0.00  0.00    +0.000 A 
BRANCH  32  11
ATOM     11  O   UNL     1     144.103 155.896 146.990  0.00  0.00    +0.000 OA
ATOM     39  H   UNL     1     144.282 154.949 146.862  0.00  0.00    +0.000 HD
ENDBRANCH  32  11
ENDBRANCH  25  27
BRANCH  20   8
ATOM      8  O   UNL     1     154.133 159.446 152.179  0.00  0.00    +0.000 OA
ATOM     37  H   UNL     1     154.394 158.788 152.846  0.00  0.00    +0.000 HD
ENDBRANCH  20   8
BRANCH  23   9
ATOM      9  O   UNL     1     151.741 160.631 152.742  0.00  0.00    +0.000 OA
ATOM     38  H   UNL     1     150.828 160.900 152.928  0.00  0.00    +0.000 HD
ENDBRANCH  23   9
BRANCH  18   2
ATOM      2  O   UNL     1     154.267 157.361 150.366  0.00  0.00    +0.000 OA
BRANCH   2  16
ATOM      1  O   UNL     1     153.321 155.231 150.493  0.00  0.00    +0.000 OA
ATOM     12  C   UNL     1     154.649 154.698 152.983  0.00  0.00    +0.000 C 
ATOM     13  C   UNL     1     153.514 153.820 152.455  0.00  0.00    +0.000 C 
ATOM     14  C   UNL     1     154.601 156.096 152.367  0.00  0.00    +0.000 C 
ATOM     15  C   UNL     1     153.450 153.877 150.926  0.00  0.00    +0.000 C 
ATOM     16  C   UNL     1     154.448 156.030 150.847  0.00  0.00    +0.000 C 
BRANCH  12   3
ATOM      3  O   UNL     1     154.507 154.796 154.401  0.00  0.00    +0.000 OA
ATOM     33  H   UNL     1     155.391 154.679 154.791  0.00  0.00    +0.000 HD
ENDBRANCH  12   3
BRANCH  13   4
ATOM      4  O   UNL     1     153.727 152.474 152.868  0.00  0.00    +0.000 OA
ATOM     34  H   UNL     1     153.434 152.393 153.792  0.00  0.00    +0.000 HD
ENDBRANCH  13   4
BRANCH  14   5
ATOM      5  O   UNL     1     155.814 156.786 152.664  0.00  0.00    +0.000 OA
ATOM     35  H   UNL     1     155.976 157.432 151.957  0.00  0.00    +0.000 HD
ENDBRANCH  14   5
BRANCH  15  17
ATOM     17  C   UNL     1     152.254 153.104 150.381  0.00  0.00    +0.000 C 
BRANCH  17   6
ATOM      6  O   UNL     1     151.291 152.976 151.411  0.00  0.00    +0.000 OA
ATOM     36  H   UNL     1     150.412 152.995 150.995  0.00  0.00    +0.000 HD
ENDBRANCH  17   6
ENDBRANCH  15  17
ENDBRANCH   2  16
ENDBRANCH  18   2
TORSDOF 11
ENDMDL
MODEL 4
REMARK VINA RESULT:      -8.7      8.538     13.127
REMARK  Name = 5320623
REMARK  11 active torsions:
REMARK  status: ('A' for Active; 'I' for Inactive)
REMARK    1  A    between atoms: O_2  and  C_16
REMARK    2  A    between atoms: O_2  and  C_18
REMARK    3  A    between atoms: O_3  and  C_12
REMARK    4  A    between atoms: O_4  and  C_13
REMARK    5  A    between atoms: O_5  and  C_14
REMARK    6  A    between atoms: O_6  and  C_17
REMARK    7  A    between atoms: O_8  and  C_20
REMARK    8  A    between atoms: O_9  and  C_23
REMARK    9  A    between atoms: O_11  and  C_32
REMARK   10  A    between atoms: C_15  and  C_17
REMARK   11  A    between atoms: C_25  and  C_27
REMARK                            x       y       z     vdW  Elec       q    Type
REMARK                         _______ _______ _______ _____ _____    ______ ____
ROOT
ATOM      7  O   UNL     1     152.174 166.183 149.514  0.00  0.00    +0.000 OA
ATOM     10  O   UNL     1     151.341 166.478 153.491  0.00  0.00    +0.000 OA
ATOM     18  C   UNL     1     152.291 162.644 150.379  0.00  0.00    +0.000 A 
ATOM     19  C   UNL     1     152.342 163.831 149.647  0.00  0.00    +0.000 A 
ATOM     20  C   UNL     1     152.009 162.676 151.746  0.00  0.00    +0.000 A 
ATOM     21  C   UNL     1     152.111 165.050 150.285  0.00  0.00    +0.000 A 
ATOM     22  C   UNL     1     151.829 165.079 151.650  0.00  0.00    +0.000 A 
ATOM     23  C   UNL     1     151.778 163.894 152.387  0.00  0.00    +0.000 A 
ATOM     24  C   UNL     1     151.590 166.378 152.297  0.00  0.00    +0.000 A 
ATOM     25  C   UNL     1     151.940 167.408 150.119  0.00  0.00    +0.000 A 
ATOM     26  C   UNL     1     151.667 167.566 151.424  0.00  0.00    +0.000 A 
ENDROOT
BRANCH  25  27
ATOM     27  C   UNL     1     152.040 168.560 149.200  0.00  0.00    +0.000 A 
ATOM     28  C   UNL     1     151.937 169.862 149.693  0.00  0.00    +0.000 A 
ATOM     29  C   UNL     1     152.234 168.351 147.832  0.00  0.00    +0.000 A 
ATOM     30  C   UNL     1     152.030 170.949 148.825  0.00  0.00    +0.000 A 
ATOM     31  C   UNL     1     152.327 169.438 146.964  0.00  0.00    +0.000 A 
ATOM     32  C   UNL     1     152.224 170.737 147.460  0.00  0.00    +0.000 A 
BRANCH  32  11
ATOM     11  O   UNL     1     152.315 171.799 146.612  0.00  0.00    +0.000 OA
ATOM     39  H   UNL     1     153.205 171.814 146.221  0.00  0.00    +0.000 HD
ENDBRANCH  32  11
ENDBRANCH  25  27
BRANCH  20   8
ATOM      8  O   UNL     1     151.962 161.510 152.454  0.00  0.00    +0.000 OA
ATOM     37  H   UNL     1     151.294 161.605 153.156  0.00  0.00    +0.000 HD
ENDBRANCH  20   8
BRANCH  23   9
ATOM      9  O   UNL     1     151.505 163.883 153.722  0.00  0.00    +0.000 OA
ATOM     38  H   UNL     1     150.582 163.632 153.882  0.00  0.00    +0.000 HD
ENDBRANCH  23   9
BRANCH  18   2
ATOM      2  O   UNL     1     152.518 161.457 149.745  0.00  0.00    +0.000 OA
BRANCH   2  16
ATOM      1  O   UNL     1     154.132 161.337 148.063  0.00  0.00    +0.000 OA
ATOM     12  C   UNL     1     155.508 159.212 149.420  0.00  0.00    +0.000 C 
ATOM     13  C   UNL     1     155.803 159.584 147.966  0.00  0.00    +0.000 C 
ATOM     14  C   UNL     1     154.115 159.680 149.839  0.00  0.00    +0.000 C 
ATOM     15  C   UNL     1     155.487 161.059 147.708  0.00  0.00    +0.000 C 
ATOM     16  C   UNL     1     153.879 161.141 149.453  0.00  0.00    +0.000 C 
BRANCH  12   3
ATOM      3  O   UNL     1     155.589 157.791 149.537  0.00  0.00    +0.000 OA
ATOM     33  H   UNL     1     156.457 157.579 149.919  0.00  0.00    +0.000 HD
ENDBRANCH  12   3
BRANCH  13   4
ATOM      4  O   UNL     1     157.179 159.341 147.687  0.00  0.00    +0.000 OA
ATOM     34  H   UNL     1     157.510 160.078 147.145  0.00  0.00    +0.000 HD
ENDBRANCH  13   4
BRANCH  14   5
ATOM      5  O   UNL     1     153.984 159.566 151.256  0.00  0.00    +0.000 OA
ATOM     35  H   UNL     1     154.857 159.353 151.624  0.00  0.00    +0.000 HD
ENDBRANCH  14   5
BRANCH  15  17
ATOM     17  C   UNL     1     155.661 161.426 146.238  0.00  0.00    +0.000 C 
BRANCH  17   6
ATOM      6  O   UNL     1     155.420 160.273 145.453  0.00  0.00    +0.000 OA
ATOM     36  H   UNL     1     155.519 160.527 144.519  0.00  0.00    +0.000 HD
ENDBRANCH  17   6
ENDBRANCH  15  17
ENDBRANCH   2  16
ENDBRANCH  18   2
TORSDOF 11
ENDMDL
MODEL 5
REMARK VINA RESULT:      -8.6      4.385      6.131
REMARK  Name = 5320623
REMARK  11 active torsions:
REMARK  status: ('A' for Active; 'I' for Inactive)
REMARK    1  A    between atoms: O_2  and  C_16
REMARK    2  A    between atoms: O_2  and  C_18
REMARK    3  A    between atoms: O_3  and  C_12
REMARK    4  A    between atoms: O_4  and  C_13
REMARK    5  A    between atoms: O_5  and  C_14
REMARK    6  A    between atoms: O_6  and  C_17
REMARK    7  A    between atoms: O_8  and  C_20
REMARK    8  A    between atoms: O_9  and  C_23
REMARK    9  A    between atoms: O_11  and  C_32
REMARK   10  A    between atoms: C_15  and  C_17
REMARK   11  A    between atoms: C_25  and  C_27
REMARK                            x       y       z     vdW  Elec       q    Type
REMARK                         _______ _______ _______ _____ _____    ______ ____
ROOT
ATOM      7  O   UNL     1     149.745 157.652 147.368  0.00  0.00    +0.000 OA
ATOM     10  O   UNL     1     146.120 155.817 147.678  0.00  0.00    +0.000 OA
ATOM     18  C   UNL     1     150.156 156.141 150.659  0.00  0.00    +0.000 A 
ATOM     19  C   UNL     1     150.410 156.862 149.492  0.00  0.00    +0.000 A 
ATOM     20  C   UNL     1     148.934 155.488 150.827  0.00  0.00    +0.000 A 
ATOM     21  C   UNL     1     149.438 156.928 148.493  0.00  0.00    +0.000 A 
ATOM     22  C   UNL     1     148.218 156.275 148.663  0.00  0.00    +0.000 A 
ATOM     23  C   UNL     1     147.961 155.553 149.830  0.00  0.00    +0.000 A 
ATOM     24  C   UNL     1     147.212 156.363 147.594  0.00  0.00    +0.000 A 
ATOM     25  C   UNL     1     148.801 157.729 146.355  0.00  0.00    +0.000 A 
ATOM     26  C   UNL     1     147.591 157.150 146.404  0.00  0.00    +0.000 A 
ENDROOT
BRANCH  25  27
ATOM     27  C   UNL     1     149.231 158.536 145.195  0.00  0.00    +0.000 A 
ATOM     28  C   UNL     1     149.330 159.925 145.304  0.00  0.00    +0.000 A 
ATOM     29  C   UNL     1     149.539 157.913 143.983  0.00  0.00    +0.000 A 
ATOM     30  C   UNL     1     149.735 160.686 144.209  0.00  0.00    +0.000 A 
ATOM     31  C   UNL     1     149.944 158.675 142.887  0.00  0.00    +0.000 A 
ATOM     32  C   UNL     1     150.041 160.062 143.000  0.00  0.00    +0.000 A 
BRANCH  32  11
ATOM     11  O   UNL     1     150.437 160.806 141.930  0.00  0.00    +0.000 OA
ATOM     39  H   UNL     1     150.510 160.226 141.153  0.00  0.00    +0.000 HD
ENDBRANCH  32  11
ENDBRANCH  25  27
BRANCH  20   8
ATOM      8  O   UNL     1     148.694 154.785 151.973  0.00  0.00    +0.000 OA
ATOM     37  H   UNL     1     147.857 155.101 152.356  0.00  0.00    +0.000 HD
ENDBRANCH  20   8
BRANCH  23   9
ATOM      9  O   UNL     1     146.781 154.901 150.031  0.00  0.00    +0.000 OA
ATOM     38  H   UNL     1     146.410 154.593 149.189  0.00  0.00    +0.000 HD
ENDBRANCH  23   9
BRANCH  18   2
ATOM      2  O   UNL     1     151.114 156.082 151.630  0.00  0.00    +0.000 OA
BRANCH   2  16
ATOM      1  O   UNL     1     152.326 154.089 151.565  0.00  0.00    +0.000 OA
ATOM     12  C   UNL     1     154.815 155.497 151.840  0.00  0.00    +0.000 C 
ATOM     13  C   UNL     1     154.706 153.982 152.015  0.00  0.00    +0.000 C 
ATOM     14  C   UNL     1     153.463 156.178 152.058  0.00  0.00    +0.000 C 
ATOM     15  C   UNL     1     153.536 153.424 151.201  0.00  0.00    +0.000 C 
ATOM     16  C   UNL     1     152.356 155.483 151.265  0.00  0.00    +0.000 C 
BRANCH  12   3
ATOM      3  O   UNL     1     155.754 155.986 152.799  0.00  0.00    +0.000 OA
ATOM     33  H   UNL     1     155.362 156.772 153.215  0.00  0.00    +0.000 HD
ENDBRANCH  12   3
BRANCH  13   4
ATOM      4  O   UNL     1     155.917 153.369 151.582  0.00  0.00    +0.000 OA
ATOM     34  H   UNL     1     156.121 153.703 150.692  0.00  0.00    +0.000 HD
ENDBRANCH  13   4
BRANCH  14   5
ATOM      5  O   UNL     1     153.542 157.535 151.621  0.00  0.00    +0.000 OA
ATOM     35  H   UNL     1     153.607 158.102 152.407  0.00  0.00    +0.000 HD
ENDBRANCH  14   5
BRANCH  15  17
ATOM     17  C   UNL     1     153.334 151.933 151.451  0.00  0.00    +0.000 C 
BRANCH  17   6
ATOM      6  O   UNL     1     154.193 151.530 152.501  0.00  0.00    +0.000 OA
ATOM     36  H   UNL     1     153.868 151.940 153.321  0.00  0.00    +0.000 HD
ENDBRANCH  17   6
ENDBRANCH  15  17
ENDBRANCH   2  16
ENDBRANCH  18   2
TORSDOF 11
ENDMDL
MODEL 6
REMARK VINA RESULT:      -8.6      5.224      8.197
REMARK  Name = 5320623
REMARK  11 active torsions:
REMARK  status: ('A' for Active; 'I' for Inactive)
REMARK    1  A    between atoms: O_2  and  C_16
REMARK    2  A    between atoms: O_2  and  C_18
REMARK    3  A    between atoms: O_3  and  C_12
REMARK    4  A    between atoms: O_4  and  C_13
REMARK    5  A    between atoms: O_5  and  C_14
REMARK    6  A    between atoms: O_6  and  C_17
REMARK    7  A    between atoms: O_8  and  C_20
REMARK    8  A    between atoms: O_9  and  C_23
REMARK    9  A    between atoms: O_11  and  C_32
REMARK   10  A    between atoms: C_15  and  C_17
REMARK   11  A    between atoms: C_25  and  C_27
REMARK                            x       y       z     vdW  Elec       q    Type
REMARK                         _______ _______ _______ _____ _____    ______ ____
ROOT
ATOM      7  O   UNL     1     150.504 160.167 148.525  0.00  0.00    +0.000 OA
ATOM     10  O   UNL     1     146.561 159.784 149.474  0.00  0.00    +0.000 OA
ATOM     18  C   UNL     1     150.546 156.729 149.733  0.00  0.00    +0.000 A 
ATOM     19  C   UNL     1     150.962 157.955 149.214  0.00  0.00    +0.000 A 
ATOM     20  C   UNL     1     149.208 156.532 150.077  0.00  0.00    +0.000 A 
ATOM     21  C   UNL     1     150.037 158.984 149.039  0.00  0.00    +0.000 A 
ATOM     22  C   UNL     1     148.701 158.785 149.384  0.00  0.00    +0.000 A 
ATOM     23  C   UNL     1     148.281 157.559 149.905  0.00  0.00    +0.000 A 
ATOM     24  C   UNL     1     147.747 159.888 149.191  0.00  0.00    +0.000 A 
ATOM     25  C   UNL     1     149.606 161.205 148.333  0.00  0.00    +0.000 A 
ATOM     26  C   UNL     1     148.299 161.138 148.632  0.00  0.00    +0.000 A 
ENDROOT
BRANCH  25  27
ATOM     27  C   UNL     1     150.215 162.432 147.782  0.00  0.00    +0.000 A 
ATOM     28  C   UNL     1     151.474 162.381 147.178  0.00  0.00    +0.000 A 
ATOM     29  C   UNL     1     149.536 163.650 147.863  0.00  0.00    +0.000 A 
ATOM     30  C   UNL     1     152.049 163.540 146.658  0.00  0.00    +0.000 A 
ATOM     31  C   UNL     1     150.111 164.810 147.343  0.00  0.00    +0.000 A 
ATOM     32  C   UNL     1     151.368 164.754 146.741  0.00  0.00    +0.000 A 
BRANCH  32  11
ATOM     11  O   UNL     1     151.930 165.886 146.233  0.00  0.00    +0.000 OA
ATOM     39  H   UNL     1     152.299 165.688 145.356  0.00  0.00    +0.000 HD
ENDBRANCH  32  11
ENDBRANCH  25  27
BRANCH  20   8
ATOM      8  O   UNL     1     148.811 155.329 150.585  0.00  0.00    +0.000 OA
ATOM     37  H   UNL     1     149.236 155.206 151.452  0.00  0.00    +0.000 HD
ENDBRANCH  20   8
BRANCH  23   9
ATOM      9  O   UNL     1     146.983 157.328 150.251  0.00  0.00    +0.000 OA
ATOM     38  H   UNL     1     146.740 157.841 151.038  0.00  0.00    +0.000 HD
ENDBRANCH  23   9
BRANCH  18   2
ATOM      2  O   UNL     1     151.460 155.728 149.899  0.00  0.00    +0.000 OA
BRANCH   2  16
ATOM      1  O   UNL     1     153.178 156.409 151.324  0.00  0.00    +0.000 OA
ATOM     12  C   UNL     1     153.132 153.897 152.716  0.00  0.00    +0.000 C 
ATOM     13  C   UNL     1     154.270 154.905 152.881  0.00  0.00    +0.000 C 
ATOM     14  C   UNL     1     152.386 154.114 151.399  0.00  0.00    +0.000 C 
ATOM     15  C   UNL     1     153.775 156.330 152.619  0.00  0.00    +0.000 C 
ATOM     16  C   UNL     1     152.020 155.586 151.203  0.00  0.00    +0.000 C 
BRANCH  12   3
ATOM      3  O   UNL     1     153.699 152.586 152.732  0.00  0.00    +0.000 OA
ATOM     33  H   UNL     1     154.656 152.681 152.591  0.00  0.00    +0.000 HD
ENDBRANCH  12   3
BRANCH  13   4
ATOM      4  O   UNL     1     154.786 154.822 154.206  0.00  0.00    +0.000 OA
ATOM     34  H   UNL     1     154.817 153.883 154.458  0.00  0.00    +0.000 HD
ENDBRANCH  13   4
BRANCH  14   5
ATOM      5  O   UNL     1     151.180 153.351 151.407  0.00  0.00    +0.000 OA
ATOM     35  H   UNL     1     150.699 153.537 150.584  0.00  0.00    +0.000 HD
ENDBRANCH  14   5
BRANCH  15  17
ATOM     17  C   UNL     1     154.916 157.341 152.662  0.00  0.00    +0.000 C 
BRANCH  17   6
ATOM      6  O   UNL     1     156.142 156.638 152.737  0.00  0.00    +0.000 OA
ATOM     36  H   UNL     1     156.280 156.196 151.882  0.00  0.00    +0.000 HD
ENDBRANCH  17   6
ENDBRANCH  15  17
ENDBRANCH   2  16
ENDBRANCH  18   2
TORSDOF 11
ENDMDL
MODEL 7
REMARK VINA RESULT:      -8.6      4.860      9.951
REMARK  Name = 5320623
REMARK  11 active torsions:
REMARK  status: ('A' for Active; 'I' for Inactive)
REMARK    1  A    between atoms: O_2  and  C_16
REMARK    2  A    between atoms: O_2  and  C_18
REMARK    3  A    between atoms: O_3  and  C_12
REMARK    4  A    between atoms: O_4  and  C_13
REMARK    5  A    between atoms: O_5  and  C_14
REMARK    6  A    between atoms: O_6  and  C_17
REMARK    7  A    between atoms: O_8  and  C_20
REMARK    8  A    between atoms: O_9  and  C_23
REMARK    9  A    between atoms: O_11  and  C_32
REMARK   10  A    between atoms: C_15  and  C_17
REMARK   11  A    between atoms: C_25  and  C_27
REMARK                            x       y       z     vdW  Elec       q    Type
REMARK                         _______ _______ _______ _____ _____    ______ ____
ROOT
ATOM      7  O   UNL     1     151.941 161.836 151.720  0.00  0.00    +0.000 OA
ATOM     10  O   UNL     1     149.300 160.871 148.772  0.00  0.00    +0.000 OA
ATOM     18  C   UNL     1     152.022 158.208 152.055  0.00  0.00    +0.000 A 
ATOM     19  C   UNL     1     152.282 159.563 152.262  0.00  0.00    +0.000 A 
ATOM     20  C   UNL     1     151.128 157.810 151.060  0.00  0.00    +0.000 A 
ATOM     21  C   UNL     1     151.646 160.520 151.470  0.00  0.00    +0.000 A 
ATOM     22  C   UNL     1     150.753 160.120 150.477  0.00  0.00    +0.000 A 
ATOM     23  C   UNL     1     150.490 158.765 150.268  0.00  0.00    +0.000 A 
ATOM     24  C   UNL     1     150.096 161.150 149.658  0.00  0.00    +0.000 A 
ATOM     25  C   UNL     1     151.330 162.809 150.943  0.00  0.00    +0.000 A 
ATOM     26  C   UNL     1     150.449 162.550 149.964  0.00  0.00    +0.000 A 
ENDROOT
BRANCH  25  27
ATOM     27  C   UNL     1     151.714 164.190 151.300  0.00  0.00    +0.000 A 
ATOM     28  C   UNL     1     151.622 164.624 152.624  0.00  0.00    +0.000 A 
ATOM     29  C   UNL     1     152.168 165.068 150.313  0.00  0.00    +0.000 A 
ATOM     30  C   UNL     1     151.984 165.929 152.960  0.00  0.00    +0.000 A 
ATOM     31  C   UNL     1     152.530 166.373 150.649  0.00  0.00    +0.000 A 
ATOM     32  C   UNL     1     152.437 166.803 151.972  0.00  0.00    +0.000 A 
BRANCH  32  11
ATOM     11  O   UNL     1     152.790 168.076 152.300  0.00  0.00    +0.000 OA
ATOM     39  H   UNL     1     152.149 168.692 151.907  0.00  0.00    +0.000 HD
ENDBRANCH  32  11
ENDBRANCH  25  27
BRANCH  20   8
ATOM      8  O   UNL     1     150.879 156.482 150.866  0.00  0.00    +0.000 OA
ATOM     37  H   UNL     1     151.628 155.975 151.224  0.00  0.00    +0.000 HD
ENDBRANCH  20   8
BRANCH  23   9
ATOM      9  O   UNL     1     149.625 158.336 149.306  0.00  0.00    +0.000 OA
ATOM     38  H   UNL     1     148.767 158.780 149.393  0.00  0.00    +0.000 HD
ENDBRANCH  23   9
BRANCH  18   2
ATOM      2  O   UNL     1     152.651 157.281 152.835  0.00  0.00    +0.000 OA
BRANCH   2  16
ATOM      1  O   UNL     1     152.872 155.060 152.152  0.00  0.00    +0.000 OA
ATOM     12  C   UNL     1     155.736 155.201 152.338  0.00  0.00    +0.000 C 
ATOM     13  C   UNL     1     154.987 153.876 152.194  0.00  0.00    +0.000 C 
ATOM     14  C   UNL     1     154.826 156.292 152.904  0.00  0.00    +0.000 C 
ATOM     15  C   UNL     1     153.655 154.079 151.469  0.00  0.00    +0.000 C 
ATOM     16  C   UNL     1     153.491 156.345 152.161  0.00  0.00    +0.000 C 
BRANCH  12   3
ATOM      3  O   UNL     1     156.837 154.993 153.222  0.00  0.00    +0.000 OA
ATOM     33  H   UNL     1     157.521 155.646 152.995  0.00  0.00    +0.000 HD
ENDBRANCH  12   3
BRANCH  13   4
ATOM      4  O   UNL     1     155.790 152.958 151.456  0.00  0.00    +0.000 OA
ATOM     34  H   UNL     1     156.658 152.902 151.890  0.00  0.00    +0.000 HD
ENDBRANCH  13   4
BRANCH  14   5
ATOM      5  O   UNL     1     155.465 157.560 152.766  0.00  0.00    +0.000 OA
ATOM     35  H   UNL     1     154.982 158.204 153.311  0.00  0.00    +0.000 HD
ENDBRANCH  14   5
BRANCH  15  17
ATOM     17  C   UNL     1     152.837 152.794 151.417  0.00  0.00    +0.000 C 
BRANCH  17   6
ATOM      6  O   UNL     1     153.460 151.827 152.242  0.00  0.00    +0.000 OA
ATOM     36  H   UNL     1     154.011 151.264 151.670  0.00  0.00    +0.000 HD
ENDBRANCH  17   6
ENDBRANCH  15  17
ENDBRANCH   2  16
ENDBRANCH  18   2
TORSDOF 11
ENDMDL
MODEL 8
REMARK VINA RESULT:      -8.5      3.467      5.176
REMARK  Name = 5320623
REMARK  11 active torsions:
REMARK  status: ('A' for Active; 'I' for Inactive)
REMARK    1  A    between atoms: O_2  and  C_16
REMARK    2  A    between atoms: O_2  and  C_18
REMARK    3  A    between atoms: O_3  and  C_12
REMARK    4  A    between atoms: O_4  and  C_13
REMARK    5  A    between atoms: O_5  and  C_14
REMARK    6  A    between atoms: O_6  and  C_17
REMARK    7  A    between atoms: O_8  and  C_20
REMARK    8  A    between atoms: O_9  and  C_23
REMARK    9  A    between atoms: O_11  and  C_32
REMARK   10  A    between atoms: C_15  and  C_17
REMARK   11  A    between atoms: C_25  and  C_27
REMARK                            x       y       z     vdW  Elec       q    Type
REMARK                         _______ _______ _______ _____ _____    ______ ____
ROOT
ATOM      7  O   UNL     1     150.233 150.323 144.817  0.00  0.00    +0.000 OA
ATOM     10  O   UNL     1     153.590 151.307 142.728  0.00  0.00    +0.000 OA
ATOM     18  C   UNL     1     152.275 151.551 147.575  0.00  0.00    +0.000 A 
ATOM     19  C   UNL     1     151.205 151.020 146.853  0.00  0.00    +0.000 A 
ATOM     20  C   UNL     1     153.453 151.910 146.920  0.00  0.00    +0.000 A 
ATOM     21  C   UNL     1     151.317 150.849 145.473  0.00  0.00    +0.000 A 
ATOM     22  C   UNL     1     152.495 151.209 144.820  0.00  0.00    +0.000 A 
ATOM     23  C   UNL     1     153.568 151.740 145.540  0.00  0.00    +0.000 A 
ATOM     24  C   UNL     1     152.586 151.016 143.365  0.00  0.00    +0.000 A 
ATOM     25  C   UNL     1     150.313 150.149 143.444  0.00  0.00    +0.000 A 
ATOM     26  C   UNL     1     151.393 150.450 142.706  0.00  0.00    +0.000 A 
ENDROOT
BRANCH  25  27
ATOM     27  C   UNL     1     149.095 149.571 142.841  0.00  0.00    +0.000 A 
ATOM     28  C   UNL     1     147.841 150.112 143.135  0.00  0.00    +0.000 A 
ATOM     29  C   UNL     1     149.192 148.479 141.975  0.00  0.00    +0.000 A 
ATOM     30  C   UNL     1     146.691 149.566 142.566  0.00  0.00    +0.000 A 
ATOM     31  C   UNL     1     148.042 147.932 141.406  0.00  0.00    +0.000 A 
ATOM     32  C   UNL     1     146.792 148.475 141.702  0.00  0.00    +0.000 A 
BRANCH  32  11
ATOM     11  O   UNL     1     145.669 147.942 141.146  0.00  0.00    +0.000 OA
ATOM     39  H   UNL     1     144.968 148.615 141.145  0.00  0.00    +0.000 HD
ENDBRANCH  32  11
ENDBRANCH  25  27
BRANCH  20   8
ATOM      8  O   UNL     1     154.494 152.428 147.634  0.00  0.00    +0.000 OA
ATOM     37  H   UNL     1     154.285 152.348 148.581  0.00  0.00    +0.000 HD
ENDBRANCH  20   8
BRANCH  23   9
ATOM      9  O   UNL     1     154.734 152.103 144.936  0.00  0.00    +0.000 OA
ATOM     38  H   UNL     1     154.689 151.949 143.979  0.00  0.00    +0.000 HD
ENDBRANCH  23   9
BRANCH  18   2
ATOM      2  O   UNL     1     152.154 151.715 148.925  0.00  0.00    +0.000 OA
BRANCH   2  16
ATOM      1  O   UNL     1     153.488 153.048 150.300  0.00  0.00    +0.000 OA
ATOM     12  C   UNL     1     151.285 154.796 150.883  0.00  0.00    +0.000 C 
ATOM     13  C   UNL     1     152.589 154.826 151.681  0.00  0.00    +0.000 C 
ATOM     14  C   UNL     1     151.096 153.451 150.182  0.00  0.00    +0.000 C 
ATOM     15  C   UNL     1     153.762 154.349 150.821  0.00  0.00    +0.000 C 
ATOM     16  C   UNL     1     152.359 153.034 149.429  0.00  0.00    +0.000 C 
BRANCH  12   3
ATOM      3  O   UNL     1     150.206 155.014 151.794  0.00  0.00    +0.000 OA
ATOM     33  H   UNL     1     150.453 154.607 152.641  0.00  0.00    +0.000 HD
ENDBRANCH  12   3
BRANCH  13   4
ATOM      4  O   UNL     1     152.840 156.157 152.124  0.00  0.00    +0.000 OA
ATOM     34  H   UNL     1     152.006 156.654 152.071  0.00  0.00    +0.000 HD
ENDBRANCH  13   4
BRANCH  14   5
ATOM      5  O   UNL     1     150.028 153.555 149.240  0.00  0.00    +0.000 OA
ATOM     35  H   UNL     1     149.487 154.325 149.480  0.00  0.00    +0.000 HD
ENDBRANCH  14   5
BRANCH  15  17
ATOM     17  C   UNL     1     155.053 154.258 151.628  0.00  0.00    +0.000 C 
BRANCH  17   6
ATOM      6  O   UNL     1     155.429 152.897 151.728  0.00  0.00    +0.000 OA
ATOM     36  H   UNL     1     155.067 152.434 150.953  0.00  0.00    +0.000 HD
ENDBRANCH  17   6
ENDBRANCH  15  17
ENDBRANCH   2  16
ENDBRANCH  18   2
TORSDOF 11
ENDMDL
MODEL 9
REMARK VINA RESULT:      -8.5      1.796      2.967
REMARK  Name = 5320623
REMARK  11 active torsions:
REMARK  status: ('A' for Active; 'I' for Inactive)
REMARK    1  A    between atoms: O_2  and  C_16
REMARK    2  A    between atoms: O_2  and  C_18
REMARK    3  A    between atoms: O_3  and  C_12
REMARK    4  A    between atoms: O_4  and  C_13
REMARK    5  A    between atoms: O_5  and  C_14
REMARK    6  A    between atoms: O_6  and  C_17
REMARK    7  A    between atoms: O_8  and  C_20
REMARK    8  A    between atoms: O_9  and  C_23
REMARK    9  A    between atoms: O_11  and  C_32
REMARK   10  A    between atoms: C_15  and  C_17
REMARK   11  A    between atoms: C_25  and  C_27
REMARK                            x       y       z     vdW  Elec       q    Type
REMARK                         _______ _______ _______ _____ _____    ______ ____
ROOT
ATOM      7  O   UNL     1     151.752 153.825 146.942  0.00  0.00    +0.000 OA
ATOM     10  O   UNL     1     147.752 153.086 147.182  0.00  0.00    +0.000 OA
ATOM     18  C   UNL     1     150.915 156.123 149.644  0.00  0.00    +0.000 A 
ATOM     19  C   UNL     1     151.639 155.413 148.687  0.00  0.00    +0.000 A 
ATOM     20  C   UNL     1     149.541 155.915 149.779  0.00  0.00    +0.000 A 
ATOM     21  C   UNL     1     150.987 154.494 147.864  0.00  0.00    +0.000 A 
ATOM     22  C   UNL     1     149.615 154.288 148.000  0.00  0.00    +0.000 A 
ATOM     23  C   UNL     1     148.886 154.998 148.957  0.00  0.00    +0.000 A 
ATOM     24  C   UNL     1     148.953 153.315 147.119  0.00  0.00    +0.000 A 
ATOM     25  C   UNL     1     151.132 152.900 146.116  0.00  0.00    +0.000 A 
ATOM     26  C   UNL     1     149.819 152.620 146.146  0.00  0.00    +0.000 A 
ENDROOT
BRANCH  25  27
ATOM     27  C   UNL     1     152.045 152.245 145.158  0.00  0.00    +0.000 A 
ATOM     28  C   UNL     1     153.422 152.460 145.241  0.00  0.00    +0.000 A 
ATOM     29  C   UNL     1     151.534 151.408 144.162  0.00  0.00    +0.000 A 
ATOM     30  C   UNL     1     154.284 151.841 144.336  0.00  0.00    +0.000 A 
ATOM     31  C   UNL     1     152.396 150.789 143.257  0.00  0.00    +0.000 A 
ATOM     32  C   UNL     1     153.771 151.006 143.343  0.00  0.00    +0.000 A 
BRANCH  32  11
ATOM     11  O   UNL     1     154.612 150.402 142.460  0.00  0.00    +0.000 OA
ATOM     39  H   UNL     1     154.167 150.334 141.598  0.00  0.00    +0.000 HD
ENDBRANCH  32  11
ENDBRANCH  25  27
BRANCH  20   8
ATOM      8  O   UNL     1     148.840 156.615 150.718  0.00  0.00    +0.000 OA
ATOM     37  H   UNL     1     148.904 156.141 151.565  0.00  0.00    +0.000 HD
ENDBRANCH  20   8
BRANCH  23   9
ATOM      9  O   UNL     1     147.544 154.822 149.120  0.00  0.00    +0.000 OA
ATOM     38  H   UNL     1     147.047 155.399 148.521  0.00  0.00    +0.000 HD
ENDBRANCH  23   9
BRANCH  18   2
ATOM      2  O   UNL     1     151.563 157.019 150.444  0.00  0.00    +0.000 OA
BRANCH   2  16
ATOM      1  O   UNL     1     153.050 155.461 151.343  0.00  0.00    +0.000 OA
ATOM     12  C   UNL     1     154.865 157.535 152.151  0.00  0.00    +0.000 C 
ATOM     13  C   UNL     1     154.988 156.096 152.653  0.00  0.00    +0.000 C 
ATOM     14  C   UNL     1     153.445 157.835 151.672  0.00  0.00    +0.000 C 
ATOM     15  C   UNL     1     154.404 155.114 151.635  0.00  0.00    +0.000 C 
ATOM     16  C   UNL     1     152.933 156.743 150.731  0.00  0.00    +0.000 C 
BRANCH  12   3
ATOM      3  O   UNL     1     155.198 158.409 153.231  0.00  0.00    +0.000 OA
ATOM     33  H   UNL     1     154.711 158.102 154.014  0.00  0.00    +0.000 HD
ENDBRANCH  12   3
BRANCH  13   4
ATOM      4  O   UNL     1     156.362 155.788 152.871  0.00  0.00    +0.000 OA
ATOM     34  H   UNL     1     156.635 155.140 152.199  0.00  0.00    +0.000 HD
ENDBRANCH  13   4
BRANCH  14   5
ATOM      5  O   UNL     1     153.436 159.074 150.965  0.00  0.00    +0.000 OA
ATOM     35  H   UNL     1     153.796 159.760 151.551  0.00  0.00    +0.000 HD
ENDBRANCH  14   5
BRANCH  15  17
ATOM     17  C   UNL     1     154.408 153.683 152.164  0.00  0.00    +0.000 C 
BRANCH  17   6
ATOM      6  O   UNL     1     155.655 153.090 151.855  0.00  0.00    +0.000 OA
ATOM     36  H   UNL     1     156.279 153.332 152.561  0.00  0.00    +0.000 HD
ENDBRANCH  17   6
ENDBRANCH  15  17
ENDBRANCH   2  16
ENDBRANCH  18   2
TORSDOF 11
ENDMDL
MODEL 10
REMARK VINA RESULT:      -8.5      5.099      8.249
REMARK  Name = 5320623
REMARK  11 active torsions:
REMARK  status: ('A' for Active; 'I' for Inactive)
REMARK    1  A    between atoms: O_2  and  C_16
REMARK    2  A    between atoms: O_2  and  C_18
REMARK    3  A    between atoms: O_3  and  C_12
REMARK    4  A    between atoms: O_4  and  C_13
REMARK    5  A    between atoms: O_5  and  C_14
REMARK    6  A    between atoms: O_6  and  C_17
REMARK    7  A    between atoms: O_8  and  C_20
REMARK    8  A    between atoms: O_9  and  C_23
REMARK    9  A    between atoms: O_11  and  C_32
REMARK   10  A    between atoms: C_15  and  C_17
REMARK   11  A    between atoms: C_25  and  C_27
REMARK                            x       y       z     vdW  Elec       q    Type
REMARK                         _______ _______ _______ _____ _____    ______ ____
ROOT
ATOM      7  O   UNL     1     150.908 160.599 148.958  0.00  0.00    +0.000 OA
ATOM     10  O   UNL     1     147.594 158.690 147.553  0.00  0.00    +0.000 OA
ATOM     18  C   UNL     1     151.074 157.593 151.013  0.00  0.00    +0.000 A 
ATOM     19  C   UNL     1     151.378 158.837 150.459  0.00  0.00    +0.000 A 
ATOM     20  C   UNL     1     149.953 156.887 150.575  0.00  0.00    +0.000 A 
ATOM     21  C   UNL     1     150.559 159.373 149.465  0.00  0.00    +0.000 A 
ATOM     22  C   UNL     1     149.439 158.665 149.029  0.00  0.00    +0.000 A 
ATOM     23  C   UNL     1     149.131 157.420 149.582  0.00  0.00    +0.000 A 
ATOM     24  C   UNL     1     148.592 159.254 147.981  0.00  0.00    +0.000 A 
ATOM     25  C   UNL     1     150.117 161.152 147.964  0.00  0.00    +0.000 A 
ATOM     26  C   UNL     1     149.012 160.573 147.467  0.00  0.00    +0.000 A 
ENDROOT
BRANCH  25  27
ATOM     27  C   UNL     1     150.579 162.474 147.495  0.00  0.00    +0.000 A 
ATOM     28  C   UNL     1     149.728 163.580 147.561  0.00  0.00    +0.000 A 
ATOM     29  C   UNL     1     151.870 162.624 146.981  0.00  0.00    +0.000 A 
ATOM     30  C   UNL     1     150.166 164.828 147.118  0.00  0.00    +0.000 A 
ATOM     31  C   UNL     1     152.307 163.872 146.538  0.00  0.00    +0.000 A 
ATOM     32  C   UNL     1     151.455 164.974 146.605  0.00  0.00    +0.000 A 
BRANCH  32  11
ATOM     11  O   UNL     1     151.882 166.192 146.173  0.00  0.00    +0.000 OA
ATOM     39  H   UNL     1     151.570 166.873 146.793  0.00  0.00    +0.000 HD
ENDBRANCH  32  11
ENDBRANCH  25  27
BRANCH  20   8
ATOM      8  O   UNL     1     149.663 155.671 151.124  0.00  0.00    +0.000 OA
ATOM     37  H   UNL     1     150.300 155.020 150.781  0.00  0.00    +0.000 HD
ENDBRANCH  20   8
BRANCH  23   9
ATOM      9  O   UNL     1     148.047 156.699 149.180  0.00  0.00    +0.000 OA
ATOM     38  H   UNL     1     148.280 155.765 149.060  0.00  0.00    +0.000 HD
ENDBRANCH  23   9
BRANCH  18   2
ATOM      2  O   UNL     1     151.883 157.078 151.985  0.00  0.00    +0.000 OA
BRANCH   2  16
ATOM      1  O   UNL     1     152.585 154.867 151.727  0.00  0.00    +0.000 OA
ATOM     12  C   UNL     1     155.337 155.613 152.077  0.00  0.00    +0.000 C 
ATOM     13  C   UNL     1     154.869 154.158 152.123  0.00  0.00    +0.000 C 
ATOM     14  C   UNL     1     154.186 156.574 152.377  0.00  0.00    +0.000 C 
ATOM     15  C   UNL     1     153.602 153.968 151.285  0.00  0.00    +0.000 C 
ATOM     16  C   UNL     1     152.947 156.235 151.547  0.00  0.00    +0.000 C 
BRANCH  12   3
ATOM      3  O   UNL     1     156.363 155.778 153.057  0.00  0.00    +0.000 OA
ATOM     33  H   UNL     1     156.576 154.896 153.406  0.00  0.00    +0.000 HD
ENDBRANCH  12   3
BRANCH  13   4
ATOM      4  O   UNL     1     155.900 153.315 151.617  0.00  0.00    +0.000 OA
ATOM     34  H   UNL     1     156.313 153.766 150.861  0.00  0.00    +0.000 HD
ENDBRANCH  13   4
BRANCH  14   5
ATOM      5  O   UNL     1     154.587 157.906 152.056  0.00  0.00    +0.000 OA
ATOM     35  H   UNL     1     154.287 158.493 152.771  0.00  0.00    +0.000 HD
ENDBRANCH  14   5
BRANCH  15  17
ATOM     17  C   UNL     1     153.049 152.552 151.410  0.00  0.00    +0.000 C 
BRANCH  17   6
ATOM      6  O   UNL     1     153.759 151.877 152.432  0.00  0.00    +0.000 OA
ATOM     36  H   UNL     1     154.178 151.096 152.032  0.00  0.00    +0.000 HD
ENDBRANCH  17   6
ENDBRANCH  15  17
ENDBRANCH   2  16
ENDBRANCH  18   2
TORSDOF 11
ENDMDL
