MODEL 1
REMARK VINA RESULT:      -9.6      0.000      0.000
REMARK  6 active torsions:
REMARK  status: ('A' for Active; 'I' for Inactive)
REMARK    1  A    between atoms: O_2  and  C_9 
REMARK    2  A    between atoms: O_4  and  C_14 
REMARK    3  A    between atoms: O_5  and  C_19 
REMARK    4  A    between atoms: O_6  and  C_20 
REMARK    5  A    between atoms: O_7  and  C_22 
REMARK    6  A    between atoms: C_8  and  C_10 
ROOT
HETATM    1  O   UNK     0      16.713  36.127  26.991  0.00  0.00    -0.337 OA
HETATM    2  O   UNK     0      19.230  39.195  25.946  0.00  0.00    -0.289 OA
HETATM    3  C   UNK     0      17.969  35.872  26.342  0.00  0.00     0.198 C 
HETATM    4  C   UNK     0      19.013  36.921  26.726  0.00  0.00     0.227 C 
HETATM    5  C   UNK     0      18.500  38.288  26.327  0.00  0.00     0.196 C 
HETATM    6  C   UNK     0      17.043  38.484  26.458  0.00  0.00     0.079 A 
HETATM    7  C   UNK     0      16.236  37.396  26.798  0.00  0.00     0.089 A 
HETATM    8  C   UNK     0      16.480  39.750  26.274  0.00  0.00     0.085 A 
HETATM    9  C   UNK     0      14.866  37.583  26.989  0.00  0.00     0.074 A 
HETATM   10  C   UNK     0      15.108  39.926  26.447  0.00  0.00     0.074 A 
HETATM   11  C   UNK     0      14.302  38.847  26.808  0.00  0.00     0.071 A 
ENDROOT
BRANCH   3  12
HETATM   12  C   UNK     0      18.404  34.474  26.738  0.00  0.00    -0.023 A 
HETATM   13  C   UNK     0      18.314  34.070  28.068  0.00  0.00     0.049 A 
HETATM   14  C   UNK     0      18.714  32.784  28.433  0.00  0.00     0.099 A 
HETATM   15  C   UNK     0      19.204  31.906  27.466  0.00  0.00     0.098 A 
HETATM   16  C   UNK     0      19.292  32.313  26.134  0.00  0.00     0.040 A 
HETATM   17  C   UNK     0      18.893  33.598  25.771  0.00  0.00     0.013 A 
BRANCH  14  18
HETATM   18  O   UNK     0      18.623  32.398  29.736  0.00  0.00    -0.358 OA
HETATM   19  H   UNK     0      19.382  31.824  29.939  0.00  0.00     0.217 HD
ENDBRANCH  14  18
BRANCH  15  20
HETATM   20  O   UNK     0      19.597  30.647  27.809  0.00  0.00    -0.358 OA
HETATM   21  H   UNK     0      18.875  30.212  28.296  0.00  0.00     0.217 HD
ENDBRANCH  15  20
ENDBRANCH   3  12
BRANCH   4  22
HETATM   22  O   UNK     0      20.224  36.684  26.029  0.00  0.00    -0.385 OA
HETATM   23  H   UNK     0      20.956  36.886  26.636  0.00  0.00     0.210 HD
ENDBRANCH   4  22
BRANCH   8  24
HETATM   24  O   UNK     0      17.221  40.843  25.939  0.00  0.00    -0.360 OA
HETATM   25  H   UNK     0      17.641  40.720  25.074  0.00  0.00     0.217 HD
ENDBRANCH   8  24
BRANCH  11  26
HETATM   26  O   UNK     0      12.964  39.025  26.984  0.00  0.00    -0.361 OA
HETATM   27  H   UNK     0      12.512  38.875  26.136  0.00  0.00     0.217 HD
ENDBRANCH  11  26
TORSDOF 6
ENDMDL
MODEL 2
REMARK VINA RESULT:      -9.6     13.409     18.280
REMARK  6 active torsions:
REMARK  status: ('A' for Active; 'I' for Inactive)
REMARK    1  A    between atoms: O_2  and  C_9 
REMARK    2  A    between atoms: O_4  and  C_14 
REMARK    3  A    between atoms: O_5  and  C_19 
REMARK    4  A    between atoms: O_6  and  C_20 
REMARK    5  A    between atoms: O_7  and  C_22 
REMARK    6  A    between atoms: C_8  and  C_10 
ROOT
HETATM    1  O   UNK     0      27.857  22.063  24.715  0.00  0.00    -0.337 OA
HETATM    2  O   UNK     0      25.222  20.614  21.922  0.00  0.00    -0.289 OA
HETATM    3  C   UNK     0      26.875  22.915  24.105  0.00  0.00     0.198 C 
HETATM    4  C   UNK     0      25.606  22.136  23.756  0.00  0.00     0.227 C 
HETATM    5  C   UNK     0      25.969  21.014  22.807  0.00  0.00     0.196 C 
HETATM    6  C   UNK     0      27.287  20.389  23.034  0.00  0.00     0.079 A 
HETATM    7  C   UNK     0      28.147  20.941  23.986  0.00  0.00     0.089 A 
HETATM    8  C   UNK     0      27.658  19.243  22.327  0.00  0.00     0.085 A 
HETATM    9  C   UNK     0      29.369  20.321  24.256  0.00  0.00     0.074 A 
HETATM   10  C   UNK     0      28.887  18.640  22.586  0.00  0.00     0.074 A 
HETATM   11  C   UNK     0      29.740  19.174  23.553  0.00  0.00     0.071 A 
ENDROOT
BRANCH   3  12
HETATM   12  C   UNK     0      26.593  24.044  25.077  0.00  0.00    -0.023 A 
HETATM   13  C   UNK     0      26.217  23.753  26.387  0.00  0.00     0.049 A 
HETATM   14  C   UNK     0      25.957  24.791  27.283  0.00  0.00     0.099 A 
HETATM   15  C   UNK     0      26.072  26.117  26.865  0.00  0.00     0.098 A 
HETATM   16  C   UNK     0      26.449  26.405  25.553  0.00  0.00     0.040 A 
HETATM   17  C   UNK     0      26.709  25.368  24.658  0.00  0.00     0.013 A 
BRANCH  14  18
HETATM   18  O   UNK     0      25.591  24.498  28.561  0.00  0.00    -0.358 OA
HETATM   19  H   UNK     0      24.649  24.254  28.561  0.00  0.00     0.217 HD
ENDBRANCH  14  18
BRANCH  15  20
HETATM   20  O   UNK     0      25.822  27.140  27.730  0.00  0.00    -0.358 OA
HETATM   21  H   UNK     0      26.661  27.427  28.131  0.00  0.00     0.217 HD
ENDBRANCH  15  20
ENDBRANCH   3  12
BRANCH   4  22
HETATM   22  O   UNK     0      24.676  22.983  23.102  0.00  0.00    -0.385 OA
HETATM   23  H   UNK     0      25.078  23.268  22.264  0.00  0.00     0.210 HD
ENDBRANCH   4  22
BRANCH   8  24
HETATM   24  O   UNK     0      26.858  18.667  21.385  0.00  0.00    -0.360 OA
HETATM   25  H   UNK     0      26.301  19.334  20.955  0.00  0.00     0.217 HD
ENDBRANCH   8  24
BRANCH  11  26
HETATM   26  O   UNK     0      30.936  18.577  23.809  0.00  0.00    -0.361 OA
HETATM   27  H   UNK     0      31.435  19.126  24.438  0.00  0.00     0.217 HD
ENDBRANCH  11  26
TORSDOF 6
ENDMDL
MODEL 3
REMARK VINA RESULT:      -9.6     13.966     16.246
REMARK  6 active torsions:
REMARK  status: ('A' for Active; 'I' for Inactive)
REMARK    1  A    between atoms: O_2  and  C_9 
REMARK    2  A    between atoms: O_4  and  C_14 
REMARK    3  A    between atoms: O_5  and  C_19 
REMARK    4  A    between atoms: O_6  and  C_20 
REMARK    5  A    between atoms: O_7  and  C_22 
REMARK    6  A    between atoms: C_8  and  C_10 
ROOT
HETATM    1  O   UNK     0      23.306  34.118  13.683  0.00  0.00    -0.337 OA
HETATM    2  O   UNK     0      23.315  34.607   9.608  0.00  0.00    -0.289 OA
HETATM    3  C   UNK     0      23.984  35.224  13.066  0.00  0.00     0.198 C 
HETATM    4  C   UNK     0      23.281  35.659  11.780  0.00  0.00     0.227 C 
HETATM    5  C   UNK     0      23.244  34.486  10.825  0.00  0.00     0.196 C 
HETATM    6  C   UNK     0      23.077  33.160  11.452  0.00  0.00     0.079 A 
HETATM    7  C   UNK     0      23.101  33.056  12.844  0.00  0.00     0.089 A 
HETATM    8  C   UNK     0      22.867  32.026  10.662  0.00  0.00     0.085 A 
HETATM    9  C   UNK     0      22.880  31.817  13.449  0.00  0.00     0.074 A 
HETATM   10  C   UNK     0      22.666  30.788  11.272  0.00  0.00     0.074 A 
HETATM   11  C   UNK     0      22.667  30.684  12.663  0.00  0.00     0.071 A 
ENDROOT
BRANCH   3  12
HETATM   12  C   UNK     0      24.036  36.345  14.086  0.00  0.00    -0.023 A 
HETATM   13  C   UNK     0      23.037  37.315  14.102  0.00  0.00     0.049 A 
HETATM   14  C   UNK     0      23.083  38.347  15.040  0.00  0.00     0.099 A 
HETATM   15  C   UNK     0      24.131  38.406  15.959  0.00  0.00     0.098 A 
HETATM   16  C   UNK     0      25.130  37.433  15.942  0.00  0.00     0.040 A 
HETATM   17  C   UNK     0      25.083  36.402  15.005  0.00  0.00     0.013 A 
BRANCH  14  18
HETATM   18  O   UNK     0      22.102  39.291  15.048  0.00  0.00    -0.358 OA
HETATM   19  H   UNK     0      22.407  40.054  14.527  0.00  0.00     0.217 HD
ENDBRANCH  14  18
BRANCH  15  20
HETATM   20  O   UNK     0      24.187  39.408  16.881  0.00  0.00    -0.358 OA
HETATM   21  H   UNK     0      24.991  39.299  17.419  0.00  0.00     0.217 HD
ENDBRANCH  15  20
ENDBRANCH   3  12
BRANCH   4  22
HETATM   22  O   UNK     0      24.002  36.710  11.160  0.00  0.00    -0.385 OA
HETATM   23  H   UNK     0      23.471  37.027  10.410  0.00  0.00     0.210 HD
ENDBRANCH   4  22
BRANCH   8  24
HETATM   24  O   UNK     0      22.837  32.071   9.301  0.00  0.00    -0.360 OA
HETATM   25  H   UNK     0      23.574  32.601   8.960  0.00  0.00     0.217 HD
ENDBRANCH   8  24
BRANCH  11  26
HETATM   26  O   UNK     0      22.462  29.475  13.255  0.00  0.00    -0.361 OA
HETATM   27  H   UNK     0      22.024  28.883  12.620  0.00  0.00     0.217 HD
ENDBRANCH  11  26
TORSDOF 6
ENDMDL
MODEL 4
REMARK VINA RESULT:      -9.6     14.603     16.052
REMARK  6 active torsions:
REMARK  status: ('A' for Active; 'I' for Inactive)
REMARK    1  A    between atoms: O_2  and  C_9 
REMARK    2  A    between atoms: O_4  and  C_14 
REMARK    3  A    between atoms: O_5  and  C_19 
REMARK    4  A    between atoms: O_6  and  C_20 
REMARK    5  A    between atoms: O_7  and  C_22 
REMARK    6  A    between atoms: C_8  and  C_10 
ROOT
HETATM    1  O   UNK     0      22.801  33.268  13.084  0.00  0.00    -0.337 OA
HETATM    2  O   UNK     0      23.761  35.909  10.093  0.00  0.00    -0.289 OA
HETATM    3  C   UNK     0      22.524  32.967  11.707  0.00  0.00     0.198 C 
HETATM    4  C   UNK     0      23.561  33.604  10.781  0.00  0.00     0.227 C 
HETATM    5  C   UNK     0      23.544  35.102  10.990  0.00  0.00     0.196 C 
HETATM    6  C   UNK     0      23.284  35.550  12.372  0.00  0.00     0.079 A 
HETATM    7  C   UNK     0      22.943  34.605  13.342  0.00  0.00     0.089 A 
HETATM    8  C   UNK     0      23.405  36.900  12.713  0.00  0.00     0.085 A 
HETATM    9  C   UNK     0      22.758  35.008  14.666  0.00  0.00     0.074 A 
HETATM   10  C   UNK     0      23.199  37.299  14.033  0.00  0.00     0.074 A 
HETATM   11  C   UNK     0      22.881  36.355  15.009  0.00  0.00     0.071 A 
ENDROOT
BRANCH   3  12
HETATM   12  C   UNK     0      22.502  31.457  11.573  0.00  0.00    -0.023 A 
HETATM   13  C   UNK     0      22.757  30.657  12.685  0.00  0.00     0.049 A 
HETATM   14  C   UNK     0      22.737  29.267  12.563  0.00  0.00     0.099 A 
HETATM   15  C   UNK     0      22.462  28.681  11.327  0.00  0.00     0.098 A 
HETATM   16  C   UNK     0      22.206  29.483  10.215  0.00  0.00     0.040 A 
HETATM   17  C   UNK     0      22.227  30.872  10.338  0.00  0.00     0.013 A 
BRANCH  14  18
HETATM   18  O   UNK     0      22.987  28.494  13.655  0.00  0.00    -0.358 OA
HETATM   19  H   UNK     0      22.683  28.974  14.445  0.00  0.00     0.217 HD
ENDBRANCH  14  18
BRANCH  15  20
HETATM   20  O   UNK     0      22.438  27.325  11.195  0.00  0.00    -0.358 OA
HETATM   21  H   UNK     0      22.415  26.921  12.079  0.00  0.00     0.217 HD
ENDBRANCH  15  20
ENDBRANCH   3  12
BRANCH   4  22
HETATM   22  O   UNK     0      23.233  33.343   9.427  0.00  0.00    -0.385 OA
HETATM   23  H   UNK     0      23.987  33.627   8.883  0.00  0.00     0.210 HD
ENDBRANCH   4  22
BRANCH   8  24
HETATM   24  O   UNK     0      23.731  37.863  11.806  0.00  0.00    -0.360 OA
HETATM   25  H   UNK     0      23.877  37.473  10.930  0.00  0.00     0.217 HD
ENDBRANCH   8  24
BRANCH  11  26
HETATM   26  O   UNK     0      22.690  36.747  16.298  0.00  0.00    -0.361 OA
HETATM   27  H   UNK     0      22.943  37.683  16.385  0.00  0.00     0.217 HD
ENDBRANCH  11  26
TORSDOF 6
ENDMDL
MODEL 5
REMARK VINA RESULT:      -9.6     15.387     18.073
REMARK  6 active torsions:
REMARK  status: ('A' for Active; 'I' for Inactive)
REMARK    1  A    between atoms: O_2  and  C_9 
REMARK    2  A    between atoms: O_4  and  C_14 
REMARK    3  A    between atoms: O_5  and  C_19 
REMARK    4  A    between atoms: O_6  and  C_20 
REMARK    5  A    between atoms: O_7  and  C_22 
REMARK    6  A    between atoms: C_8  and  C_10 
ROOT
HETATM    1  O   UNK     0      22.694  30.317  12.466  0.00  0.00    -0.337 OA
HETATM    2  O   UNK     0      22.152  29.151   8.568  0.00  0.00    -0.289 OA
HETATM    3  C   UNK     0      23.127  31.143  11.374  0.00  0.00     0.198 C 
HETATM    4  C   UNK     0      22.221  30.970  10.154  0.00  0.00     0.227 C 
HETATM    5  C   UNK     0      22.243  29.516   9.735  0.00  0.00     0.196 C 
HETATM    6  C   UNK     0      22.346  28.537  10.835  0.00  0.00     0.079 A 
HETATM    7  C   UNK     0      22.549  28.996  12.138  0.00  0.00     0.089 A 
HETATM    8  C   UNK     0      22.212  27.170  10.580  0.00  0.00     0.085 A 
HETATM    9  C   UNK     0      22.583  28.084  13.195  0.00  0.00     0.074 A 
HETATM   10  C   UNK     0      22.266  26.262  11.637  0.00  0.00     0.074 A 
HETATM   11  C   UNK     0      22.446  26.718  12.943  0.00  0.00     0.071 A 
ENDROOT
BRANCH   3  12
HETATM   12  C   UNK     0      23.135  32.576  11.870  0.00  0.00    -0.023 A 
HETATM   13  C   UNK     0      22.768  32.858  13.184  0.00  0.00     0.049 A 
HETATM   14  C   UNK     0      22.775  34.176  13.642  0.00  0.00     0.099 A 
HETATM   15  C   UNK     0      23.147  35.209  12.782  0.00  0.00     0.098 A 
HETATM   16  C   UNK     0      23.514  34.926  11.466  0.00  0.00     0.040 A 
HETATM   17  C   UNK     0      23.507  33.608  11.010  0.00  0.00     0.013 A 
BRANCH  14  18
HETATM   18  O   UNK     0      22.416  34.441  14.928  0.00  0.00    -0.358 OA
HETATM   19  H   UNK     0      22.771  35.313  15.172  0.00  0.00     0.217 HD
ENDBRANCH  14  18
BRANCH  15  20
HETATM   20  O   UNK     0      23.158  36.501  13.217  0.00  0.00    -0.358 OA
HETATM   21  H   UNK     0      22.242  36.801  13.343  0.00  0.00     0.217 HD
ENDBRANCH  15  20
ENDBRANCH   3  12
BRANCH   4  22
HETATM   22  O   UNK     0      22.703  31.748   9.072  0.00  0.00    -0.385 OA
HETATM   23  H   UNK     0      23.565  31.384   8.810  0.00  0.00     0.210 HD
ENDBRANCH   4  22
BRANCH   8  24
HETATM   24  O   UNK     0      22.016  26.670   9.327  0.00  0.00    -0.360 OA
HETATM   25  H   UNK     0      22.350  27.285   8.657  0.00  0.00     0.217 HD
ENDBRANCH   8  24
BRANCH  11  26
HETATM   26  O   UNK     0      22.491  25.830  13.973  0.00  0.00    -0.361 OA
HETATM   27  H   UNK     0      22.192  24.960  13.654  0.00  0.00     0.217 HD
ENDBRANCH  11  26
TORSDOF 6
ENDMDL
MODEL 6
REMARK VINA RESULT:      -9.5     13.851     18.519
REMARK  6 active torsions:
REMARK  status: ('A' for Active; 'I' for Inactive)
REMARK    1  A    between atoms: O_2  and  C_9 
REMARK    2  A    between atoms: O_4  and  C_14 
REMARK    3  A    between atoms: O_5  and  C_19 
REMARK    4  A    between atoms: O_6  and  C_20 
REMARK    5  A    between atoms: O_7  and  C_22 
REMARK    6  A    between atoms: C_8  and  C_10 
ROOT
HETATM    1  O   UNK     0      27.596  21.427  25.033  0.00  0.00    -0.337 OA
HETATM    2  O   UNK     0      25.229  20.640  21.774  0.00  0.00    -0.289 OA
HETATM    3  C   UNK     0      26.900  22.479  24.347  0.00  0.00     0.198 C 
HETATM    4  C   UNK     0      25.583  21.976  23.753  0.00  0.00     0.227 C 
HETATM    5  C   UNK     0      25.883  20.849  22.789  0.00  0.00     0.196 C 
HETATM    6  C   UNK     0      27.009  19.971  23.166  0.00  0.00     0.079 A 
HETATM    7  C   UNK     0      27.789  20.303  24.276  0.00  0.00     0.089 A 
HETATM    8  C   UNK     0      27.272  18.807  22.440  0.00  0.00     0.085 A 
HETATM    9  C   UNK     0      28.815  19.447  24.680  0.00  0.00     0.074 A 
HETATM   10  C   UNK     0      28.311  17.966  22.837  0.00  0.00     0.074 A 
HETATM   11  C   UNK     0      29.078  18.282  23.958  0.00  0.00     0.071 A 
ENDROOT
BRANCH   3  12
HETATM   12  C   UNK     0      26.676  23.597  25.347  0.00  0.00    -0.023 A 
HETATM   13  C   UNK     0      26.843  24.923  24.953  0.00  0.00     0.049 A 
HETATM   14  C   UNK     0      26.638  25.952  25.873  0.00  0.00     0.099 A 
HETATM   15  C   UNK     0      26.266  25.652  27.183  0.00  0.00     0.098 A 
HETATM   16  C   UNK     0      26.098  24.324  27.574  0.00  0.00     0.040 A 
HETATM   17  C   UNK     0      26.304  23.295  26.655  0.00  0.00     0.013 A 
BRANCH  14  18
HETATM   18  O   UNK     0      26.803  27.245  25.479  0.00  0.00    -0.358 OA
HETATM   19  H   UNK     0      27.349  27.700  26.144  0.00  0.00     0.217 HD
ENDBRANCH  14  18
BRANCH  15  20
HETATM   20  O   UNK     0      26.061  26.649  28.090  0.00  0.00    -0.358 OA
HETATM   21  H   UNK     0      25.736  27.439  27.624  0.00  0.00     0.217 HD
ENDBRANCH  15  20
ENDBRANCH   3  12
BRANCH   4  22
HETATM   22  O   UNK     0      24.944  23.015  23.031  0.00  0.00    -0.385 OA
HETATM   23  H   UNK     0      25.594  23.382  22.407  0.00  0.00     0.210 HD
ENDBRANCH   4  22
BRANCH   8  24
HETATM   24  O   UNK     0      26.544  18.439  21.348  0.00  0.00    -0.360 OA
HETATM   25  H   UNK     0      26.904  17.631  20.953  0.00  0.00     0.217 HD
ENDBRANCH   8  24
BRANCH  11  26
HETATM   26  O   UNK     0      30.086  17.455  24.348  0.00  0.00    -0.361 OA
HETATM   27  H   UNK     0      30.053  17.349  25.314  0.00  0.00     0.217 HD
ENDBRANCH  11  26
TORSDOF 6
ENDMDL
MODEL 7
REMARK VINA RESULT:      -9.4     15.478     17.092
REMARK  6 active torsions:
REMARK  status: ('A' for Active; 'I' for Inactive)
REMARK    1  A    between atoms: O_2  and  C_9 
REMARK    2  A    between atoms: O_4  and  C_14 
REMARK    3  A    between atoms: O_5  and  C_19 
REMARK    4  A    between atoms: O_6  and  C_20 
REMARK    5  A    between atoms: O_7  and  C_22 
REMARK    6  A    between atoms: C_8  and  C_10 
ROOT
HETATM    1  O   UNK     0      22.946  33.127  10.669  0.00  0.00    -0.337 OA
HETATM    2  O   UNK     0      23.002  34.337  14.590  0.00  0.00    -0.289 OA
HETATM    3  C   UNK     0      23.247  32.206  11.728  0.00  0.00     0.198 C 
HETATM    4  C   UNK     0      22.506  32.577  13.013  0.00  0.00     0.227 C 
HETATM    5  C   UNK     0      22.913  33.976  13.422  0.00  0.00     0.196 C 
HETATM    6  C   UNK     0      23.166  34.916  12.312  0.00  0.00     0.079 A 
HETATM    7  C   UNK     0      23.152  34.439  10.999  0.00  0.00     0.089 A 
HETATM    8  C   UNK     0      23.389  36.271  12.569  0.00  0.00     0.085 A 
HETATM    9  C   UNK     0      23.326  35.330   9.938  0.00  0.00     0.074 A 
HETATM   10  C   UNK     0      23.581  37.152  11.506  0.00  0.00     0.074 A 
HETATM   11  C   UNK     0      23.545  36.684  10.192  0.00  0.00     0.071 A 
ENDROOT
BRANCH   3  12
HETATM   12  C   UNK     0      22.869  30.820  11.241  0.00  0.00    -0.023 A 
HETATM   13  C   UNK     0      22.740  30.576   9.875  0.00  0.00     0.049 A 
HETATM   14  C   UNK     0      22.391  29.302   9.426  0.00  0.00     0.099 A 
HETATM   15  C   UNK     0      22.171  28.276  10.344  0.00  0.00     0.098 A 
HETATM   16  C   UNK     0      22.301  28.522  11.711  0.00  0.00     0.040 A 
HETATM   17  C   UNK     0      22.649  29.796  12.160  0.00  0.00     0.013 A 
BRANCH  14  18
HETATM   18  O   UNK     0      22.269  29.073   8.089  0.00  0.00    -0.358 OA
HETATM   19  H   UNK     0      22.811  28.298   7.860  0.00  0.00     0.217 HD
ENDBRANCH  14  18
BRANCH  15  20
HETATM   20  O   UNK     0      21.832  27.026   9.918  0.00  0.00    -0.358 OA
HETATM   21  H   UNK     0      22.642  26.504   9.791  0.00  0.00     0.217 HD
ENDBRANCH  15  20
ENDBRANCH   3  12
BRANCH   4  22
HETATM   22  O   UNK     0      22.866  31.690  14.059  0.00  0.00    -0.385 OA
HETATM   23  H   UNK     0      22.629  30.791  13.775  0.00  0.00     0.210 HD
ENDBRANCH   4  22
BRANCH   8  24
HETATM   24  O   UNK     0      23.416  36.787  13.830  0.00  0.00    -0.360 OA
HETATM   25  H   UNK     0      23.917  37.616  13.850  0.00  0.00     0.217 HD
ENDBRANCH   8  24
BRANCH  11  26
HETATM   26  O   UNK     0      23.725  37.549   9.157  0.00  0.00    -0.361 OA
HETATM   27  H   UNK     0      23.947  37.042   8.357  0.00  0.00     0.217 HD
ENDBRANCH  11  26
TORSDOF 6
ENDMDL
MODEL 8
REMARK VINA RESULT:      -9.3     15.841     18.442
REMARK  6 active torsions:
REMARK  status: ('A' for Active; 'I' for Inactive)
REMARK    1  A    between atoms: O_2  and  C_9 
REMARK    2  A    between atoms: O_4  and  C_14 
REMARK    3  A    between atoms: O_5  and  C_19 
REMARK    4  A    between atoms: O_6  and  C_20 
REMARK    5  A    between atoms: O_7  and  C_22 
REMARK    6  A    between atoms: C_8  and  C_10 
ROOT
HETATM    1  O   UNK     0      22.733  31.551  10.309  0.00  0.00    -0.337 OA
HETATM    2  O   UNK     0      22.467  28.880  13.414  0.00  0.00    -0.289 OA
HETATM    3  C   UNK     0      22.378  31.980  11.633  0.00  0.00     0.198 C 
HETATM    4  C   UNK     0      23.049  31.110  12.696  0.00  0.00     0.227 C 
HETATM    5  C   UNK     0      22.619  29.674  12.493  0.00  0.00     0.196 C 
HETATM    6  C   UNK     0      22.422  29.261  11.089  0.00  0.00     0.079 A 
HETATM    7  C   UNK     0      22.507  30.221  10.078  0.00  0.00     0.089 A 
HETATM    8  C   UNK     0      22.184  27.921  10.773  0.00  0.00     0.085 A 
HETATM    9  C   UNK     0      22.387  29.831   8.743  0.00  0.00     0.074 A 
HETATM   10  C   UNK     0      22.046  27.541   9.438  0.00  0.00     0.074 A 
HETATM   11  C   UNK     0      22.152  28.493   8.424  0.00  0.00     0.071 A 
ENDROOT
BRANCH   3  12
HETATM   12  C   UNK     0      22.785  33.436  11.758  0.00  0.00    -0.023 A 
HETATM   13  C   UNK     0      22.993  34.199  10.611  0.00  0.00     0.049 A 
HETATM   14  C   UNK     0      23.367  35.538  10.725  0.00  0.00     0.099 A 
HETATM   15  C   UNK     0      23.534  36.110  11.986  0.00  0.00     0.098 A 
HETATM   16  C   UNK     0      23.324  35.344  13.133  0.00  0.00     0.040 A 
HETATM   17  C   UNK     0      22.951  34.006  13.019  0.00  0.00     0.013 A 
BRANCH  14  18
HETATM   18  O   UNK     0      23.568  36.277   9.599  0.00  0.00    -0.358 OA
HETATM   19  H   UNK     0      24.080  37.068   9.838  0.00  0.00     0.217 HD
ENDBRANCH  14  18
BRANCH  15  20
HETATM   20  O   UNK     0      23.898  37.418  12.111  0.00  0.00    -0.358 OA
HETATM   21  H   UNK     0      24.410  37.680  11.326  0.00  0.00     0.217 HD
ENDBRANCH  15  20
ENDBRANCH   3  12
BRANCH   4  22
HETATM   22  O   UNK     0      22.637  31.515  13.991  0.00  0.00    -0.385 OA
HETATM   23  H   UNK     0      21.806  31.052  14.192  0.00  0.00     0.210 HD
ENDBRANCH   4  22
BRANCH   8  24
HETATM   24  O   UNK     0      22.089  26.946  11.720  0.00  0.00    -0.360 OA
HETATM   25  H   UNK     0      21.722  27.303  12.543  0.00  0.00     0.217 HD
ENDBRANCH   8  24
BRANCH  11  26
HETATM   26  O   UNK     0      22.025  28.117   7.122  0.00  0.00    -0.361 OA
HETATM   27  H   UNK     0      21.831  27.165   7.086  0.00  0.00     0.217 HD
ENDBRANCH  11  26
TORSDOF 6
ENDMDL
MODEL 9
REMARK VINA RESULT:      -8.8     15.961     17.830
REMARK  6 active torsions:
REMARK  status: ('A' for Active; 'I' for Inactive)
REMARK    1  A    between atoms: O_2  and  C_9 
REMARK    2  A    between atoms: O_4  and  C_14 
REMARK    3  A    between atoms: O_5  and  C_19 
REMARK    4  A    between atoms: O_6  and  C_20 
REMARK    5  A    between atoms: O_7  and  C_22 
REMARK    6  A    between atoms: C_8  and  C_10 
ROOT
HETATM    1  O   UNK     0      22.497  29.707  12.099  0.00  0.00    -0.337 OA
HETATM    2  O   UNK     0      22.747  31.595   8.464  0.00  0.00    -0.289 OA
HETATM    3  C   UNK     0      21.939  29.118  10.914  0.00  0.00     0.198 C 
HETATM    4  C   UNK     0      22.743  29.505   9.672  0.00  0.00     0.227 C 
HETATM    5  C   UNK     0      22.742  31.013   9.542  0.00  0.00     0.196 C 
HETATM    6  C   UNK     0      22.773  31.761  10.814  0.00  0.00     0.079 A 
HETATM    7  C   UNK     0      22.665  31.063  12.019  0.00  0.00     0.089 A 
HETATM    8  C   UNK     0      22.939  33.149  10.814  0.00  0.00     0.085 A 
HETATM    9  C   UNK     0      22.758  31.753  13.229  0.00  0.00     0.074 A 
HETATM   10  C   UNK     0      23.011  33.835  12.026  0.00  0.00     0.074 A 
HETATM   11  C   UNK     0      22.926  33.139  13.231  0.00  0.00     0.071 A 
ENDROOT
BRANCH   3  12
HETATM   12  C   UNK     0      21.918  27.617  11.125  0.00  0.00    -0.023 A 
HETATM   13  C   UNK     0      21.359  27.087  12.286  0.00  0.00     0.049 A 
HETATM   14  C   UNK     0      21.339  25.706  12.482  0.00  0.00     0.099 A 
HETATM   15  C   UNK     0      21.879  24.858  11.515  0.00  0.00     0.098 A 
HETATM   16  C   UNK     0      22.438  25.390  10.353  0.00  0.00     0.040 A 
HETATM   17  C   UNK     0      22.458  26.770  10.158  0.00  0.00     0.013 A 
BRANCH  14  18
HETATM   18  O   UNK     0      20.790  25.198  13.620  0.00  0.00    -0.358 OA
HETATM   19  H   UNK     0      20.051  24.616  13.370  0.00  0.00     0.217 HD
ENDBRANCH  14  18
BRANCH  15  20
HETATM   20  O   UNK     0      21.865  23.507  11.694  0.00  0.00    -0.358 OA
HETATM   21  H   UNK     0      21.196  23.117  11.105  0.00  0.00     0.217 HD
ENDBRANCH  15  20
ENDBRANCH   3  12
BRANCH   4  22
HETATM   22  O   UNK     0      22.140  28.962   8.510  0.00  0.00    -0.385 OA
HETATM   23  H   UNK     0      22.192  29.635   7.810  0.00  0.00     0.210 HD
ENDBRANCH   4  22
BRANCH   8  24
HETATM   24  O   UNK     0      23.046  33.878   9.668  0.00  0.00    -0.360 OA
HETATM   25  H   UNK     0      22.910  34.821   9.848  0.00  0.00     0.217 HD
ENDBRANCH   8  24
BRANCH  11  26
HETATM   26  O   UNK     0      23.005  33.811  14.412  0.00  0.00    -0.361 OA
HETATM   27  H   UNK     0      23.909  34.155  14.520  0.00  0.00     0.217 HD
ENDBRANCH  11  26
TORSDOF 6
ENDMDL
