MODEL 1
REMARK VINA RESULT:     -10.4      0.000      0.000
REMARK  6 active torsions:
REMARK  status: ('A' for Active; 'I' for Inactive)
REMARK    1  A    between atoms: O_2  and  C_9 
REMARK    2  A    between atoms: O_4  and  C_14 
REMARK    3  A    between atoms: O_5  and  C_19 
REMARK    4  A    between atoms: O_6  and  C_20 
REMARK    5  A    between atoms: O_7  and  C_22 
REMARK    6  A    between atoms: C_8  and  C_10 
ROOT
HETATM    1  O   UNK     0       7.983  38.163  85.849  0.00  0.00    -0.337 OA
HETATM    2  O   UNK     0       8.253  34.307  84.470  0.00  0.00    -0.289 OA
HETATM    3  C   UNK     0       9.099  37.732  85.054  0.00  0.00     0.198 C 
HETATM    4  C   UNK     0       8.686  36.646  84.060  0.00  0.00     0.227 C 
HETATM    5  C   UNK     0       8.123  35.471  84.830  0.00  0.00     0.196 C 
HETATM    6  C   UNK     0       7.360  35.813  86.047  0.00  0.00     0.079 A 
HETATM    7  C   UNK     0       7.321  37.142  86.476  0.00  0.00     0.089 A 
HETATM    8  C   UNK     0       6.661  34.825  86.744  0.00  0.00     0.085 A 
HETATM    9  C   UNK     0       6.551  37.487  87.587  0.00  0.00     0.074 A 
HETATM   10  C   UNK     0       5.909  35.173  87.865  0.00  0.00     0.074 A 
HETATM   11  C   UNK     0       5.849  36.503  88.284  0.00  0.00     0.071 A 
ENDROOT
BRANCH   3  12
HETATM   12  C   UNK     0       9.650  38.958  84.351  0.00  0.00    -0.023 A 
HETATM   13  C   UNK     0       9.705  40.177  85.023  0.00  0.00     0.049 A 
HETATM   14  C   UNK     0      10.212  41.306  84.377  0.00  0.00     0.099 A 
HETATM   15  C   UNK     0      10.661  41.211  83.061  0.00  0.00     0.098 A 
HETATM   16  C   UNK     0      10.607  39.989  82.390  0.00  0.00     0.040 A 
HETATM   17  C   UNK     0      10.100  38.862  83.036  0.00  0.00     0.013 A 
BRANCH  14  18
HETATM   18  O   UNK     0      10.261  42.493  85.042  0.00  0.00    -0.358 OA
HETATM   19  H   UNK     0      10.264  42.309  85.998  0.00  0.00     0.217 HD
ENDBRANCH  14  18
BRANCH  15  20
HETATM   20  O   UNK     0      11.160  42.306  82.419  0.00  0.00    -0.358 OA
HETATM   21  H   UNK     0      10.508  43.026  82.470  0.00  0.00     0.217 HD
ENDBRANCH  15  20
ENDBRANCH   3  12
BRANCH   4  22
HETATM   22  O   UNK     0       9.814  36.196  83.330  0.00  0.00    -0.385 OA
HETATM   23  H   UNK     0      10.195  36.965  82.874  0.00  0.00     0.210 HD
ENDBRANCH   4  22
BRANCH   8  24
HETATM   24  O   UNK     0       6.668  33.515  86.370  0.00  0.00    -0.360 OA
HETATM   25  H   UNK     0       6.442  33.425  85.432  0.00  0.00     0.217 HD
ENDBRANCH   8  24
BRANCH  11  26
HETATM   26  O   UNK     0       5.107  36.840  89.374  0.00  0.00    -0.361 OA
HETATM   27  H   UNK     0       4.166  36.842  89.127  0.00  0.00     0.217 HD
ENDBRANCH  11  26
TORSDOF 6
ENDMDL
MODEL 2
REMARK VINA RESULT:     -10.4     27.651     29.293
REMARK  6 active torsions:
REMARK  status: ('A' for Active; 'I' for Inactive)
REMARK    1  A    between atoms: O_2  and  C_9 
REMARK    2  A    between atoms: O_4  and  C_14 
REMARK    3  A    between atoms: O_5  and  C_19 
REMARK    4  A    between atoms: O_6  and  C_20 
REMARK    5  A    between atoms: O_7  and  C_22 
REMARK    6  A    between atoms: C_8  and  C_10 
ROOT
HETATM    1  O   UNK     0      31.760  20.929  90.430  0.00  0.00    -0.337 OA
HETATM    2  O   UNK     0      31.496  24.202  87.968  0.00  0.00    -0.289 OA
HETATM    3  C   UNK     0      30.706  21.050  89.462  0.00  0.00     0.198 C 
HETATM    4  C   UNK     0      31.173  21.824  88.229  0.00  0.00     0.227 C 
HETATM    5  C   UNK     0      31.629  23.200  88.662  0.00  0.00     0.196 C 
HETATM    6  C   UNK     0      32.292  23.266  89.979  0.00  0.00     0.079 A 
HETATM    7  C   UNK     0      32.333  22.122  90.779  0.00  0.00     0.089 A 
HETATM    8  C   UNK     0      32.897  24.451  90.408  0.00  0.00     0.085 A 
HETATM    9  C   UNK     0      33.013  22.155  91.998  0.00  0.00     0.074 A 
HETATM   10  C   UNK     0      33.558  24.482  91.635  0.00  0.00     0.074 A 
HETATM   11  C   UNK     0      33.621  23.336  92.427  0.00  0.00     0.071 A 
ENDROOT
BRANCH   3  12
HETATM   12  C   UNK     0      30.257  19.645  89.109  0.00  0.00    -0.023 A 
HETATM   13  C   UNK     0      30.040  19.301  87.777  0.00  0.00     0.049 A 
HETATM   14  C   UNK     0      29.626  18.009  87.450  0.00  0.00     0.099 A 
HETATM   15  C   UNK     0      29.429  17.065  88.458  0.00  0.00     0.098 A 
HETATM   16  C   UNK     0      29.647  17.412  89.792  0.00  0.00     0.040 A 
HETATM   17  C   UNK     0      30.061  18.704  90.117  0.00  0.00     0.013 A 
BRANCH  14  18
HETATM   18  O   UNK     0      29.417  17.681  86.145  0.00  0.00    -0.358 OA
HETATM   19  H   UNK     0      29.884  18.328  85.589  0.00  0.00     0.217 HD
ENDBRANCH  14  18
BRANCH  15  20
HETATM   20  O   UNK     0      29.026  15.800  88.153  0.00  0.00    -0.358 OA
HETATM   21  H   UNK     0      29.052  15.684  87.187  0.00  0.00     0.217 HD
ENDBRANCH  15  20
ENDBRANCH   3  12
BRANCH   4  22
HETATM   22  O   UNK     0      30.100  21.982  87.316  0.00  0.00    -0.385 OA
HETATM   23  H   UNK     0      29.680  22.839  87.503  0.00  0.00     0.210 HD
ENDBRANCH   4  22
BRANCH   8  24
HETATM   24  O   UNK     0      32.883  25.595  89.668  0.00  0.00    -0.360 OA
HETATM   25  H   UNK     0      33.557  26.215  89.984  0.00  0.00     0.217 HD
ENDBRANCH   8  24
BRANCH  11  26
HETATM   26  O   UNK     0      34.274  23.369  93.621  0.00  0.00    -0.361 OA
HETATM   27  H   UNK     0      33.619  23.339  94.340  0.00  0.00     0.217 HD
ENDBRANCH  11  26
TORSDOF 6
ENDMDL
MODEL 3
REMARK VINA RESULT:     -10.4     27.965     29.195
REMARK  6 active torsions:
REMARK  status: ('A' for Active; 'I' for Inactive)
REMARK    1  A    between atoms: O_2  and  C_9 
REMARK    2  A    between atoms: O_4  and  C_14 
REMARK    3  A    between atoms: O_5  and  C_19 
REMARK    4  A    between atoms: O_6  and  C_20 
REMARK    5  A    between atoms: O_7  and  C_22 
REMARK    6  A    between atoms: C_8  and  C_10 
ROOT
HETATM    1  O   UNK     0      32.212  21.577  90.740  0.00  0.00    -0.337 OA
HETATM    2  O   UNK     0      34.277  24.786  92.251  0.00  0.00    -0.289 OA
HETATM    3  C   UNK     0      31.757  22.922  90.529  0.00  0.00     0.198 C 
HETATM    4  C   UNK     0      32.930  23.899  90.454  0.00  0.00     0.227 C 
HETATM    5  C   UNK     0      33.711  23.822  91.748  0.00  0.00     0.196 C 
HETATM    6  C   UNK     0      33.787  22.484  92.367  0.00  0.00     0.079 A 
HETATM    7  C   UNK     0      33.046  21.436  91.818  0.00  0.00     0.089 A 
HETATM    8  C   UNK     0      34.613  22.262  93.472  0.00  0.00     0.085 A 
HETATM    9  C   UNK     0      33.159  20.153  92.355  0.00  0.00     0.074 A 
HETATM   10  C   UNK     0      34.707  20.982  94.017  0.00  0.00     0.074 A 
HETATM   11  C   UNK     0      33.986  19.928  93.457  0.00  0.00     0.071 A 
ENDROOT
BRANCH   3  12
HETATM   12  C   UNK     0      30.940  22.924  89.251  0.00  0.00    -0.023 A 
HETATM   13  C   UNK     0      29.718  22.257  89.208  0.00  0.00     0.049 A 
HETATM   14  C   UNK     0      28.966  22.258  88.032  0.00  0.00     0.099 A 
HETATM   15  C   UNK     0      29.439  22.926  86.903  0.00  0.00     0.098 A 
HETATM   16  C   UNK     0      30.663  23.595  86.949  0.00  0.00     0.040 A 
HETATM   17  C   UNK     0      31.414  23.593  88.124  0.00  0.00     0.013 A 
BRANCH  14  18
HETATM   18  O   UNK     0      27.772  21.603  88.000  0.00  0.00    -0.358 OA
HETATM   19  H   UNK     0      27.809  20.935  87.294  0.00  0.00     0.217 HD
ENDBRANCH  14  18
BRANCH  15  20
HETATM   20  O   UNK     0      28.713  22.936  85.750  0.00  0.00    -0.358 OA
HETATM   21  H   UNK     0      27.789  22.713  85.956  0.00  0.00     0.217 HD
ENDBRANCH  15  20
ENDBRANCH   3  12
BRANCH   4  22
HETATM   22  O   UNK     0      32.453  25.226  90.305  0.00  0.00    -0.385 OA
HETATM   23  H   UNK     0      31.573  25.177  89.897  0.00  0.00     0.210 HD
ENDBRANCH   4  22
BRANCH   8  24
HETATM   24  O   UNK     0      35.354  23.250  94.049  0.00  0.00    -0.360 OA
HETATM   25  H   UNK     0      35.483  23.075  94.993  0.00  0.00     0.217 HD
ENDBRANCH   8  24
BRANCH  11  26
HETATM   26  O   UNK     0      34.087  18.678  93.986  0.00  0.00    -0.361 OA
HETATM   27  H   UNK     0      33.280  18.483  94.493  0.00  0.00     0.217 HD
ENDBRANCH  11  26
TORSDOF 6
ENDMDL
MODEL 4
REMARK VINA RESULT:     -10.2     27.889     29.369
REMARK  6 active torsions:
REMARK  status: ('A' for Active; 'I' for Inactive)
REMARK    1  A    between atoms: O_2  and  C_9 
REMARK    2  A    between atoms: O_4  and  C_14 
REMARK    3  A    between atoms: O_5  and  C_19 
REMARK    4  A    between atoms: O_6  and  C_20 
REMARK    5  A    between atoms: O_7  and  C_22 
REMARK    6  A    between atoms: C_8  and  C_10 
ROOT
HETATM    1  O   UNK     0      32.044  21.244  91.002  0.00  0.00    -0.337 OA
HETATM    2  O   UNK     0      32.841  25.187  90.188  0.00  0.00    -0.289 OA
HETATM    3  C   UNK     0      31.116  22.055  90.265  0.00  0.00     0.198 C 
HETATM    4  C   UNK     0      31.842  23.120  89.442  0.00  0.00     0.227 C 
HETATM    5  C   UNK     0      32.650  23.991  90.378  0.00  0.00     0.196 C 
HETATM    6  C   UNK     0      33.240  23.300  91.542  0.00  0.00     0.079 A 
HETATM    7  C   UNK     0      32.915  21.962  91.776  0.00  0.00     0.089 A 
HETATM    8  C   UNK     0      34.136  23.967  92.381  0.00  0.00     0.085 A 
HETATM    9  C   UNK     0      33.517  21.280  92.835  0.00  0.00     0.074 A 
HETATM   10  C   UNK     0      34.719  23.286  93.449  0.00  0.00     0.074 A 
HETATM   11  C   UNK     0      34.415  21.943  93.673  0.00  0.00     0.071 A 
ENDROOT
BRANCH   3  12
HETATM   12  C   UNK     0      30.302  21.123  89.388  0.00  0.00    -0.023 A 
HETATM   13  C   UNK     0      30.450  19.744  89.518  0.00  0.00     0.049 A 
HETATM   14  C   UNK     0      29.702  18.885  88.711  0.00  0.00     0.099 A 
HETATM   15  C   UNK     0      28.809  19.409  87.776  0.00  0.00     0.098 A 
HETATM   16  C   UNK     0      28.663  20.791  87.648  0.00  0.00     0.040 A 
HETATM   17  C   UNK     0      29.411  21.648  88.455  0.00  0.00     0.013 A 
BRANCH  14  18
HETATM   18  O   UNK     0      29.852  17.538  88.845  0.00  0.00    -0.358 OA
HETATM   19  H   UNK     0      29.358  17.252  89.633  0.00  0.00     0.217 HD
ENDBRANCH  14  18
BRANCH  15  20
HETATM   20  O   UNK     0      28.072  18.581  86.983  0.00  0.00    -0.358 OA
HETATM   21  H   UNK     0      27.795  17.808  87.504  0.00  0.00     0.217 HD
ENDBRANCH  15  20
ENDBRANCH   3  12
BRANCH   4  22
HETATM   22  O   UNK     0      30.903  23.944  88.772  0.00  0.00    -0.385 OA
HETATM   23  H   UNK     0      31.269  24.844  88.747  0.00  0.00     0.210 HD
ENDBRANCH   4  22
BRANCH   8  24
HETATM   24  O   UNK     0      34.484  25.272  92.199  0.00  0.00    -0.360 OA
HETATM   25  H   UNK     0      35.042  25.371  91.413  0.00  0.00     0.217 HD
ENDBRANCH   8  24
BRANCH  11  26
HETATM   26  O   UNK     0      34.992  21.279  94.712  0.00  0.00    -0.361 OA
HETATM   27  H   UNK     0      34.336  21.172  95.422  0.00  0.00     0.217 HD
ENDBRANCH  11  26
TORSDOF 6
ENDMDL
MODEL 5
REMARK VINA RESULT:     -10.1     14.981     17.090
REMARK  6 active torsions:
REMARK  status: ('A' for Active; 'I' for Inactive)
REMARK    1  A    between atoms: O_2  and  C_9 
REMARK    2  A    between atoms: O_4  and  C_14 
REMARK    3  A    between atoms: O_5  and  C_19 
REMARK    4  A    between atoms: O_6  and  C_20 
REMARK    5  A    between atoms: O_7  and  C_22 
REMARK    6  A    between atoms: C_8  and  C_10 
ROOT
HETATM    1  O   UNK     0      14.001  23.124  90.543  0.00  0.00    -0.337 OA
HETATM    2  O   UNK     0      16.695  20.709  92.480  0.00  0.00    -0.289 OA
HETATM    3  C   UNK     0      15.235  23.648  91.059  0.00  0.00     0.198 C 
HETATM    4  C   UNK     0      16.344  22.596  91.017  0.00  0.00     0.227 C 
HETATM    5  C   UNK     0      15.913  21.401  91.839  0.00  0.00     0.196 C 
HETATM    6  C   UNK     0      14.472  21.086  91.797  0.00  0.00     0.079 A 
HETATM    7  C   UNK     0      13.602  21.957  91.138  0.00  0.00     0.089 A 
HETATM    8  C   UNK     0      13.987  19.914  92.385  0.00  0.00     0.085 A 
HETATM    9  C   UNK     0      12.247  21.637  91.036  0.00  0.00     0.074 A 
HETATM   10  C   UNK     0      12.629  19.609  92.297  0.00  0.00     0.074 A 
HETATM   11  C   UNK     0      11.761  20.466  91.619  0.00  0.00     0.071 A 
ENDROOT
BRANCH   3  12
HETATM   12  C   UNK     0      15.586  24.869  90.231  0.00  0.00    -0.023 A 
HETATM   13  C   UNK     0      16.027  24.714  88.919  0.00  0.00     0.049 A 
HETATM   14  C   UNK     0      16.351  25.837  88.156  0.00  0.00     0.099 A 
HETATM   15  C   UNK     0      16.232  27.112  88.709  0.00  0.00     0.098 A 
HETATM   16  C   UNK     0      15.789  27.265  90.023  0.00  0.00     0.040 A 
HETATM   17  C   UNK     0      15.467  26.142  90.785  0.00  0.00     0.013 A 
BRANCH  14  18
HETATM   18  O   UNK     0      16.781  25.676  86.875  0.00  0.00    -0.358 OA
HETATM   19  H   UNK     0      17.668  26.068  86.798  0.00  0.00     0.217 HD
ENDBRANCH  14  18
BRANCH  15  20
HETATM   20  O   UNK     0      16.543  28.217  87.975  0.00  0.00    -0.358 OA
HETATM   21  H   UNK     0      15.810  28.409  87.365  0.00  0.00     0.217 HD
ENDBRANCH  15  20
ENDBRANCH   3  12
BRANCH   4  22
HETATM   22  O   UNK     0      17.534  23.116  91.585  0.00  0.00    -0.385 OA
HETATM   23  H   UNK     0      17.764  22.558  92.347  0.00  0.00     0.210 HD
ENDBRANCH   4  22
BRANCH   8  24
HETATM   24  O   UNK     0      14.791  19.032  93.042  0.00  0.00    -0.360 OA
HETATM   25  H   UNK     0      15.654  19.431  93.232  0.00  0.00     0.217 HD
ENDBRANCH   8  24
BRANCH  11  26
HETATM   26  O   UNK     0      10.438  20.160  91.528  0.00  0.00    -0.361 OA
HETATM   27  H   UNK     0       9.919  20.878  91.931  0.00  0.00     0.217 HD
ENDBRANCH  11  26
TORSDOF 6
ENDMDL
MODEL 6
REMARK VINA RESULT:     -10.0     27.903     29.330
REMARK  6 active torsions:
REMARK  status: ('A' for Active; 'I' for Inactive)
REMARK    1  A    between atoms: O_2  and  C_9 
REMARK    2  A    between atoms: O_4  and  C_14 
REMARK    3  A    between atoms: O_5  and  C_19 
REMARK    4  A    between atoms: O_6  and  C_20 
REMARK    5  A    between atoms: O_7  and  C_22 
REMARK    6  A    between atoms: C_8  and  C_10 
ROOT
HETATM    1  O   UNK     0      31.363  21.633  90.113  0.00  0.00    -0.337 OA
HETATM    2  O   UNK     0      32.598  24.947  88.030  0.00  0.00    -0.289 OA
HETATM    3  C   UNK     0      32.717  22.106  90.200  0.00  0.00     0.198 C 
HETATM    4  C   UNK     0      32.784  23.626  90.042  0.00  0.00     0.227 C 
HETATM    5  C   UNK     0      32.197  24.002  88.699  0.00  0.00     0.196 C 
HETATM    6  C   UNK     0      31.063  23.172  88.245  0.00  0.00     0.079 A 
HETATM    7  C   UNK     0      30.703  22.046  88.987  0.00  0.00     0.089 A 
HETATM    8  C   UNK     0      30.341  23.527  87.102  0.00  0.00     0.085 A 
HETATM    9  C   UNK     0      29.593  21.291  88.604  0.00  0.00     0.074 A 
HETATM   10  C   UNK     0      29.245  22.757  86.713  0.00  0.00     0.074 A 
HETATM   11  C   UNK     0      28.868  21.644  87.465  0.00  0.00     0.071 A 
ENDROOT
BRANCH   3  12
HETATM   12  C   UNK     0      33.266  21.654  91.539  0.00  0.00    -0.023 A 
HETATM   13  C   UNK     0      33.251  20.302  91.875  0.00  0.00     0.049 A 
HETATM   14  C   UNK     0      33.756  19.886  93.107  0.00  0.00     0.099 A 
HETATM   15  C   UNK     0      34.274  20.823  94.001  0.00  0.00     0.098 A 
HETATM   16  C   UNK     0      34.288  22.177  93.662  0.00  0.00     0.040 A 
HETATM   17  C   UNK     0      33.783  22.592  92.431  0.00  0.00     0.013 A 
BRANCH  14  18
HETATM   18  O   UNK     0      33.738  18.562  93.426  0.00  0.00    -0.358 OA
HETATM   19  H   UNK     0      34.538  18.360  93.941  0.00  0.00     0.217 HD
ENDBRANCH  14  18
BRANCH  15  20
HETATM   20  O   UNK     0      34.771  20.429  95.207  0.00  0.00    -0.358 OA
HETATM   21  H   UNK     0      35.238  21.177  95.617  0.00  0.00     0.217 HD
ENDBRANCH  15  20
ENDBRANCH   3  12
BRANCH   4  22
HETATM   22  O   UNK     0      34.133  24.061  90.071  0.00  0.00    -0.385 OA
HETATM   23  H   UNK     0      34.437  24.012  90.993  0.00  0.00     0.210 HD
ENDBRANCH   4  22
BRANCH   8  24
HETATM   24  O   UNK     0      30.652  24.613  86.341  0.00  0.00    -0.360 OA
HETATM   25  H   UNK     0      30.269  24.531  85.455  0.00  0.00     0.217 HD
ENDBRANCH   8  24
BRANCH  11  26
HETATM   26  O   UNK     0      27.792  20.901  87.086  0.00  0.00    -0.361 OA
HETATM   27  H   UNK     0      27.846  20.731  86.130  0.00  0.00     0.217 HD
ENDBRANCH  11  26
TORSDOF 6
ENDMDL
MODEL 7
REMARK VINA RESULT:      -9.7     27.557     28.760
REMARK  6 active torsions:
REMARK  status: ('A' for Active; 'I' for Inactive)
REMARK    1  A    between atoms: O_2  and  C_9 
REMARK    2  A    between atoms: O_4  and  C_14 
REMARK    3  A    between atoms: O_5  and  C_19 
REMARK    4  A    between atoms: O_6  and  C_20 
REMARK    5  A    between atoms: O_7  and  C_22 
REMARK    6  A    between atoms: C_8  and  C_10 
ROOT
HETATM    1  O   UNK     0      31.297  20.602  90.355  0.00  0.00    -0.337 OA
HETATM    2  O   UNK     0      29.383  22.713  87.401  0.00  0.00    -0.289 OA
HETATM    3  C   UNK     0      31.860  21.809  89.817  0.00  0.00     0.198 C 
HETATM    4  C   UNK     0      30.766  22.784  89.378  0.00  0.00     0.227 C 
HETATM    5  C   UNK     0      29.907  22.110  88.330  0.00  0.00     0.196 C 
HETATM    6  C   UNK     0      29.698  20.660  88.513  0.00  0.00     0.079 A 
HETATM    7  C   UNK     0      30.393  19.994  89.525  0.00  0.00     0.089 A 
HETATM    8  C   UNK     0      28.795  19.968  87.703  0.00  0.00     0.085 A 
HETATM    9  C   UNK     0      30.156  18.637  89.749  0.00  0.00     0.074 A 
HETATM   10  C   UNK     0      28.576  18.608  87.919  0.00  0.00     0.074 A 
HETATM   11  C   UNK     0      29.252  17.944  88.944  0.00  0.00     0.071 A 
ENDROOT
BRANCH   3  12
HETATM   12  C   UNK     0      32.749  22.407  90.890  0.00  0.00    -0.023 A 
HETATM   13  C   UNK     0      33.286  23.681  90.716  0.00  0.00     0.049 A 
HETATM   14  C   UNK     0      34.104  24.233  91.703  0.00  0.00     0.099 A 
HETATM   15  C   UNK     0      34.384  23.507  92.861  0.00  0.00     0.098 A 
HETATM   16  C   UNK     0      33.845  22.232  93.034  0.00  0.00     0.040 A 
HETATM   17  C   UNK     0      33.027  21.682  92.047  0.00  0.00     0.013 A 
BRANCH  14  18
HETATM   18  O   UNK     0      34.623  25.478  91.524  0.00  0.00    -0.358 OA
HETATM   19  H   UNK     0      34.804  25.863  92.399  0.00  0.00     0.217 HD
ENDBRANCH  14  18
BRANCH  15  20
HETATM   20  O   UNK     0      35.180  24.035  93.833  0.00  0.00    -0.358 OA
HETATM   21  H   UNK     0      35.619  23.310  94.311  0.00  0.00     0.217 HD
ENDBRANCH  15  20
ENDBRANCH   3  12
BRANCH   4  22
HETATM   22  O   UNK     0      31.345  23.940  88.797  0.00  0.00    -0.385 OA
HETATM   23  H   UNK     0      32.243  24.031  89.159  0.00  0.00     0.210 HD
ENDBRANCH   4  22
BRANCH   8  24
HETATM   24  O   UNK     0      28.094  20.569  86.700  0.00  0.00    -0.360 OA
HETATM   25  H   UNK     0      27.610  21.339  87.035  0.00  0.00     0.217 HD
ENDBRANCH   8  24
BRANCH  11  26
HETATM   26  O   UNK     0      29.030  16.618  89.157  0.00  0.00    -0.361 OA
HETATM   27  H   UNK     0      28.098  16.490  89.406  0.00  0.00     0.217 HD
ENDBRANCH  11  26
TORSDOF 6
ENDMDL
MODEL 8
REMARK VINA RESULT:      -9.6     26.905     28.114
REMARK  6 active torsions:
REMARK  status: ('A' for Active; 'I' for Inactive)
REMARK    1  A    between atoms: O_2  and  C_9 
REMARK    2  A    between atoms: O_4  and  C_14 
REMARK    3  A    between atoms: O_5  and  C_19 
REMARK    4  A    between atoms: O_6  and  C_20 
REMARK    5  A    between atoms: O_7  and  C_22 
REMARK    6  A    between atoms: C_8  and  C_10 
ROOT
HETATM    1  O   UNK     0      30.721  20.160  89.306  0.00  0.00    -0.337 OA
HETATM    2  O   UNK     0      27.879  21.025  86.474  0.00  0.00    -0.289 OA
HETATM    3  C   UNK     0      30.863  21.288  88.427  0.00  0.00     0.198 C 
HETATM    4  C   UNK     0      29.501  21.871  88.049  0.00  0.00     0.227 C 
HETATM    5  C   UNK     0      28.683  20.794  87.370  0.00  0.00     0.196 C 
HETATM    6  C   UNK     0      28.883  19.424  87.881  0.00  0.00     0.079 A 
HETATM    7  C   UNK     0      29.880  19.190  88.832  0.00  0.00     0.089 A 
HETATM    8  C   UNK     0      28.066  18.379  87.443  0.00  0.00     0.085 A 
HETATM    9  C   UNK     0      30.035  17.912  89.370  0.00  0.00     0.074 A 
HETATM   10  C   UNK     0      28.240  17.100  87.970  0.00  0.00     0.074 A 
HETATM   11  C   UNK     0      29.219  16.867  88.936  0.00  0.00     0.071 A 
ENDROOT
BRANCH   3  12
HETATM   12  C   UNK     0      31.733  22.306  89.140  0.00  0.00    -0.023 A 
HETATM   13  C   UNK     0      31.187  23.104  90.142  0.00  0.00     0.049 A 
HETATM   14  C   UNK     0      31.986  24.042  90.798  0.00  0.00     0.099 A 
HETATM   15  C   UNK     0      33.329  24.178  90.448  0.00  0.00     0.098 A 
HETATM   16  C   UNK     0      33.874  23.377  89.445  0.00  0.00     0.040 A 
HETATM   17  C   UNK     0      33.075  22.441  88.789  0.00  0.00     0.013 A 
BRANCH  14  18
HETATM   18  O   UNK     0      31.443  24.817  91.777  0.00  0.00    -0.358 OA
HETATM   19  H   UNK     0      31.542  25.750  91.518  0.00  0.00     0.217 HD
ENDBRANCH  14  18
BRANCH  15  20
HETATM   20  O   UNK     0      34.120  25.089  91.082  0.00  0.00    -0.358 OA
HETATM   21  H   UNK     0      33.556  25.765  91.496  0.00  0.00     0.217 HD
ENDBRANCH  15  20
ENDBRANCH   3  12
BRANCH   4  22
HETATM   22  O   UNK     0      29.664  22.943  87.136  0.00  0.00    -0.385 OA
HETATM   23  H   UNK     0      30.279  23.579  87.538  0.00  0.00     0.210 HD
ENDBRANCH   4  22
BRANCH   8  24
HETATM   24  O   UNK     0      27.082  18.552  86.516  0.00  0.00    -0.360 OA
HETATM   25  H   UNK     0      26.356  19.079  86.882  0.00  0.00     0.217 HD
ENDBRANCH   8  24
BRANCH  11  26
HETATM   26  O   UNK     0      29.379  15.618  89.454  0.00  0.00    -0.361 OA
HETATM   27  H   UNK     0      29.670  15.017  88.747  0.00  0.00     0.217 HD
ENDBRANCH  11  26
TORSDOF 6
ENDMDL
MODEL 9
REMARK VINA RESULT:      -9.5      1.480      6.556
REMARK  6 active torsions:
REMARK  status: ('A' for Active; 'I' for Inactive)
REMARK    1  A    between atoms: O_2  and  C_9 
REMARK    2  A    between atoms: O_4  and  C_14 
REMARK    3  A    between atoms: O_5  and  C_19 
REMARK    4  A    between atoms: O_6  and  C_20 
REMARK    5  A    between atoms: O_7  and  C_22 
REMARK    6  A    between atoms: C_8  and  C_10 
ROOT
HETATM    1  O   UNK     0       8.795  38.890  85.697  0.00  0.00    -0.337 OA
HETATM    2  O   UNK     0      11.195  36.654  83.231  0.00  0.00    -0.289 OA
HETATM    3  C   UNK     0       8.425  37.559  85.303  0.00  0.00     0.198 C 
HETATM    4  C   UNK     0       9.658  36.680  85.092  0.00  0.00     0.227 C 
HETATM    5  C   UNK     0      10.525  37.307  84.022  0.00  0.00     0.196 C 
HETATM    6  C   UNK     0      10.548  38.783  84.005  0.00  0.00     0.079 A 
HETATM    7  C   UNK     0       9.693  39.488  84.855  0.00  0.00     0.089 A 
HETATM    8  C   UNK     0      11.435  39.467  83.169  0.00  0.00     0.085 A 
HETATM    9  C   UNK     0       9.752  40.882  84.894  0.00  0.00     0.074 A 
HETATM   10  C   UNK     0      11.475  40.861  83.199  0.00  0.00     0.074 A 
HETATM   11  C   UNK     0      10.639  41.567  84.063  0.00  0.00     0.071 A 
ENDROOT
BRANCH   3  12
HETATM   12  C   UNK     0       7.518  37.006  86.386  0.00  0.00    -0.023 A 
HETATM   13  C   UNK     0       8.058  36.607  87.606  0.00  0.00     0.049 A 
HETATM   14  C   UNK     0       7.225  36.098  88.603  0.00  0.00     0.099 A 
HETATM   15  C   UNK     0       5.854  35.987  88.375  0.00  0.00     0.098 A 
HETATM   16  C   UNK     0       5.315  36.387  87.152  0.00  0.00     0.040 A 
HETATM   17  C   UNK     0       6.148  36.896  86.156  0.00  0.00     0.013 A 
BRANCH  14  18
HETATM   18  O   UNK     0       7.762  35.712  89.793  0.00  0.00    -0.358 OA
HETATM   19  H   UNK     0       8.584  35.223  89.614  0.00  0.00     0.217 HD
ENDBRANCH  14  18
BRANCH  15  20
HETATM   20  O   UNK     0       5.029  35.492  89.340  0.00  0.00    -0.358 OA
HETATM   21  H   UNK     0       4.140  35.869  89.220  0.00  0.00     0.217 HD
ENDBRANCH  15  20
ENDBRANCH   3  12
BRANCH   4  22
HETATM   22  O   UNK     0       9.270  35.392  84.646  0.00  0.00    -0.385 OA
HETATM   23  H   UNK     0       8.407  35.481  84.208  0.00  0.00     0.210 HD
ENDBRANCH   4  22
BRANCH   8  24
HETATM   24  O   UNK     0      12.287  38.828  82.318  0.00  0.00    -0.360 OA
HETATM   25  H   UNK     0      12.410  37.905  82.587  0.00  0.00     0.217 HD
ENDBRANCH   8  24
BRANCH  11  26
HETATM   26  O   UNK     0      10.688  42.927  84.095  0.00  0.00    -0.361 OA
HETATM   27  H   UNK     0      10.996  43.253  83.232  0.00  0.00     0.217 HD
ENDBRANCH  11  26
TORSDOF 6
ENDMDL
