MODEL 1
REMARK VINA RESULT:      -5.9      0.000      0.000
REMARK  Name = 6508
REMARK                            x       y       z     vdW  Elec       q    Type
REMARK                         _______ _______ _______ _____ _____    ______ ____
ROOT
ATOM      3  C   LIG    1      187.054 186.356 173.301  0.00  0.00    +0.167 C 
ATOM      8  C   LIG    1      187.499 184.947 173.721  0.00  0.00    +0.080 C 
ATOM      9  C   LIG    1      186.730 184.421 174.939  0.00  0.00    +0.149 C 
ATOM     10  C   LIG    1      185.215 184.532 174.739  0.00  0.00    +0.171 C 
ATOM     11  C   LIG    1      184.776 185.948 174.358  0.00  0.00    +0.149 C 
ATOM     18  C   LIG    1      185.538 186.447 173.127  0.00  0.00    +0.080 C 
ENDROOT
BRANCH   3   1
ATOM      1  O   LIG    1      187.496 187.300 174.269  0.00  0.00    -0.377 OA
ATOM      2  H   LIG    1      186.723 187.801 174.581  0.00  0.00    +0.211 HD
ENDBRANCH   3   1
BRANCH   3   4
ATOM      4  C   LIG    1      187.757 186.729 172.027  0.00  0.00    +0.337 C 
ATOM      5  O   LIG    1      187.541 186.228 170.934  0.00  0.00    -0.248 OA
BRANCH   4   6
ATOM      6  O   LIG    1      188.673 187.702 172.253  0.00  0.00    -0.479 OA
ATOM      7  H   LIG    1      188.897 187.782 173.204  0.00  0.00    +0.295 HD
ENDBRANCH   4   6
ENDBRANCH   3   4
BRANCH  11  12
ATOM     12  O   LIG    1      183.385 185.943 174.039  0.00  0.00    -0.389 OA
ATOM     13  H   LIG    1      183.278 186.396 173.185  0.00  0.00    +0.210 HD
ENDBRANCH  11  12
BRANCH  10  14
ATOM     14  O   LIG    1      184.544 184.149 175.939  0.00  0.00    -0.387 OA
ATOM     15  H   LIG    1      185.037 184.531 176.685  0.00  0.00    +0.210 HD
ENDBRANCH  10  14
BRANCH   9  16
ATOM     16  O   LIG    1      187.133 185.131 176.110  0.00  0.00    -0.389 OA
ATOM     17  H   LIG    1      187.347 186.044 175.859  0.00  0.00    +0.210 HD
ENDBRANCH   9  16
TORSDOF 6
ENDMDL
MODEL 2
REMARK VINA RESULT:      -5.9      1.705      4.672
REMARK  Name = 6508
REMARK                            x       y       z     vdW  Elec       q    Type
REMARK                         _______ _______ _______ _____ _____    ______ ____
ROOT
ATOM      3  C   LIG    1      184.749 184.120 175.020  0.00  0.00    +0.167 C 
ATOM      8  C   LIG    1      184.699 185.261 173.993  0.00  0.00    +0.080 C 
ATOM      9  C   LIG    1      186.070 185.905 173.754  0.00  0.00    +0.149 C 
ATOM     10  C   LIG    1      187.136 184.854 173.425  0.00  0.00    +0.171 C 
ATOM     11  C   LIG    1      187.205 183.742 174.473  0.00  0.00    +0.149 C 
ATOM     18  C   LIG    1      185.833 183.096 174.682  0.00  0.00    +0.080 C 
ENDROOT
BRANCH   3   1
ATOM      1  O   LIG    1      184.971 184.661 176.317  0.00  0.00    -0.377 OA
ATOM      2  H   LIG    1      184.124 184.999 176.656  0.00  0.00    +0.211 HD
ENDBRANCH   3   1
BRANCH   3   4
ATOM      4  C   LIG    1      183.401 183.463 175.086  0.00  0.00    +0.337 C 
ATOM      5  O   LIG    1      183.159 182.415 175.665  0.00  0.00    -0.248 OA
BRANCH   4   6
ATOM      6  O   LIG    1      182.480 184.191 174.408  0.00  0.00    -0.479 OA
ATOM      7  H   LIG    1      182.895 184.884 173.853  0.00  0.00    +0.295 HD
ENDBRANCH   4   6
ENDBRANCH   3   4
BRANCH  11  12
ATOM     12  O   LIG    1      188.103 182.726 174.027  0.00  0.00    -0.389 OA
ATOM     13  H   LIG    1      188.952 183.155 173.819  0.00  0.00    +0.210 HD
ENDBRANCH  11  12
BRANCH  10  14
ATOM     14  O   LIG    1      188.415 185.481 173.333  0.00  0.00    -0.387 OA
ATOM     15  H   LIG    1      188.800 185.236 172.475  0.00  0.00    +0.210 HD
ENDBRANCH  10  14
BRANCH   9  16
ATOM     16  O   LIG    1      186.454 186.665 174.899  0.00  0.00    -0.389 OA
ATOM     17  H   LIG    1      186.829 186.060 175.560  0.00  0.00    +0.210 HD
ENDBRANCH   9  16
TORSDOF 6
ENDMDL
MODEL 3
REMARK VINA RESULT:      -5.8      2.469      5.055
REMARK  Name = 6508
REMARK                            x       y       z     vdW  Elec       q    Type
REMARK                         _______ _______ _______ _____ _____    ______ ____
ROOT
ATOM      3  C   LIG    1      184.119 183.020 175.032  0.00  0.00    +0.167 C 
ATOM      8  C   LIG    1      183.938 184.542 174.934  0.00  0.00    +0.080 C 
ATOM      9  C   LIG    1      185.194 185.317 175.352  0.00  0.00    +0.149 C 
ATOM     10  C   LIG    1      186.437 184.816 174.610  0.00  0.00    +0.171 C 
ATOM     11  C   LIG    1      186.631 183.304 174.744  0.00  0.00    +0.149 C 
ATOM     18  C   LIG    1      185.377 182.547 174.301  0.00  0.00    +0.080 C 
ENDROOT
BRANCH   3   1
ATOM      1  O   LIG    1      184.172 182.637 176.401  0.00  0.00    -0.377 OA
ATOM      2  H   LIG    1      184.574 181.752 176.454  0.00  0.00    +0.211 HD
ENDBRANCH   3   1
BRANCH   3   4
ATOM      4  C   LIG    1      182.898 182.347 174.475  0.00  0.00    +0.337 C 
ATOM      5  O   LIG    1      181.790 182.858 174.395  0.00  0.00    -0.248 OA
BRANCH   4   6
ATOM      6  O   LIG    1      183.187 181.086 174.071  0.00  0.00    -0.479 OA
ATOM      7  H   LIG    1      182.451 180.464 174.254  0.00  0.00    +0.295 HD
ENDBRANCH   4   6
ENDBRANCH   3   4
BRANCH  11  12
ATOM     12  O   LIG    1      187.710 182.889 173.908  0.00  0.00    -0.389 OA
ATOM     13  H   LIG    1      188.520 183.316 174.238  0.00  0.00    +0.210 HD
ENDBRANCH  11  12
BRANCH  10  14
ATOM     14  O   LIG    1      187.597 185.476 175.117  0.00  0.00    -0.387 OA
ATOM     15  H   LIG    1      187.664 185.265 176.064  0.00  0.00    +0.210 HD
ENDBRANCH  10  14
BRANCH   9  16
ATOM     16  O   LIG    1      185.378 185.214 176.764  0.00  0.00    -0.389 OA
ATOM     17  H   LIG    1      184.509 185.105 177.182  0.00  0.00    +0.210 HD
ENDBRANCH   9  16
TORSDOF 6
ENDMDL
MODEL 4
REMARK VINA RESULT:      -5.8      7.538      9.389
REMARK  Name = 6508
REMARK                            x       y       z     vdW  Elec       q    Type
REMARK                         _______ _______ _______ _____ _____    ______ ____
ROOT
ATOM      3  C   LIG    1      190.580 183.733 181.594  0.00  0.00    +0.167 C 
ATOM      8  C   LIG    1      191.621 184.514 180.780  0.00  0.00    +0.080 C 
ATOM      9  C   LIG    1      191.015 185.710 180.033  0.00  0.00    +0.149 C 
ATOM     10  C   LIG    1      190.200 186.605 180.972  0.00  0.00    +0.171 C 
ATOM     11  C   LIG    1      189.140 185.825 181.752  0.00  0.00    +0.149 C 
ATOM     18  C   LIG    1      189.766 184.651 182.508  0.00  0.00    +0.080 C 
ENDROOT
BRANCH   3   1
ATOM      1  O   LIG    1      189.717 183.029 180.709  0.00  0.00    -0.377 OA
ATOM      2  H   LIG    1      190.065 182.128 180.596  0.00  0.00    +0.211 HD
ENDBRANCH   3   1
BRANCH   3   4
ATOM      4  C   LIG    1      191.282 182.675 182.395  0.00  0.00    +0.337 C 
ATOM      5  O   LIG    1      190.832 182.141 183.398  0.00  0.00    -0.248 OA
BRANCH   4   6
ATOM      6  O   LIG    1      192.492 182.390 181.856  0.00  0.00    -0.479 OA
ATOM      7  H   LIG    1      192.501 181.513 181.417  0.00  0.00    +0.295 HD
ENDBRANCH   4   6
ENDBRANCH   3   4
BRANCH  11  12
ATOM     12  O   LIG    1      188.528 186.687 182.711  0.00  0.00    -0.389 OA
ATOM     13  H   LIG    1      188.956 187.558 182.639  0.00  0.00    +0.210 HD
ENDBRANCH  11  12
BRANCH  10  14
ATOM     14  O   LIG    1      189.555 187.630 180.216  0.00  0.00    -0.387 OA
ATOM     15  H   LIG    1      190.210 188.332 180.056  0.00  0.00    +0.210 HD
ENDBRANCH  10  14
BRANCH   9  16
ATOM     16  O   LIG    1      190.204 185.246 178.954  0.00  0.00    -0.389 OA
ATOM     17  H   LIG    1      189.718 186.002 178.586  0.00  0.00    +0.210 HD
ENDBRANCH   9  16
TORSDOF 6
ENDMDL
MODEL 5
REMARK VINA RESULT:      -5.7      8.049      8.948
REMARK  Name = 6508
REMARK                            x       y       z     vdW  Elec       q    Type
REMARK                         _______ _______ _______ _____ _____    ______ ____
ROOT
ATOM      3  C   LIG    1      190.497 187.338 181.130  0.00  0.00    +0.167 C 
ATOM      8  C   LIG    1      189.757 187.111 182.456  0.00  0.00    +0.080 C 
ATOM      9  C   LIG    1      189.019 185.767 182.502  0.00  0.00    +0.149 C 
ATOM     10  C   LIG    1      189.946 184.604 182.131  0.00  0.00    +0.171 C 
ATOM     11  C   LIG    1      190.651 184.821 180.790  0.00  0.00    +0.149 C 
ATOM     18  C   LIG    1      191.399 186.156 180.771  0.00  0.00    +0.080 C 
ENDROOT
BRANCH   3   1
ATOM      1  O   LIG    1      189.551 187.566 180.092  0.00  0.00    -0.377 OA
ATOM      2  H   LIG    1      189.978 187.370 179.241  0.00  0.00    +0.211 HD
ENDBRANCH   3   1
BRANCH   3   4
ATOM      4  C   LIG    1      191.297 188.604 181.228  0.00  0.00    +0.337 C 
ATOM      5  O   LIG    1      192.061 188.882 182.141  0.00  0.00    -0.248 OA
BRANCH   4   6
ATOM      6  O   LIG    1      191.056 189.408 180.164  0.00  0.00    -0.479 OA
ATOM      7  H   LIG    1      191.227 190.351 180.370  0.00  0.00    +0.295 HD
ENDBRANCH   4   6
ENDBRANCH   3   4
BRANCH  11  12
ATOM     12  O   LIG    1      191.606 183.781 180.585  0.00  0.00    -0.389 OA
ATOM     13  H   LIG    1      191.548 183.509 179.652  0.00  0.00    +0.210 HD
ENDBRANCH  11  12
BRANCH  10  14
ATOM     14  O   LIG    1      189.193 183.394 182.066  0.00  0.00    -0.387 OA
ATOM     15  H   LIG    1      188.728 183.292 182.914  0.00  0.00    +0.210 HD
ENDBRANCH  10  14
BRANCH   9  16
ATOM     16  O   LIG    1      187.890 185.804 181.630  0.00  0.00    -0.389 OA
ATOM     17  H   LIG    1      187.134 185.401 182.087  0.00  0.00    +0.210 HD
ENDBRANCH   9  16
TORSDOF 6
ENDMDL
MODEL 6
REMARK VINA RESULT:      -5.4      1.818      4.602
REMARK  Name = 6508
REMARK                            x       y       z     vdW  Elec       q    Type
REMARK                         _______ _______ _______ _____ _____    ______ ____
ROOT
ATOM      3  C   LIG    1      184.267 184.036 174.638  0.00  0.00    +0.167 C 
ATOM      8  C   LIG    1      185.271 183.955 173.480  0.00  0.00    +0.080 C 
ATOM      9  C   LIG    1      185.941 185.302 173.180  0.00  0.00    +0.149 C 
ATOM     10  C   LIG    1      186.539 185.927 174.444  0.00  0.00    +0.171 C 
ATOM     11  C   LIG    1      185.521 186.039 175.581  0.00  0.00    +0.149 C 
ATOM     18  C   LIG    1      184.880 184.682 175.882  0.00  0.00    +0.080 C 
ENDROOT
BRANCH   3   1
ATOM      1  O   LIG    1      183.120 184.767 174.220  0.00  0.00    -0.377 OA
ATOM      2  H   LIG    1      182.804 184.385 173.383  0.00  0.00    +0.211 HD
ENDBRANCH   3   1
BRANCH   3   4
ATOM      4  C   LIG    1      183.769 182.654 174.950  0.00  0.00    +0.337 C 
ATOM      5  O   LIG    1      182.798 182.124 174.431  0.00  0.00    -0.248 OA
BRANCH   4   6
ATOM      6  O   LIG    1      184.545 182.067 175.893  0.00  0.00    -0.479 OA
ATOM      7  H   LIG    1      185.038 181.297 175.536  0.00  0.00    +0.295 HD
ENDBRANCH   4   6
ENDBRANCH   3   4
BRANCH  11  12
ATOM     12  O   LIG    1      186.181 186.483 176.766  0.00  0.00    -0.389 OA
ATOM     13  H   LIG    1      187.140 186.422 176.609  0.00  0.00    +0.210 HD
ENDBRANCH  11  12
BRANCH  10  14
ATOM     14  O   LIG    1      187.039 187.230 174.144  0.00  0.00    -0.387 OA
ATOM     15  H   LIG    1      186.567 187.551 173.357  0.00  0.00    +0.210 HD
ENDBRANCH  10  14
BRANCH   9  16
ATOM     16  O   LIG    1      184.996 186.189 172.582  0.00  0.00    -0.389 OA
ATOM     17  H   LIG    1      185.389 186.562 171.776  0.00  0.00    +0.210 HD
ENDBRANCH   9  16
TORSDOF 6
ENDMDL
MODEL 7
REMARK VINA RESULT:      -5.3      1.232      2.598
REMARK  Name = 6508
REMARK                            x       y       z     vdW  Elec       q    Type
REMARK                         _______ _______ _______ _____ _____    ______ ____
ROOT
ATOM      3  C   LIG    1      186.903 185.921 172.619  0.00  0.00    +0.167 C 
ATOM      8  C   LIG    1      185.723 186.805 173.048  0.00  0.00    +0.080 C 
ATOM      9  C   LIG    1      184.874 186.165 174.153  0.00  0.00    +0.149 C 
ATOM     10  C   LIG    1      185.737 185.710 175.335  0.00  0.00    +0.171 C 
ATOM     11  C   LIG    1      186.888 184.799 174.903  0.00  0.00    +0.149 C 
ATOM     18  C   LIG    1      187.738 185.463 173.816  0.00  0.00    +0.080 C 
ENDROOT
BRANCH   3   1
ATOM      1  O   LIG    1      186.414 184.795 171.901  0.00  0.00    -0.377 OA
ATOM      2  H   LIG    1      187.171 184.227 171.672  0.00  0.00    +0.211 HD
ENDBRANCH   3   1
BRANCH   3   4
ATOM      4  C   LIG    1      187.752 186.682 171.641  0.00  0.00    +0.337 C 
ATOM      5  O   LIG    1      188.769 186.256 171.115  0.00  0.00    -0.248 OA
BRANCH   4   6
ATOM      6  O   LIG    1      187.238 187.917 171.421  0.00  0.00    -0.479 OA
ATOM      7  H   LIG    1      187.932 188.610 171.427  0.00  0.00    +0.295 HD
ENDBRANCH   4   6
ENDBRANCH   3   4
BRANCH  11  12
ATOM     12  O   LIG    1      187.734 184.542 176.023  0.00  0.00    -0.389 OA
ATOM     13  H   LIG    1      187.572 183.627 176.310  0.00  0.00    +0.210 HD
ENDBRANCH  11  12
BRANCH  10  14
ATOM     14  O   LIG    1      184.927 185.012 176.280  0.00  0.00    -0.387 OA
ATOM     15  H   LIG    1      184.444 184.320 175.797  0.00  0.00    +0.210 HD
ENDBRANCH  10  14
BRANCH   9  16
ATOM     16  O   LIG    1      184.135 185.066 173.621  0.00  0.00    -0.389 OA
ATOM     17  H   LIG    1      183.367 185.414 173.140  0.00  0.00    +0.210 HD
ENDBRANCH   9  16
TORSDOF 6
ENDMDL
MODEL 8
REMARK VINA RESULT:      -5.3      7.945      9.337
REMARK  Name = 6508
REMARK                            x       y       z     vdW  Elec       q    Type
REMARK                         _______ _______ _______ _____ _____    ______ ____
ROOT
ATOM      3  C   LIG    1      189.927 185.589 181.201  0.00  0.00    +0.167 C 
ATOM      8  C   LIG    1      191.023 186.583 180.790  0.00  0.00    +0.080 C 
ATOM      9  C   LIG    1      190.684 188.030 181.170  0.00  0.00    +0.149 C 
ATOM     10  C   LIG    1      190.297 188.148 182.648  0.00  0.00    +0.171 C 
ATOM     11  C   LIG    1      189.179 187.180 183.040  0.00  0.00    +0.149 C 
ATOM     18  C   LIG    1      189.545 185.739 182.674  0.00  0.00    +0.080 C 
ENDROOT
BRANCH   3   1
ATOM      1  O   LIG    1      188.784 185.775 180.375  0.00  0.00    -0.377 OA
ATOM      2  H   LIG    1      187.999 185.819 180.947  0.00  0.00    +0.211 HD
ENDBRANCH   3   1
BRANCH   3   4
ATOM      4  C   LIG    1      190.404 184.194 180.917  0.00  0.00    +0.337 C 
ATOM      5  O   LIG    1      191.091 183.520 181.671  0.00  0.00    -0.248 OA
BRANCH   4   6
ATOM      6  O   LIG    1      189.972 183.777 179.703  0.00  0.00    -0.479 OA
ATOM      7  H   LIG    1      189.157 183.236 179.768  0.00  0.00    +0.295 HD
ENDBRANCH   4   6
ENDBRANCH   3   4
BRANCH  11  12
ATOM     12  O   LIG    1      188.980 187.235 184.452  0.00  0.00    -0.389 OA
ATOM     13  H   LIG    1      189.376 186.434 184.837  0.00  0.00    +0.210 HD
ENDBRANCH  11  12
BRANCH  10  14
ATOM     14  O   LIG    1      189.872 189.481 182.927  0.00  0.00    -0.387 OA
ATOM     15  H   LIG    1      189.965 189.996 182.108  0.00  0.00    +0.210 HD
ENDBRANCH  10  14
BRANCH   9  16
ATOM     16  O   LIG    1      189.631 188.515 180.337  0.00  0.00    -0.389 OA
ATOM     17  H   LIG    1      189.844 188.303 179.414  0.00  0.00    +0.210 HD
ENDBRANCH   9  16
TORSDOF 6
ENDMDL
MODEL 9
REMARK VINA RESULT:      -5.3      2.228      3.524
REMARK  Name = 6508
REMARK                            x       y       z     vdW  Elec       q    Type
REMARK                         _______ _______ _______ _____ _____    ______ ____
ROOT
ATOM      3  C   LIG    1      184.479 185.400 173.876  0.00  0.00    +0.167 C 
ATOM      8  C   LIG    1      185.784 186.210 173.872  0.00  0.00    +0.080 C 
ATOM      9  C   LIG    1      186.794 185.714 174.914  0.00  0.00    +0.149 C 
ATOM     10  C   LIG    1      187.030 184.204 174.794  0.00  0.00    +0.171 C 
ATOM     11  C   LIG    1      185.728 183.402 174.837  0.00  0.00    +0.149 C 
ATOM     18  C   LIG    1      184.742 183.897 173.776  0.00  0.00    +0.080 C 
ENDROOT
BRANCH   3   1
ATOM      1  O   LIG    1      183.743 185.693 175.057  0.00  0.00    -0.377 OA
ATOM      2  H   LIG    1      184.375 185.818 175.787  0.00  0.00    +0.211 HD
ENDBRANCH   3   1
BRANCH   3   4
ATOM      4  C   LIG    1      183.614 185.864 172.739  0.00  0.00    +0.337 C 
ATOM      5  O   LIG    1      184.028 186.274 171.665  0.00  0.00    -0.248 OA
BRANCH   4   6
ATOM      6  O   LIG    1      182.303 185.769 173.066  0.00  0.00    -0.479 OA
ATOM      7  H   LIG    1      182.096 184.924 173.518  0.00  0.00    +0.295 HD
ENDBRANCH   4   6
ENDBRANCH   3   4
BRANCH  11  12
ATOM     12  O   LIG    1      186.008 182.029 174.567  0.00  0.00    -0.389 OA
ATOM     13  H   LIG    1      186.452 181.984 173.702  0.00  0.00    +0.210 HD
ENDBRANCH  11  12
BRANCH  10  14
ATOM     14  O   LIG    1      187.877 183.766 175.856  0.00  0.00    -0.387 OA
ATOM     15  H   LIG    1      188.554 183.185 175.471  0.00  0.00    +0.210 HD
ENDBRANCH  10  14
BRANCH   9  16
ATOM     16  O   LIG    1      186.339 186.046 176.225  0.00  0.00    -0.389 OA
ATOM     17  H   LIG    1      185.982 185.244 176.641  0.00  0.00    +0.210 HD
ENDBRANCH   9  16
TORSDOF 6
ENDMDL
MODEL 10
REMARK VINA RESULT:      -5.2      1.269      4.353
REMARK  Name = 6508
REMARK                            x       y       z     vdW  Elec       q    Type
REMARK                         _______ _______ _______ _____ _____    ______ ____
ROOT
ATOM      3  C   LIG    1      186.228 184.448 174.377  0.00  0.00    +0.167 C 
ATOM      8  C   LIG    1      185.463 185.773 174.248  0.00  0.00    +0.080 C 
ATOM      9  C   LIG    1      186.269 186.856 173.520  0.00  0.00    +0.149 C 
ATOM     10  C   LIG    1      186.810 186.348 172.180  0.00  0.00    +0.171 C 
ATOM     11  C   LIG    1      187.603 185.048 172.322  0.00  0.00    +0.149 C 
ATOM     18  C   LIG    1      186.775 183.973 173.030  0.00  0.00    +0.080 C 
ENDROOT
BRANCH   3   1
ATOM      1  O   LIG    1      187.289 184.603 175.312  0.00  0.00    -0.377 OA
ATOM      2  H   LIG    1      186.932 184.458 176.205  0.00  0.00    +0.211 HD
ENDBRANCH   3   1
BRANCH   3   4
ATOM      4  C   LIG    1      185.317 183.415 174.973  0.00  0.00    +0.337 C 
ATOM      5  O   LIG    1      184.116 183.557 175.152  0.00  0.00    -0.248 OA
BRANCH   4   6
ATOM      6  O   LIG    1      186.007 182.294 175.294  0.00  0.00    -0.479 OA
ATOM      7  H   LIG    1      186.314 181.811 174.498  0.00  0.00    +0.295 HD
ENDBRANCH   4   6
ENDBRANCH   3   4
BRANCH  11  12
ATOM     12  O   LIG    1      187.942 184.555 171.026  0.00  0.00    -0.389 OA
ATOM     13  H   LIG    1      187.457 183.723 170.892  0.00  0.00    +0.210 HD
ENDBRANCH  11  12
BRANCH  10  14
ATOM     14  O   LIG    1      187.653 187.341 171.596  0.00  0.00    -0.387 OA
ATOM     15  H   LIG    1      188.429 187.442 172.173  0.00  0.00    +0.210 HD
ENDBRANCH  10  14
BRANCH   9  16
ATOM     16  O   LIG    1      187.337 187.306 174.353  0.00  0.00    -0.389 OA
ATOM     17  H   LIG    1      187.030 188.074 174.861  0.00  0.00    +0.210 HD
ENDBRANCH   9  16
TORSDOF 6
ENDMDL
