REMARK VINA RESULT:      -5.7      8.049      8.948
REMARK  Name = 6508
REMARK                            x       y       z     vdW  Elec       q    Type
REMARK                         _______ _______ _______ _____ _____    ______ ____
ROOT
ATOM      3  C   LIG    1      190.497 187.338 181.130  0.00  0.00    +0.167 C 
ATOM      8  C   LIG    1      189.757 187.111 182.456  0.00  0.00    +0.080 C 
ATOM      9  C   LIG    1      189.019 185.767 182.502  0.00  0.00    +0.149 C 
ATOM     10  C   LIG    1      189.946 184.604 182.131  0.00  0.00    +0.171 C 
ATOM     11  C   LIG    1      190.651 184.821 180.790  0.00  0.00    +0.149 C 
ATOM     18  C   LIG    1      191.399 186.156 180.771  0.00  0.00    +0.080 C 
ENDROOT
BRANCH   3   1
ATOM      1  O   LIG    1      189.551 187.566 180.092  0.00  0.00    -0.377 OA
ATOM      2  H   LIG    1      189.978 187.370 179.241  0.00  0.00    +0.211 HD
ENDBRANCH   3   1
BRANCH   3   4
ATOM      4  C   LIG    1      191.297 188.604 181.228  0.00  0.00    +0.337 C 
ATOM      5  O   LIG    1      192.061 188.882 182.141  0.00  0.00    -0.248 OA
BRANCH   4   6
ATOM      6  O   LIG    1      191.056 189.408 180.164  0.00  0.00    -0.479 OA
ATOM      7  H   LIG    1      191.227 190.351 180.370  0.00  0.00    +0.295 HD
ENDBRANCH   4   6
ENDBRANCH   3   4
BRANCH  11  12
ATOM     12  O   LIG    1      191.606 183.781 180.585  0.00  0.00    -0.389 OA
ATOM     13  H   LIG    1      191.548 183.509 179.652  0.00  0.00    +0.210 HD
ENDBRANCH  11  12
BRANCH  10  14
ATOM     14  O   LIG    1      189.193 183.394 182.066  0.00  0.00    -0.387 OA
ATOM     15  H   LIG    1      188.728 183.292 182.914  0.00  0.00    +0.210 HD
ENDBRANCH  10  14
BRANCH   9  16
ATOM     16  O   LIG    1      187.890 185.804 181.630  0.00  0.00    -0.389 OA
ATOM     17  H   LIG    1      187.134 185.401 182.087  0.00  0.00    +0.210 HD
ENDBRANCH   9  16
TORSDOF 6
