REMARK VINA RESULT:      -5.2      1.269      4.353
REMARK  Name = 6508
REMARK                            x       y       z     vdW  Elec       q    Type
REMARK                         _______ _______ _______ _____ _____    ______ ____
ROOT
ATOM      3  C   LIG    1      186.228 184.448 174.377  0.00  0.00    +0.167 C 
ATOM      8  C   LIG    1      185.463 185.773 174.248  0.00  0.00    +0.080 C 
ATOM      9  C   LIG    1      186.269 186.856 173.520  0.00  0.00    +0.149 C 
ATOM     10  C   LIG    1      186.810 186.348 172.180  0.00  0.00    +0.171 C 
ATOM     11  C   LIG    1      187.603 185.048 172.322  0.00  0.00    +0.149 C 
ATOM     18  C   LIG    1      186.775 183.973 173.030  0.00  0.00    +0.080 C 
ENDROOT
BRANCH   3   1
ATOM      1  O   LIG    1      187.289 184.603 175.312  0.00  0.00    -0.377 OA
ATOM      2  H   LIG    1      186.932 184.458 176.205  0.00  0.00    +0.211 HD
ENDBRANCH   3   1
BRANCH   3   4
ATOM      4  C   LIG    1      185.317 183.415 174.973  0.00  0.00    +0.337 C 
ATOM      5  O   LIG    1      184.116 183.557 175.152  0.00  0.00    -0.248 OA
BRANCH   4   6
ATOM      6  O   LIG    1      186.007 182.294 175.294  0.00  0.00    -0.479 OA
ATOM      7  H   LIG    1      186.314 181.811 174.498  0.00  0.00    +0.295 HD
ENDBRANCH   4   6
ENDBRANCH   3   4
BRANCH  11  12
ATOM     12  O   LIG    1      187.942 184.555 171.026  0.00  0.00    -0.389 OA
ATOM     13  H   LIG    1      187.457 183.723 170.892  0.00  0.00    +0.210 HD
ENDBRANCH  11  12
BRANCH  10  14
ATOM     14  O   LIG    1      187.653 187.341 171.596  0.00  0.00    -0.387 OA
ATOM     15  H   LIG    1      188.429 187.442 172.173  0.00  0.00    +0.210 HD
ENDBRANCH  10  14
BRANCH   9  16
ATOM     16  O   LIG    1      187.337 187.306 174.353  0.00  0.00    -0.389 OA
ATOM     17  H   LIG    1      187.030 188.074 174.861  0.00  0.00    +0.210 HD
ENDBRANCH   9  16
TORSDOF 6
