REMARK VINA RESULT:      -5.9      1.705      4.672
REMARK  Name = 6508
REMARK                            x       y       z     vdW  Elec       q    Type
REMARK                         _______ _______ _______ _____ _____    ______ ____
ROOT
ATOM      3  C   LIG    1      184.749 184.120 175.020  0.00  0.00    +0.167 C 
ATOM      8  C   LIG    1      184.699 185.261 173.993  0.00  0.00    +0.080 C 
ATOM      9  C   LIG    1      186.070 185.905 173.754  0.00  0.00    +0.149 C 
ATOM     10  C   LIG    1      187.136 184.854 173.425  0.00  0.00    +0.171 C 
ATOM     11  C   LIG    1      187.205 183.742 174.473  0.00  0.00    +0.149 C 
ATOM     18  C   LIG    1      185.833 183.096 174.682  0.00  0.00    +0.080 C 
ENDROOT
BRANCH   3   1
ATOM      1  O   LIG    1      184.971 184.661 176.317  0.00  0.00    -0.377 OA
ATOM      2  H   LIG    1      184.124 184.999 176.656  0.00  0.00    +0.211 HD
ENDBRANCH   3   1
BRANCH   3   4
ATOM      4  C   LIG    1      183.401 183.463 175.086  0.00  0.00    +0.337 C 
ATOM      5  O   LIG    1      183.159 182.415 175.665  0.00  0.00    -0.248 OA
BRANCH   4   6
ATOM      6  O   LIG    1      182.480 184.191 174.408  0.00  0.00    -0.479 OA
ATOM      7  H   LIG    1      182.895 184.884 173.853  0.00  0.00    +0.295 HD
ENDBRANCH   4   6
ENDBRANCH   3   4
BRANCH  11  12
ATOM     12  O   LIG    1      188.103 182.726 174.027  0.00  0.00    -0.389 OA
ATOM     13  H   LIG    1      188.952 183.155 173.819  0.00  0.00    +0.210 HD
ENDBRANCH  11  12
BRANCH  10  14
ATOM     14  O   LIG    1      188.415 185.481 173.333  0.00  0.00    -0.387 OA
ATOM     15  H   LIG    1      188.800 185.236 172.475  0.00  0.00    +0.210 HD
ENDBRANCH  10  14
BRANCH   9  16
ATOM     16  O   LIG    1      186.454 186.665 174.899  0.00  0.00    -0.389 OA
ATOM     17  H   LIG    1      186.829 186.060 175.560  0.00  0.00    +0.210 HD
ENDBRANCH   9  16
TORSDOF 6
