REMARK VINA RESULT:      -5.3      7.945      9.337
REMARK  Name = 6508
REMARK                            x       y       z     vdW  Elec       q    Type
REMARK                         _______ _______ _______ _____ _____    ______ ____
ROOT
ATOM      3  C   LIG    1      189.927 185.589 181.201  0.00  0.00    +0.167 C 
ATOM      8  C   LIG    1      191.023 186.583 180.790  0.00  0.00    +0.080 C 
ATOM      9  C   LIG    1      190.684 188.030 181.170  0.00  0.00    +0.149 C 
ATOM     10  C   LIG    1      190.297 188.148 182.648  0.00  0.00    +0.171 C 
ATOM     11  C   LIG    1      189.179 187.180 183.040  0.00  0.00    +0.149 C 
ATOM     18  C   LIG    1      189.545 185.739 182.674  0.00  0.00    +0.080 C 
ENDROOT
BRANCH   3   1
ATOM      1  O   LIG    1      188.784 185.775 180.375  0.00  0.00    -0.377 OA
ATOM      2  H   LIG    1      187.999 185.819 180.947  0.00  0.00    +0.211 HD
ENDBRANCH   3   1
BRANCH   3   4
ATOM      4  C   LIG    1      190.404 184.194 180.917  0.00  0.00    +0.337 C 
ATOM      5  O   LIG    1      191.091 183.520 181.671  0.00  0.00    -0.248 OA
BRANCH   4   6
ATOM      6  O   LIG    1      189.972 183.777 179.703  0.00  0.00    -0.479 OA
ATOM      7  H   LIG    1      189.157 183.236 179.768  0.00  0.00    +0.295 HD
ENDBRANCH   4   6
ENDBRANCH   3   4
BRANCH  11  12
ATOM     12  O   LIG    1      188.980 187.235 184.452  0.00  0.00    -0.389 OA
ATOM     13  H   LIG    1      189.376 186.434 184.837  0.00  0.00    +0.210 HD
ENDBRANCH  11  12
BRANCH  10  14
ATOM     14  O   LIG    1      189.872 189.481 182.927  0.00  0.00    -0.387 OA
ATOM     15  H   LIG    1      189.965 189.996 182.108  0.00  0.00    +0.210 HD
ENDBRANCH  10  14
BRANCH   9  16
ATOM     16  O   LIG    1      189.631 188.515 180.337  0.00  0.00    -0.389 OA
ATOM     17  H   LIG    1      189.844 188.303 179.414  0.00  0.00    +0.210 HD
ENDBRANCH   9  16
TORSDOF 6
