REMARK VINA RESULT:      -5.3      2.228      3.524
REMARK  Name = 6508
REMARK                            x       y       z     vdW  Elec       q    Type
REMARK                         _______ _______ _______ _____ _____    ______ ____
ROOT
ATOM      3  C   LIG    1      184.479 185.400 173.876  0.00  0.00    +0.167 C 
ATOM      8  C   LIG    1      185.784 186.210 173.872  0.00  0.00    +0.080 C 
ATOM      9  C   LIG    1      186.794 185.714 174.914  0.00  0.00    +0.149 C 
ATOM     10  C   LIG    1      187.030 184.204 174.794  0.00  0.00    +0.171 C 
ATOM     11  C   LIG    1      185.728 183.402 174.837  0.00  0.00    +0.149 C 
ATOM     18  C   LIG    1      184.742 183.897 173.776  0.00  0.00    +0.080 C 
ENDROOT
BRANCH   3   1
ATOM      1  O   LIG    1      183.743 185.693 175.057  0.00  0.00    -0.377 OA
ATOM      2  H   LIG    1      184.375 185.818 175.787  0.00  0.00    +0.211 HD
ENDBRANCH   3   1
BRANCH   3   4
ATOM      4  C   LIG    1      183.614 185.864 172.739  0.00  0.00    +0.337 C 
ATOM      5  O   LIG    1      184.028 186.274 171.665  0.00  0.00    -0.248 OA
BRANCH   4   6
ATOM      6  O   LIG    1      182.303 185.769 173.066  0.00  0.00    -0.479 OA
ATOM      7  H   LIG    1      182.096 184.924 173.518  0.00  0.00    +0.295 HD
ENDBRANCH   4   6
ENDBRANCH   3   4
BRANCH  11  12
ATOM     12  O   LIG    1      186.008 182.029 174.567  0.00  0.00    -0.389 OA
ATOM     13  H   LIG    1      186.452 181.984 173.702  0.00  0.00    +0.210 HD
ENDBRANCH  11  12
BRANCH  10  14
ATOM     14  O   LIG    1      187.877 183.766 175.856  0.00  0.00    -0.387 OA
ATOM     15  H   LIG    1      188.554 183.185 175.471  0.00  0.00    +0.210 HD
ENDBRANCH  10  14
BRANCH   9  16
ATOM     16  O   LIG    1      186.339 186.046 176.225  0.00  0.00    -0.389 OA
ATOM     17  H   LIG    1      185.982 185.244 176.641  0.00  0.00    +0.210 HD
ENDBRANCH   9  16
TORSDOF 6
