REMARK VINA RESULT:      -5.3      1.232      2.598
REMARK  Name = 6508
REMARK                            x       y       z     vdW  Elec       q    Type
REMARK                         _______ _______ _______ _____ _____    ______ ____
ROOT
ATOM      3  C   LIG    1      186.903 185.921 172.619  0.00  0.00    +0.167 C 
ATOM      8  C   LIG    1      185.723 186.805 173.048  0.00  0.00    +0.080 C 
ATOM      9  C   LIG    1      184.874 186.165 174.153  0.00  0.00    +0.149 C 
ATOM     10  C   LIG    1      185.737 185.710 175.335  0.00  0.00    +0.171 C 
ATOM     11  C   LIG    1      186.888 184.799 174.903  0.00  0.00    +0.149 C 
ATOM     18  C   LIG    1      187.738 185.463 173.816  0.00  0.00    +0.080 C 
ENDROOT
BRANCH   3   1
ATOM      1  O   LIG    1      186.414 184.795 171.901  0.00  0.00    -0.377 OA
ATOM      2  H   LIG    1      187.171 184.227 171.672  0.00  0.00    +0.211 HD
ENDBRANCH   3   1
BRANCH   3   4
ATOM      4  C   LIG    1      187.752 186.682 171.641  0.00  0.00    +0.337 C 
ATOM      5  O   LIG    1      188.769 186.256 171.115  0.00  0.00    -0.248 OA
BRANCH   4   6
ATOM      6  O   LIG    1      187.238 187.917 171.421  0.00  0.00    -0.479 OA
ATOM      7  H   LIG    1      187.932 188.610 171.427  0.00  0.00    +0.295 HD
ENDBRANCH   4   6
ENDBRANCH   3   4
BRANCH  11  12
ATOM     12  O   LIG    1      187.734 184.542 176.023  0.00  0.00    -0.389 OA
ATOM     13  H   LIG    1      187.572 183.627 176.310  0.00  0.00    +0.210 HD
ENDBRANCH  11  12
BRANCH  10  14
ATOM     14  O   LIG    1      184.927 185.012 176.280  0.00  0.00    -0.387 OA
ATOM     15  H   LIG    1      184.444 184.320 175.797  0.00  0.00    +0.210 HD
ENDBRANCH  10  14
BRANCH   9  16
ATOM     16  O   LIG    1      184.135 185.066 173.621  0.00  0.00    -0.389 OA
ATOM     17  H   LIG    1      183.367 185.414 173.140  0.00  0.00    +0.210 HD
ENDBRANCH   9  16
TORSDOF 6
