REMARK VINA RESULT:      -5.4      1.818      4.602
REMARK  Name = 6508
REMARK                            x       y       z     vdW  Elec       q    Type
REMARK                         _______ _______ _______ _____ _____    ______ ____
ROOT
ATOM      3  C   LIG    1      184.267 184.036 174.638  0.00  0.00    +0.167 C 
ATOM      8  C   LIG    1      185.271 183.955 173.480  0.00  0.00    +0.080 C 
ATOM      9  C   LIG    1      185.941 185.302 173.180  0.00  0.00    +0.149 C 
ATOM     10  C   LIG    1      186.539 185.927 174.444  0.00  0.00    +0.171 C 
ATOM     11  C   LIG    1      185.521 186.039 175.581  0.00  0.00    +0.149 C 
ATOM     18  C   LIG    1      184.880 184.682 175.882  0.00  0.00    +0.080 C 
ENDROOT
BRANCH   3   1
ATOM      1  O   LIG    1      183.120 184.767 174.220  0.00  0.00    -0.377 OA
ATOM      2  H   LIG    1      182.804 184.385 173.383  0.00  0.00    +0.211 HD
ENDBRANCH   3   1
BRANCH   3   4
ATOM      4  C   LIG    1      183.769 182.654 174.950  0.00  0.00    +0.337 C 
ATOM      5  O   LIG    1      182.798 182.124 174.431  0.00  0.00    -0.248 OA
BRANCH   4   6
ATOM      6  O   LIG    1      184.545 182.067 175.893  0.00  0.00    -0.479 OA
ATOM      7  H   LIG    1      185.038 181.297 175.536  0.00  0.00    +0.295 HD
ENDBRANCH   4   6
ENDBRANCH   3   4
BRANCH  11  12
ATOM     12  O   LIG    1      186.181 186.483 176.766  0.00  0.00    -0.389 OA
ATOM     13  H   LIG    1      187.140 186.422 176.609  0.00  0.00    +0.210 HD
ENDBRANCH  11  12
BRANCH  10  14
ATOM     14  O   LIG    1      187.039 187.230 174.144  0.00  0.00    -0.387 OA
ATOM     15  H   LIG    1      186.567 187.551 173.357  0.00  0.00    +0.210 HD
ENDBRANCH  10  14
BRANCH   9  16
ATOM     16  O   LIG    1      184.996 186.189 172.582  0.00  0.00    -0.389 OA
ATOM     17  H   LIG    1      185.389 186.562 171.776  0.00  0.00    +0.210 HD
ENDBRANCH   9  16
TORSDOF 6
