REMARK VINA RESULT:      -5.8      7.538      9.389
REMARK  Name = 6508
REMARK                            x       y       z     vdW  Elec       q    Type
REMARK                         _______ _______ _______ _____ _____    ______ ____
ROOT
ATOM      3  C   LIG    1      190.580 183.733 181.594  0.00  0.00    +0.167 C 
ATOM      8  C   LIG    1      191.621 184.514 180.780  0.00  0.00    +0.080 C 
ATOM      9  C   LIG    1      191.015 185.710 180.033  0.00  0.00    +0.149 C 
ATOM     10  C   LIG    1      190.200 186.605 180.972  0.00  0.00    +0.171 C 
ATOM     11  C   LIG    1      189.140 185.825 181.752  0.00  0.00    +0.149 C 
ATOM     18  C   LIG    1      189.766 184.651 182.508  0.00  0.00    +0.080 C 
ENDROOT
BRANCH   3   1
ATOM      1  O   LIG    1      189.717 183.029 180.709  0.00  0.00    -0.377 OA
ATOM      2  H   LIG    1      190.065 182.128 180.596  0.00  0.00    +0.211 HD
ENDBRANCH   3   1
BRANCH   3   4
ATOM      4  C   LIG    1      191.282 182.675 182.395  0.00  0.00    +0.337 C 
ATOM      5  O   LIG    1      190.832 182.141 183.398  0.00  0.00    -0.248 OA
BRANCH   4   6
ATOM      6  O   LIG    1      192.492 182.390 181.856  0.00  0.00    -0.479 OA
ATOM      7  H   LIG    1      192.501 181.513 181.417  0.00  0.00    +0.295 HD
ENDBRANCH   4   6
ENDBRANCH   3   4
BRANCH  11  12
ATOM     12  O   LIG    1      188.528 186.687 182.711  0.00  0.00    -0.389 OA
ATOM     13  H   LIG    1      188.956 187.558 182.639  0.00  0.00    +0.210 HD
ENDBRANCH  11  12
BRANCH  10  14
ATOM     14  O   LIG    1      189.555 187.630 180.216  0.00  0.00    -0.387 OA
ATOM     15  H   LIG    1      190.210 188.332 180.056  0.00  0.00    +0.210 HD
ENDBRANCH  10  14
BRANCH   9  16
ATOM     16  O   LIG    1      190.204 185.246 178.954  0.00  0.00    -0.389 OA
ATOM     17  H   LIG    1      189.718 186.002 178.586  0.00  0.00    +0.210 HD
ENDBRANCH   9  16
TORSDOF 6
