REMARK VINA RESULT:      -5.8      2.469      5.055
REMARK  Name = 6508
REMARK                            x       y       z     vdW  Elec       q    Type
REMARK                         _______ _______ _______ _____ _____    ______ ____
ROOT
ATOM      3  C   LIG    1      184.119 183.020 175.032  0.00  0.00    +0.167 C 
ATOM      8  C   LIG    1      183.938 184.542 174.934  0.00  0.00    +0.080 C 
ATOM      9  C   LIG    1      185.194 185.317 175.352  0.00  0.00    +0.149 C 
ATOM     10  C   LIG    1      186.437 184.816 174.610  0.00  0.00    +0.171 C 
ATOM     11  C   LIG    1      186.631 183.304 174.744  0.00  0.00    +0.149 C 
ATOM     18  C   LIG    1      185.377 182.547 174.301  0.00  0.00    +0.080 C 
ENDROOT
BRANCH   3   1
ATOM      1  O   LIG    1      184.172 182.637 176.401  0.00  0.00    -0.377 OA
ATOM      2  H   LIG    1      184.574 181.752 176.454  0.00  0.00    +0.211 HD
ENDBRANCH   3   1
BRANCH   3   4
ATOM      4  C   LIG    1      182.898 182.347 174.475  0.00  0.00    +0.337 C 
ATOM      5  O   LIG    1      181.790 182.858 174.395  0.00  0.00    -0.248 OA
BRANCH   4   6
ATOM      6  O   LIG    1      183.187 181.086 174.071  0.00  0.00    -0.479 OA
ATOM      7  H   LIG    1      182.451 180.464 174.254  0.00  0.00    +0.295 HD
ENDBRANCH   4   6
ENDBRANCH   3   4
BRANCH  11  12
ATOM     12  O   LIG    1      187.710 182.889 173.908  0.00  0.00    -0.389 OA
ATOM     13  H   LIG    1      188.520 183.316 174.238  0.00  0.00    +0.210 HD
ENDBRANCH  11  12
BRANCH  10  14
ATOM     14  O   LIG    1      187.597 185.476 175.117  0.00  0.00    -0.387 OA
ATOM     15  H   LIG    1      187.664 185.265 176.064  0.00  0.00    +0.210 HD
ENDBRANCH  10  14
BRANCH   9  16
ATOM     16  O   LIG    1      185.378 185.214 176.764  0.00  0.00    -0.389 OA
ATOM     17  H   LIG    1      184.509 185.105 177.182  0.00  0.00    +0.210 HD
ENDBRANCH   9  16
TORSDOF 6
