REMARK VINA RESULT:      -5.9      0.000      0.000
REMARK  Name = 6508
REMARK                            x       y       z     vdW  Elec       q    Type
REMARK                         _______ _______ _______ _____ _____    ______ ____
ROOT
ATOM      3  C   LIG    1      187.054 186.356 173.301  0.00  0.00    +0.167 C 
ATOM      8  C   LIG    1      187.499 184.947 173.721  0.00  0.00    +0.080 C 
ATOM      9  C   LIG    1      186.730 184.421 174.939  0.00  0.00    +0.149 C 
ATOM     10  C   LIG    1      185.215 184.532 174.739  0.00  0.00    +0.171 C 
ATOM     11  C   LIG    1      184.776 185.948 174.358  0.00  0.00    +0.149 C 
ATOM     18  C   LIG    1      185.538 186.447 173.127  0.00  0.00    +0.080 C 
ENDROOT
BRANCH   3   1
ATOM      1  O   LIG    1      187.496 187.300 174.269  0.00  0.00    -0.377 OA
ATOM      2  H   LIG    1      186.723 187.801 174.581  0.00  0.00    +0.211 HD
ENDBRANCH   3   1
BRANCH   3   4
ATOM      4  C   LIG    1      187.757 186.729 172.027  0.00  0.00    +0.337 C 
ATOM      5  O   LIG    1      187.541 186.228 170.934  0.00  0.00    -0.248 OA
BRANCH   4   6
ATOM      6  O   LIG    1      188.673 187.702 172.253  0.00  0.00    -0.479 OA
ATOM      7  H   LIG    1      188.897 187.782 173.204  0.00  0.00    +0.295 HD
ENDBRANCH   4   6
ENDBRANCH   3   4
BRANCH  11  12
ATOM     12  O   LIG    1      183.385 185.943 174.039  0.00  0.00    -0.389 OA
ATOM     13  H   LIG    1      183.278 186.396 173.185  0.00  0.00    +0.210 HD
ENDBRANCH  11  12
BRANCH  10  14
ATOM     14  O   LIG    1      184.544 184.149 175.939  0.00  0.00    -0.387 OA
ATOM     15  H   LIG    1      185.037 184.531 176.685  0.00  0.00    +0.210 HD
ENDBRANCH  10  14
BRANCH   9  16
ATOM     16  O   LIG    1      187.133 185.131 176.110  0.00  0.00    -0.389 OA
ATOM     17  H   LIG    1      187.347 186.044 175.859  0.00  0.00    +0.210 HD
ENDBRANCH   9  16
TORSDOF 6
