MODEL 1
REMARK VINA RESULT:      -7.0      0.000      0.000
REMARK  6 active torsions:
REMARK  status: ('A' for Active; 'I' for Inactive)
REMARK    1  A    between atoms: O_2  and  C_12 
REMARK    2  A    between atoms: O_3  and  C_14 
REMARK    3  A    between atoms: O_5  and  C_16 
REMARK    4  A    between atoms: O_6  and  C_20 
REMARK    5  A    between atoms: O_7  and  C_22 
REMARK    6  A    between atoms: C_10  and  C_11 
ROOT
HETATM    1  O   UNK     0     184.422 186.620 171.507  0.00  0.00    -0.306 OA
HETATM    2  O   UNK     0     186.692 189.423 169.612  0.00  0.00    -0.284 OA
HETATM    3  C   UNK     0     184.596 188.365 169.830  0.00  0.00     0.084 A 
HETATM    4  C   UNK     0     183.874 187.390 170.516  0.00  0.00     0.096 A 
HETATM    5  C   UNK     0     185.748 186.830 171.852  0.00  0.00     0.123 A 
HETATM    6  C   UNK     0     186.555 187.732 171.264  0.00  0.00     0.152 A 
HETATM    7  C   UNK     0     186.007 188.585 170.182  0.00  0.00     0.223 A 
HETATM    8  C   UNK     0     183.984 189.120 168.826  0.00  0.00     0.085 A 
HETATM    9  C   UNK     0     182.534 187.161 170.198  0.00  0.00     0.075 A 
HETATM   10  C   UNK     0     181.921 187.913 169.196  0.00  0.00     0.071 A 
HETATM   11  C   UNK     0     182.644 188.890 168.512  0.00  0.00     0.074 A 
ENDROOT
BRANCH   5  12
HETATM   12  C   UNK     0     186.211 185.939 172.930  0.00  0.00     0.004 A 
HETATM   13  C   UNK     0     186.118 186.346 174.261  0.00  0.00     0.053 A 
HETATM   14  C   UNK     0     186.556 185.501 175.281  0.00  0.00     0.099 A 
HETATM   15  C   UNK     0     187.086 184.249 174.970  0.00  0.00     0.098 A 
HETATM   16  C   UNK     0     187.178 183.841 173.640  0.00  0.00     0.040 A 
HETATM   17  C   UNK     0     186.741 184.686 172.619  0.00  0.00     0.017 A 
BRANCH  14  18
HETATM   18  O   UNK     0     186.462 185.910 176.577  0.00  0.00    -0.358 OA
HETATM   19  H   UNK     0     185.750 185.424 177.024  0.00  0.00     0.217 HD
ENDBRANCH  14  18
BRANCH  15  20
HETATM   20  O   UNK     0     187.515 183.414 175.958  0.00  0.00    -0.358 OA
HETATM   21  H   UNK     0     186.907 183.460 176.713  0.00  0.00     0.217 HD
ENDBRANCH  15  20
ENDBRANCH   5  12
BRANCH   6  22
HETATM   22  O   UNK     0     187.880 187.894 171.608  0.00  0.00    -0.355 OA
HETATM   23  H   UNK     0     188.339 188.405 170.922  0.00  0.00     0.218 HD
ENDBRANCH   6  22
BRANCH   8  24
HETATM   24  O   UNK     0     184.644 190.085 168.126  0.00  0.00    -0.360 OA
HETATM   25  H   UNK     0     184.663 190.915 168.627  0.00  0.00     0.217 HD
ENDBRANCH   8  24
BRANCH  10  26
HETATM   26  O   UNK     0     180.613 187.692 168.886  0.00  0.00    -0.361 OA
HETATM   27  H   UNK     0     180.331 188.347 168.225  0.00  0.00     0.217 HD
ENDBRANCH  10  26
TORSDOF 6
ENDMDL
MODEL 2
REMARK VINA RESULT:      -6.8      5.141      7.249
REMARK  6 active torsions:
REMARK  status: ('A' for Active; 'I' for Inactive)
REMARK    1  A    between atoms: O_2  and  C_12 
REMARK    2  A    between atoms: O_3  and  C_14 
REMARK    3  A    between atoms: O_5  and  C_16 
REMARK    4  A    between atoms: O_6  and  C_20 
REMARK    5  A    between atoms: O_7  and  C_22 
REMARK    6  A    between atoms: C_10  and  C_11 
ROOT
HETATM    1  O   UNK     0     184.026 181.886 172.826  0.00  0.00    -0.306 OA
HETATM    2  O   UNK     0     179.975 182.241 173.079  0.00  0.00    -0.284 OA
HETATM    3  C   UNK     0     181.834 180.868 172.610  0.00  0.00     0.084 A 
HETATM    4  C   UNK     0     183.225 180.812 172.541  0.00  0.00     0.096 A 
HETATM    5  C   UNK     0     183.427 183.075 173.212  0.00  0.00     0.123 A 
HETATM    6  C   UNK     0     182.098 183.263 173.310  0.00  0.00     0.152 A 
HETATM    7  C   UNK     0     181.191 182.130 173.006  0.00  0.00     0.223 A 
HETATM    8  C   UNK     0     181.067 179.740 172.307  0.00  0.00     0.085 A 
HETATM    9  C   UNK     0     183.857 179.626 172.166  0.00  0.00     0.075 A 
HETATM   10  C   UNK     0     183.094 178.498 171.863  0.00  0.00     0.071 A 
HETATM   11  C   UNK     0     181.702 178.556 171.933  0.00  0.00     0.074 A 
ENDROOT
BRANCH   5  12
HETATM   12  C   UNK     0     184.401 184.146 173.488  0.00  0.00     0.004 A 
HETATM   13  C   UNK     0     185.024 184.219 174.734  0.00  0.00     0.053 A 
HETATM   14  C   UNK     0     185.945 185.233 174.995  0.00  0.00     0.099 A 
HETATM   15  C   UNK     0     186.244 186.175 174.009  0.00  0.00     0.098 A 
HETATM   16  C   UNK     0     185.622 186.101 172.763  0.00  0.00     0.040 A 
HETATM   17  C   UNK     0     184.700 185.087 172.502  0.00  0.00     0.017 A 
BRANCH  14  18
HETATM   18  O   UNK     0     186.545 185.296 176.216  0.00  0.00    -0.358 OA
HETATM   19  H   UNK     0     187.046 186.124 176.293  0.00  0.00     0.217 HD
ENDBRANCH  14  18
BRANCH  15  20
HETATM   20  O   UNK     0     187.144 187.168 174.252  0.00  0.00    -0.358 OA
HETATM   21  H   UNK     0     187.894 186.815 174.755  0.00  0.00     0.217 HD
ENDBRANCH  15  20
ENDBRANCH   5  12
BRANCH   6  22
HETATM   22  O   UNK     0     181.533 184.469 173.665  0.00  0.00    -0.355 OA
HETATM   23  H   UNK     0     180.669 184.568 173.232  0.00  0.00     0.218 HD
ENDBRANCH   6  22
BRANCH   8  24
HETATM   24  O   UNK     0     179.705 179.741 172.359  0.00  0.00    -0.360 OA
HETATM   25  H   UNK     0     179.331 179.859 171.473  0.00  0.00     0.217 HD
ENDBRANCH   8  24
BRANCH  10  26
HETATM   26  O   UNK     0     183.711 177.340 171.497  0.00  0.00    -0.361 OA
HETATM   27  H   UNK     0     184.407 177.546 170.849  0.00  0.00     0.217 HD
ENDBRANCH  10  26
TORSDOF 6
ENDMDL
MODEL 3
REMARK VINA RESULT:      -6.6      8.322     10.649
REMARK  6 active torsions:
REMARK  status: ('A' for Active; 'I' for Inactive)
REMARK    1  A    between atoms: O_2  and  C_12 
REMARK    2  A    between atoms: O_3  and  C_14 
REMARK    3  A    between atoms: O_5  and  C_16 
REMARK    4  A    between atoms: O_6  and  C_20 
REMARK    5  A    between atoms: O_7  and  C_22 
REMARK    6  A    between atoms: C_10  and  C_11 
ROOT
HETATM    1  O   UNK     0     179.288 181.070 172.326  0.00  0.00    -0.306 OA
HETATM    2  O   UNK     0     182.664 178.797 172.527  0.00  0.00    -0.284 OA
HETATM    3  C   UNK     0     181.685 180.937 172.679  0.00  0.00     0.084 A 
HETATM    4  C   UNK     0     180.495 181.658 172.596  0.00  0.00     0.096 A 
HETATM    5  C   UNK     0     179.247 179.696 172.142  0.00  0.00     0.123 A 
HETATM    6  C   UNK     0     180.322 178.888 172.188  0.00  0.00     0.152 A 
HETATM    7  C   UNK     0     181.651 179.481 172.472  0.00  0.00     0.223 A 
HETATM    8  C   UNK     0     182.888 181.591 172.956  0.00  0.00     0.085 A 
HETATM    9  C   UNK     0     180.502 183.040 172.787  0.00  0.00     0.075 A 
HETATM   10  C   UNK     0     181.702 183.696 173.063  0.00  0.00     0.071 A 
HETATM   11  C   UNK     0     182.892 182.973 173.147  0.00  0.00     0.074 A 
ENDROOT
BRANCH   5  12
HETATM   12  C   UNK     0     177.890 179.194 171.861  0.00  0.00     0.004 A 
HETATM   13  C   UNK     0     177.254 179.532 170.667  0.00  0.00     0.053 A 
HETATM   14  C   UNK     0     175.970 179.056 170.401  0.00  0.00     0.099 A 
HETATM   15  C   UNK     0     175.323 178.240 171.330  0.00  0.00     0.098 A 
HETATM   16  C   UNK     0     175.959 177.901 172.523  0.00  0.00     0.040 A 
HETATM   17  C   UNK     0     177.243 178.377 172.789  0.00  0.00     0.017 A 
BRANCH  14  18
HETATM   18  O   UNK     0     175.357 179.395 169.233  0.00  0.00    -0.358 OA
HETATM   19  H   UNK     0     174.405 179.509 169.383  0.00  0.00     0.217 HD
ENDBRANCH  14  18
BRANCH  15  20
HETATM   20  O   UNK     0     174.070 177.767 171.080  0.00  0.00    -0.358 OA
HETATM   21  H   UNK     0     173.931 176.936 171.562  0.00  0.00     0.217 HD
ENDBRANCH  15  20
ENDBRANCH   5  12
BRANCH   6  22
HETATM   22  O   UNK     0     180.252 177.530 171.968  0.00  0.00    -0.355 OA
HETATM   23  H   UNK     0     180.458 177.335 171.039  0.00  0.00     0.218 HD
ENDBRANCH   6  22
BRANCH   8  24
HETATM   24  O   UNK     0     184.078 180.934 173.048  0.00  0.00    -0.360 OA
HETATM   25  H   UNK     0     184.742 181.492 173.480  0.00  0.00     0.217 HD
ENDBRANCH   8  24
BRANCH  10  26
HETATM   26  O   UNK     0     181.710 185.045 173.250  0.00  0.00    -0.361 OA
HETATM   27  H   UNK     0     180.819 185.332 173.514  0.00  0.00     0.217 HD
ENDBRANCH  10  26
TORSDOF 6
ENDMDL
MODEL 4
REMARK VINA RESULT:      -6.6      1.172      2.831
REMARK  6 active torsions:
REMARK  status: ('A' for Active; 'I' for Inactive)
REMARK    1  A    between atoms: O_2  and  C_12 
REMARK    2  A    between atoms: O_3  and  C_14 
REMARK    3  A    between atoms: O_5  and  C_16 
REMARK    4  A    between atoms: O_6  and  C_20 
REMARK    5  A    between atoms: O_7  and  C_22 
REMARK    6  A    between atoms: C_10  and  C_11 
ROOT
HETATM    1  O   UNK     0     185.512 187.542 171.657  0.00  0.00    -0.306 OA
HETATM    2  O   UNK     0     181.969 186.222 170.138  0.00  0.00    -0.284 OA
HETATM    3  C   UNK     0     183.666 187.859 170.113  0.00  0.00     0.084 A 
HETATM    4  C   UNK     0     184.878 188.257 170.675  0.00  0.00     0.096 A 
HETATM    5  C   UNK     0     184.928 186.366 172.102  0.00  0.00     0.123 A 
HETATM    6  C   UNK     0     183.759 185.876 171.649  0.00  0.00     0.152 A 
HETATM    7  C   UNK     0     183.035 186.619 170.590  0.00  0.00     0.223 A 
HETATM    8  C   UNK     0     183.065 188.629 169.115  0.00  0.00     0.085 A 
HETATM    9  C   UNK     0     185.495 189.431 170.241  0.00  0.00     0.075 A 
HETATM   10  C   UNK     0     184.898 190.202 169.244  0.00  0.00     0.071 A 
HETATM   11  C   UNK     0     183.685 189.802 168.683  0.00  0.00     0.074 A 
ENDROOT
BRANCH   5  12
HETATM   12  C   UNK     0     185.711 185.698 173.156  0.00  0.00     0.004 A 
HETATM   13  C   UNK     0     185.636 186.149 174.473  0.00  0.00     0.053 A 
HETATM   14  C   UNK     0     186.377 185.516 175.471  0.00  0.00     0.099 A 
HETATM   15  C   UNK     0     187.193 184.431 175.151  0.00  0.00     0.098 A 
HETATM   16  C   UNK     0     187.268 183.979 173.834  0.00  0.00     0.040 A 
HETATM   17  C   UNK     0     186.527 184.612 172.836  0.00  0.00     0.017 A 
BRANCH  14  18
HETATM   18  O   UNK     0     186.297 185.966 176.754  0.00  0.00    -0.358 OA
HETATM   19  H   UNK     0     187.189 186.055 177.127  0.00  0.00     0.217 HD
ENDBRANCH  14  18
BRANCH  15  20
HETATM   20  O   UNK     0     187.920 183.803 176.117  0.00  0.00    -0.358 OA
HETATM   21  H   UNK     0     187.423 183.043 176.460  0.00  0.00     0.217 HD
ENDBRANCH  15  20
ENDBRANCH   5  12
BRANCH   6  22
HETATM   22  O   UNK     0     183.189 184.720 172.136  0.00  0.00    -0.355 OA
HETATM   23  H   UNK     0     183.855 184.199 172.613  0.00  0.00     0.218 HD
ENDBRANCH   6  22
BRANCH   8  24
HETATM   24  O   UNK     0     181.882 188.285 168.534  0.00  0.00    -0.360 OA
HETATM   25  H   UNK     0     181.495 187.516 168.979  0.00  0.00     0.217 HD
ENDBRANCH   8  24
BRANCH  10  26
HETATM   26  O   UNK     0     185.500 191.347 168.820  0.00  0.00    -0.361 OA
HETATM   27  H   UNK     0     186.129 191.128 168.111  0.00  0.00     0.217 HD
ENDBRANCH  10  26
TORSDOF 6
ENDMDL
MODEL 5
REMARK VINA RESULT:      -6.6      2.115      2.729
REMARK  6 active torsions:
REMARK  status: ('A' for Active; 'I' for Inactive)
REMARK    1  A    between atoms: O_2  and  C_12 
REMARK    2  A    between atoms: O_3  and  C_14 
REMARK    3  A    between atoms: O_5  and  C_16 
REMARK    4  A    between atoms: O_6  and  C_20 
REMARK    5  A    between atoms: O_7  and  C_22 
REMARK    6  A    between atoms: C_10  and  C_11 
ROOT
HETATM    1  O   UNK     0     185.634 186.733 171.603  0.00  0.00    -0.306 OA
HETATM    2  O   UNK     0     188.282 186.251 168.543  0.00  0.00    -0.284 OA
HETATM    3  C   UNK     0     186.622 187.585 169.556  0.00  0.00     0.084 A 
HETATM    4  C   UNK     0     185.736 187.690 170.627  0.00  0.00     0.096 A 
HETATM    5  C   UNK     0     186.457 185.620 171.527  0.00  0.00     0.123 A 
HETATM    6  C   UNK     0     187.347 185.395 170.543  0.00  0.00     0.152 A 
HETATM    7  C   UNK     0     187.489 186.400 169.463  0.00  0.00     0.223 A 
HETATM    8  C   UNK     0     186.681 188.592 168.589  0.00  0.00     0.085 A 
HETATM    9  C   UNK     0     184.902 188.803 170.736  0.00  0.00     0.075 A 
HETATM   10  C   UNK     0     184.959 189.810 169.772  0.00  0.00     0.071 A 
HETATM   11  C   UNK     0     185.847 189.704 168.701  0.00  0.00     0.074 A 
ENDROOT
BRANCH   5  12
HETATM   12  C   UNK     0     186.247 184.673 172.636  0.00  0.00     0.004 A 
HETATM   13  C   UNK     0     187.130 184.654 173.715  0.00  0.00     0.053 A 
HETATM   14  C   UNK     0     186.930 183.757 174.765  0.00  0.00     0.099 A 
HETATM   15  C   UNK     0     185.846 182.879 174.735  0.00  0.00     0.098 A 
HETATM   16  C   UNK     0     184.963 182.898 173.656  0.00  0.00     0.040 A 
HETATM   17  C   UNK     0     185.163 183.795 172.606  0.00  0.00     0.017 A 
BRANCH  14  18
HETATM   18  O   UNK     0     187.800 183.746 175.813  0.00  0.00    -0.358 OA
HETATM   19  H   UNK     0     187.307 183.747 176.649  0.00  0.00     0.217 HD
ENDBRANCH  14  18
BRANCH  15  20
HETATM   20  O   UNK     0     185.640 182.000 175.755  0.00  0.00    -0.358 OA
HETATM   21  H   UNK     0     184.943 182.336 176.341  0.00  0.00     0.217 HD
ENDBRANCH  15  20
ENDBRANCH   5  12
BRANCH   6  22
HETATM   22  O   UNK     0     188.128 184.261 170.480  0.00  0.00    -0.355 OA
HETATM   23  H   UNK     0     187.911 183.669 171.218  0.00  0.00     0.218 HD
ENDBRANCH   6  22
BRANCH   8  24
HETATM   24  O   UNK     0     187.529 188.538 167.523  0.00  0.00    -0.360 OA
HETATM   25  H   UNK     0     187.905 187.650 167.433  0.00  0.00     0.217 HD
ENDBRANCH   8  24
BRANCH  10  26
HETATM   26  O   UNK     0     184.145 190.897 169.878  0.00  0.00    -0.361 OA
HETATM   27  H   UNK     0     183.309 190.710 169.417  0.00  0.00     0.217 HD
ENDBRANCH  10  26
TORSDOF 6
ENDMDL
MODEL 6
REMARK VINA RESULT:      -6.6      4.650      6.271
REMARK  6 active torsions:
REMARK  status: ('A' for Active; 'I' for Inactive)
REMARK    1  A    between atoms: O_2  and  C_12 
REMARK    2  A    between atoms: O_3  and  C_14 
REMARK    3  A    between atoms: O_5  and  C_16 
REMARK    4  A    between atoms: O_6  and  C_20 
REMARK    5  A    between atoms: O_7  and  C_22 
REMARK    6  A    between atoms: C_10  and  C_11 
ROOT
HETATM    1  O   UNK     0     184.306 183.247 171.886  0.00  0.00    -0.306 OA
HETATM    2  O   UNK     0     182.272 179.852 172.856  0.00  0.00    -0.284 OA
HETATM    3  C   UNK     0     183.104 181.267 171.163  0.00  0.00     0.084 A 
HETATM    4  C   UNK     0     183.807 182.441 170.897  0.00  0.00     0.096 A 
HETATM    5  C   UNK     0     184.115 182.871 173.207  0.00  0.00     0.123 A 
HETATM    6  C   UNK     0     183.448 181.769 173.597  0.00  0.00     0.152 A 
HETATM    7  C   UNK     0     182.886 180.869 172.562  0.00  0.00     0.223 A 
HETATM    8  C   UNK     0     182.616 180.485 170.112  0.00  0.00     0.085 A 
HETATM    9  C   UNK     0     184.025 182.841 169.578  0.00  0.00     0.075 A 
HETATM   10  C   UNK     0     183.539 182.062 168.528  0.00  0.00     0.071 A 
HETATM   11  C   UNK     0     182.836 180.887 168.795  0.00  0.00     0.074 A 
ENDROOT
BRANCH   5  12
HETATM   12  C   UNK     0     184.701 183.823 174.167  0.00  0.00     0.004 A 
HETATM   13  C   UNK     0     186.021 183.666 174.588  0.00  0.00     0.053 A 
HETATM   14  C   UNK     0     186.575 184.568 175.497  0.00  0.00     0.099 A 
HETATM   15  C   UNK     0     185.809 185.627 175.984  0.00  0.00     0.098 A 
HETATM   16  C   UNK     0     184.489 185.784 175.562  0.00  0.00     0.040 A 
HETATM   17  C   UNK     0     183.934 184.883 174.654  0.00  0.00     0.017 A 
BRANCH  14  18
HETATM   18  O   UNK     0     187.865 184.403 175.904  0.00  0.00    -0.358 OA
HETATM   19  H   UNK     0     187.898 183.779 176.647  0.00  0.00     0.217 HD
ENDBRANCH  14  18
BRANCH  15  20
HETATM   20  O   UNK     0     186.340 186.515 176.871  0.00  0.00    -0.358 OA
HETATM   21  H   UNK     0     185.753 187.283 176.956  0.00  0.00     0.217 HD
ENDBRANCH  15  20
ENDBRANCH   5  12
BRANCH   6  22
HETATM   22  O   UNK     0     183.247 181.440 174.920  0.00  0.00    -0.355 OA
HETATM   23  H   UNK     0     182.910 182.212 175.404  0.00  0.00     0.218 HD
ENDBRANCH   6  22
BRANCH   8  24
HETATM   24  O   UNK     0     181.924 179.330 170.317  0.00  0.00    -0.360 OA
HETATM   25  H   UNK     0     181.985 179.056 171.245  0.00  0.00     0.217 HD
ENDBRANCH   8  24
BRANCH  10  26
HETATM   26  O   UNK     0     183.752 182.451 167.240  0.00  0.00    -0.361 OA
HETATM   27  H   UNK     0     183.095 183.129 167.004  0.00  0.00     0.217 HD
ENDBRANCH  10  26
TORSDOF 6
ENDMDL
MODEL 7
REMARK VINA RESULT:      -6.5      4.316      6.309
REMARK  6 active torsions:
REMARK  status: ('A' for Active; 'I' for Inactive)
REMARK    1  A    between atoms: O_2  and  C_12 
REMARK    2  A    between atoms: O_3  and  C_14 
REMARK    3  A    between atoms: O_5  and  C_16 
REMARK    4  A    between atoms: O_6  and  C_20 
REMARK    5  A    between atoms: O_7  and  C_22 
REMARK    6  A    between atoms: C_10  and  C_11 
ROOT
HETATM    1  O   UNK     0     186.731 184.063 170.807  0.00  0.00    -0.306 OA
HETATM    2  O   UNK     0     188.972 187.125 172.291  0.00  0.00    -0.284 OA
HETATM    3  C   UNK     0     187.038 185.790 172.484  0.00  0.00     0.084 A 
HETATM    4  C   UNK     0     186.317 184.736 171.926  0.00  0.00     0.096 A 
HETATM    5  C   UNK     0     187.925 184.440 170.212  0.00  0.00     0.123 A 
HETATM    6  C   UNK     0     188.709 185.444 170.645  0.00  0.00     0.152 A 
HETATM    7  C   UNK     0     188.299 186.204 171.850  0.00  0.00     0.223 A 
HETATM    8  C   UNK     0     186.565 186.440 173.627  0.00  0.00     0.085 A 
HETATM    9  C   UNK     0     185.116 184.327 172.508  0.00  0.00     0.075 A 
HETATM   10  C   UNK     0     184.642 184.974 173.650  0.00  0.00     0.071 A 
HETATM   11  C   UNK     0     185.366 186.029 174.207  0.00  0.00     0.074 A 
ENDROOT
BRANCH   5  12
HETATM   12  C   UNK     0     188.252 183.637 169.020  0.00  0.00     0.004 A 
HETATM   13  C   UNK     0     189.124 182.553 169.126  0.00  0.00     0.053 A 
HETATM   14  C   UNK     0     189.433 181.794 167.998  0.00  0.00     0.099 A 
HETATM   15  C   UNK     0     188.870 182.118 166.763  0.00  0.00     0.098 A 
HETATM   16  C   UNK     0     187.998 183.201 166.657  0.00  0.00     0.040 A 
HETATM   17  C   UNK     0     187.688 183.961 167.785  0.00  0.00     0.017 A 
BRANCH  14  18
HETATM   18  O   UNK     0     190.287 180.739 168.113  0.00  0.00    -0.358 OA
HETATM   19  H   UNK     0     190.425 180.332 167.242  0.00  0.00     0.217 HD
ENDBRANCH  14  18
BRANCH  15  20
HETATM   20  O   UNK     0     189.163 181.382 165.654  0.00  0.00    -0.358 OA
HETATM   21  H   UNK     0     189.947 180.835 165.822  0.00  0.00     0.217 HD
ENDBRANCH  15  20
ENDBRANCH   5  12
BRANCH   6  22
HETATM   22  O   UNK     0     189.875 185.815 170.011  0.00  0.00    -0.355 OA
HETATM   23  H   UNK     0     190.048 185.220 169.263  0.00  0.00     0.218 HD
ENDBRANCH   6  22
BRANCH   8  24
HETATM   24  O   UNK     0     187.231 187.476 174.211  0.00  0.00    -0.360 OA
HETATM   25  H   UNK     0     186.626 188.209 174.395  0.00  0.00     0.217 HD
ENDBRANCH   8  24
BRANCH  10  26
HETATM   26  O   UNK     0     183.471 184.575 174.219  0.00  0.00    -0.361 OA
HETATM   27  H   UNK     0     183.668 184.105 175.047  0.00  0.00     0.217 HD
ENDBRANCH  10  26
TORSDOF 6
ENDMDL
MODEL 8
REMARK VINA RESULT:      -6.5      4.567      6.444
REMARK  6 active torsions:
REMARK  status: ('A' for Active; 'I' for Inactive)
REMARK    1  A    between atoms: O_2  and  C_12 
REMARK    2  A    between atoms: O_3  and  C_14 
REMARK    3  A    between atoms: O_5  and  C_16 
REMARK    4  A    between atoms: O_6  and  C_20 
REMARK    5  A    between atoms: O_7  and  C_22 
REMARK    6  A    between atoms: C_10  and  C_11 
ROOT
HETATM    1  O   UNK     0     183.618 182.789 172.982  0.00  0.00    -0.306 OA
HETATM    2  O   UNK     0     179.845 184.089 172.156  0.00  0.00    -0.284 OA
HETATM    3  C   UNK     0     181.317 182.265 172.415  0.00  0.00     0.084 A 
HETATM    4  C   UNK     0     182.626 181.885 172.704  0.00  0.00     0.096 A 
HETATM    5  C   UNK     0     183.300 184.139 172.989  0.00  0.00     0.123 A 
HETATM    6  C   UNK     0     182.079 184.636 172.719  0.00  0.00     0.152 A 
HETATM    7  C   UNK     0     180.976 183.696 172.407  0.00  0.00     0.223 A 
HETATM    8  C   UNK     0     180.347 181.298 172.138  0.00  0.00     0.085 A 
HETATM    9  C   UNK     0     182.975 180.534 172.715  0.00  0.00     0.075 A 
HETATM   10  C   UNK     0     182.009 179.566 172.439  0.00  0.00     0.071 A 
HETATM   11  C   UNK     0     180.698 179.948 172.150  0.00  0.00     0.074 A 
ENDROOT
BRANCH   5  12
HETATM   12  C   UNK     0     184.454 185.000 173.302  0.00  0.00     0.004 A 
HETATM   13  C   UNK     0     184.760 185.301 174.629  0.00  0.00     0.053 A 
HETATM   14  C   UNK     0     185.853 186.116 174.926  0.00  0.00     0.099 A 
HETATM   15  C   UNK     0     186.639 186.630 173.894  0.00  0.00     0.098 A 
HETATM   16  C   UNK     0     186.334 186.328 172.567  0.00  0.00     0.040 A 
HETATM   17  C   UNK     0     185.241 185.513 172.271  0.00  0.00     0.017 A 
BRANCH  14  18
HETATM   18  O   UNK     0     186.141 186.405 176.225  0.00  0.00    -0.358 OA
HETATM   19  H   UNK     0     186.447 185.603 176.680  0.00  0.00     0.217 HD
ENDBRANCH  14  18
BRANCH  15  20
HETATM   20  O   UNK     0     187.711 187.425 174.171  0.00  0.00    -0.358 OA
HETATM   21  H   UNK     0     187.404 188.294 174.473  0.00  0.00     0.217 HD
ENDBRANCH  15  20
ENDBRANCH   5  12
BRANCH   6  22
HETATM   22  O   UNK     0     181.803 185.986 172.702  0.00  0.00    -0.355 OA
HETATM   23  H   UNK     0     182.624 186.489 172.568  0.00  0.00     0.218 HD
ENDBRANCH   6  22
BRANCH   8  24
HETATM   24  O   UNK     0     179.054 181.615 171.849  0.00  0.00    -0.360 OA
HETATM   25  H   UNK     0     178.491 181.489 172.628  0.00  0.00     0.217 HD
ENDBRANCH   8  24
BRANCH  10  26
HETATM   26  O   UNK     0     182.347 178.247 172.450  0.00  0.00    -0.361 OA
HETATM   27  H   UNK     0     181.864 177.792 171.739  0.00  0.00     0.217 HD
ENDBRANCH  10  26
TORSDOF 6
ENDMDL
MODEL 9
REMARK VINA RESULT:      -6.5      2.746      4.381
REMARK  6 active torsions:
REMARK  status: ('A' for Active; 'I' for Inactive)
REMARK    1  A    between atoms: O_2  and  C_12 
REMARK    2  A    between atoms: O_3  and  C_14 
REMARK    3  A    between atoms: O_5  and  C_16 
REMARK    4  A    between atoms: O_6  and  C_20 
REMARK    5  A    between atoms: O_7  and  C_22 
REMARK    6  A    between atoms: C_10  and  C_11 
ROOT
HETATM    1  O   UNK     0     183.484 185.681 172.340  0.00  0.00    -0.306 OA
HETATM    2  O   UNK     0     180.148 183.415 172.927  0.00  0.00    -0.284 OA
HETATM    3  C   UNK     0     181.211 185.124 171.696  0.00  0.00     0.084 A 
HETATM    4  C   UNK     0     182.381 185.866 171.548  0.00  0.00     0.096 A 
HETATM    5  C   UNK     0     183.437 184.704 173.322  0.00  0.00     0.123 A 
HETATM    6  C   UNK     0     182.368 183.926 173.574  0.00  0.00     0.152 A 
HETATM    7  C   UNK     0     181.150 184.094 172.745  0.00  0.00     0.223 A 
HETATM    8  C   UNK     0     180.117 185.357 170.860  0.00  0.00     0.085 A 
HETATM    9  C   UNK     0     182.463 186.850 170.562  0.00  0.00     0.075 A 
HETATM   10  C   UNK     0     181.372 187.085 169.725  0.00  0.00     0.071 A 
HETATM   11  C   UNK     0     180.202 186.341 169.874  0.00  0.00     0.074 A 
ENDROOT
BRANCH   5  12
HETATM   12  C   UNK     0     184.685 184.609 174.099  0.00  0.00     0.004 A 
HETATM   13  C   UNK     0     184.876 185.423 175.216  0.00  0.00     0.053 A 
HETATM   14  C   UNK     0     186.058 185.332 175.952  0.00  0.00     0.099 A 
HETATM   15  C   UNK     0     187.049 184.427 175.570  0.00  0.00     0.098 A 
HETATM   16  C   UNK     0     186.858 183.613 174.454  0.00  0.00     0.040 A 
HETATM   17  C   UNK     0     185.676 183.703 173.719  0.00  0.00     0.017 A 
BRANCH  14  18
HETATM   18  O   UNK     0     186.234 186.133 177.039  0.00  0.00    -0.358 OA
HETATM   19  H   UNK     0     186.092 187.061 176.790  0.00  0.00     0.217 HD
ENDBRANCH  14  18
BRANCH  15  20
HETATM   20  O   UNK     0     188.206 184.328 176.282  0.00  0.00    -0.358 OA
HETATM   21  H   UNK     0     188.961 184.540 175.711  0.00  0.00     0.217 HD
ENDBRANCH  15  20
ENDBRANCH   5  12
BRANCH   6  22
HETATM   22  O   UNK     0     182.342 182.985 174.581  0.00  0.00    -0.355 OA
HETATM   23  H   UNK     0     181.444 182.916 174.945  0.00  0.00     0.218 HD
ENDBRANCH   6  22
BRANCH   8  24
HETATM   24  O   UNK     0     178.951 184.660 170.963  0.00  0.00    -0.360 OA
HETATM   25  H   UNK     0     178.220 185.252 171.197  0.00  0.00     0.217 HD
ENDBRANCH   8  24
BRANCH  10  26
HETATM   26  O   UNK     0     181.451 188.045 168.761  0.00  0.00    -0.361 OA
HETATM   27  H   UNK     0     182.075 188.732 169.052  0.00  0.00     0.217 HD
ENDBRANCH  10  26
TORSDOF 6
ENDMDL
MODEL 10
REMARK VINA RESULT:      -6.5      4.071      6.211
REMARK  6 active torsions:
REMARK  status: ('A' for Active; 'I' for Inactive)
REMARK    1  A    between atoms: O_2  and  C_12 
REMARK    2  A    between atoms: O_3  and  C_14 
REMARK    3  A    between atoms: O_5  and  C_16 
REMARK    4  A    between atoms: O_6  and  C_20 
REMARK    5  A    between atoms: O_7  and  C_22 
REMARK    6  A    between atoms: C_10  and  C_11 
ROOT
HETATM    1  O   UNK     0     184.532 184.161 171.920  0.00  0.00    -0.306 OA
HETATM    2  O   UNK     0     185.545 186.009 175.408  0.00  0.00    -0.284 OA
HETATM    3  C   UNK     0     186.007 185.670 173.120  0.00  0.00     0.084 A 
HETATM    4  C   UNK     0     185.609 185.007 171.960  0.00  0.00     0.096 A 
HETATM    5  C   UNK     0     183.799 183.968 173.080  0.00  0.00     0.123 A 
HETATM    6  C   UNK     0     184.081 184.540 174.265  0.00  0.00     0.152 A 
HETATM    7  C   UNK     0     185.241 185.459 174.358  0.00  0.00     0.223 A 
HETATM    8  C   UNK     0     187.115 186.520 173.101  0.00  0.00     0.085 A 
HETATM    9  C   UNK     0     186.321 185.189 170.774  0.00  0.00     0.075 A 
HETATM   10  C   UNK     0     187.429 186.038 170.752  0.00  0.00     0.071 A 
HETATM   11  C   UNK     0     187.824 186.701 171.914  0.00  0.00     0.074 A 
ENDROOT
BRANCH   5  12
HETATM   12  C   UNK     0     182.670 183.038 172.899  0.00  0.00     0.004 A 
HETATM   13  C   UNK     0     182.881 181.662 172.974  0.00  0.00     0.053 A 
HETATM   14  C   UNK     0     181.812 180.782 172.802  0.00  0.00     0.099 A 
HETATM   15  C   UNK     0     180.531 181.279 172.556  0.00  0.00     0.098 A 
HETATM   16  C   UNK     0     180.321 182.656 172.483  0.00  0.00     0.040 A 
HETATM   17  C   UNK     0     181.390 183.536 172.654  0.00  0.00     0.017 A 
BRANCH  14  18
HETATM   18  O   UNK     0     182.029 179.439 172.875  0.00  0.00    -0.358 OA
HETATM   19  H   UNK     0     182.360 179.208 173.758  0.00  0.00     0.217 HD
ENDBRANCH  14  18
BRANCH  15  20
HETATM   20  O   UNK     0     179.479 180.430 172.390  0.00  0.00    -0.358 OA
HETATM   21  H   UNK     0     179.274 179.993 173.232  0.00  0.00     0.217 HD
ENDBRANCH  15  20
ENDBRANCH   5  12
BRANCH   6  22
HETATM   22  O   UNK     0     183.351 184.301 175.409  0.00  0.00    -0.355 OA
HETATM   23  H   UNK     0     182.802 183.509 175.291  0.00  0.00     0.218 HD
ENDBRANCH   6  22
BRANCH   8  24
HETATM   24  O   UNK     0     187.545 187.191 174.207  0.00  0.00    -0.360 OA
HETATM   25  H   UNK     0     187.310 186.706 175.012  0.00  0.00     0.217 HD
ENDBRANCH   8  24
BRANCH  10  26
HETATM   26  O   UNK     0     188.124 186.217 169.595  0.00  0.00    -0.361 OA
HETATM   27  H   UNK     0     188.309 187.165 169.483  0.00  0.00     0.217 HD
ENDBRANCH  10  26
TORSDOF 6
ENDMDL
