REMARK VINA RESULT:      -6.5      2.746      4.381
REMARK  6 active torsions:
REMARK  status: ('A' for Active; 'I' for Inactive)
REMARK    1  A    between atoms: O_2  and  C_12 
REMARK    2  A    between atoms: O_3  and  C_14 
REMARK    3  A    between atoms: O_5  and  C_16 
REMARK    4  A    between atoms: O_6  and  C_20 
REMARK    5  A    between atoms: O_7  and  C_22 
REMARK    6  A    between atoms: C_10  and  C_11 
ROOT
HETATM    1  O   UNK     0     183.484 185.681 172.340  0.00  0.00    -0.306 OA
HETATM    2  O   UNK     0     180.148 183.415 172.927  0.00  0.00    -0.284 OA
HETATM    3  C   UNK     0     181.211 185.124 171.696  0.00  0.00     0.084 A 
HETATM    4  C   UNK     0     182.381 185.866 171.548  0.00  0.00     0.096 A 
HETATM    5  C   UNK     0     183.437 184.704 173.322  0.00  0.00     0.123 A 
HETATM    6  C   UNK     0     182.368 183.926 173.574  0.00  0.00     0.152 A 
HETATM    7  C   UNK     0     181.150 184.094 172.745  0.00  0.00     0.223 A 
HETATM    8  C   UNK     0     180.117 185.357 170.860  0.00  0.00     0.085 A 
HETATM    9  C   UNK     0     182.463 186.850 170.562  0.00  0.00     0.075 A 
HETATM   10  C   UNK     0     181.372 187.085 169.725  0.00  0.00     0.071 A 
HETATM   11  C   UNK     0     180.202 186.341 169.874  0.00  0.00     0.074 A 
ENDROOT
BRANCH   5  12
HETATM   12  C   UNK     0     184.685 184.609 174.099  0.00  0.00     0.004 A 
HETATM   13  C   UNK     0     184.876 185.423 175.216  0.00  0.00     0.053 A 
HETATM   14  C   UNK     0     186.058 185.332 175.952  0.00  0.00     0.099 A 
HETATM   15  C   UNK     0     187.049 184.427 175.570  0.00  0.00     0.098 A 
HETATM   16  C   UNK     0     186.858 183.613 174.454  0.00  0.00     0.040 A 
HETATM   17  C   UNK     0     185.676 183.703 173.719  0.00  0.00     0.017 A 
BRANCH  14  18
HETATM   18  O   UNK     0     186.234 186.133 177.039  0.00  0.00    -0.358 OA
HETATM   19  H   UNK     0     186.092 187.061 176.790  0.00  0.00     0.217 HD
ENDBRANCH  14  18
BRANCH  15  20
HETATM   20  O   UNK     0     188.206 184.328 176.282  0.00  0.00    -0.358 OA
HETATM   21  H   UNK     0     188.961 184.540 175.711  0.00  0.00     0.217 HD
ENDBRANCH  15  20
ENDBRANCH   5  12
BRANCH   6  22
HETATM   22  O   UNK     0     182.342 182.985 174.581  0.00  0.00    -0.355 OA
HETATM   23  H   UNK     0     181.444 182.916 174.945  0.00  0.00     0.218 HD
ENDBRANCH   6  22
BRANCH   8  24
HETATM   24  O   UNK     0     178.951 184.660 170.963  0.00  0.00    -0.360 OA
HETATM   25  H   UNK     0     178.220 185.252 171.197  0.00  0.00     0.217 HD
ENDBRANCH   8  24
BRANCH  10  26
HETATM   26  O   UNK     0     181.451 188.045 168.761  0.00  0.00    -0.361 OA
HETATM   27  H   UNK     0     182.075 188.732 169.052  0.00  0.00     0.217 HD
ENDBRANCH  10  26
TORSDOF 6
