MODEL 1
REMARK VINA RESULT:      -8.6      0.000      0.000
REMARK  16 active torsions:
REMARK  status: ('A' for Active; 'I' for Inactive)
REMARK    1  A    between atoms: O_2  and  C_22 
REMARK    2  A    between atoms: O_2  and  C_26 
REMARK    3  A    between atoms: O_4  and  C_18 
REMARK    4  A    between atoms: O_5  and  C_19 
REMARK    5  A    between atoms: O_6  and  C_25 
REMARK    6  A    between atoms: O_6  and  C_29 
REMARK    7  A    between atoms: O_7  and  C_20 
REMARK    8  A    between atoms: O_8  and  C_21 
REMARK    9  A    between atoms: O_9  and  C_23 
REMARK   10  A    between atoms: O_10  and  C_24 
REMARK   11  A    between atoms: O_13  and  C_35 
REMARK   12  A    between atoms: O_14  and  C_40 
REMARK   13  A    between atoms: O_15  and  C_41 
REMARK   14  A    between atoms: O_16  and  C_43 
REMARK   15  A    between atoms: C_17  and  C_26 
REMARK   16  A    between atoms: C_30  and  C_33 
ROOT
HETATM    1  O   UNK     0      23.633  32.310  21.101  0.00  0.00    -0.348 OA
HETATM    2  C   UNK     0      23.587  31.738  19.792  0.00  0.00     0.180 C 
HETATM    3  C   UNK     0      24.948  31.135  19.438  0.00  0.00     0.180 C 
HETATM    4  C   UNK     0      26.054  32.182  19.561  0.00  0.00     0.183 C 
HETATM    5  C   UNK     0      25.977  32.914  20.901  0.00  0.00     0.205 C 
HETATM    6  C   UNK     0      24.555  33.394  21.191  0.00  0.00     0.298 C 
ENDROOT
BRANCH   2   7
HETATM    7  C   UNK     0      22.483  30.684  19.791  0.00  0.00     0.205 C 
BRANCH   7   8
HETATM    8  O   UNK     0      21.651  30.884  20.924  0.00  0.00    -0.356 OA
BRANCH   8   9
HETATM    9  C   UNK     0      21.323  29.650  21.553  0.00  0.00     0.291 C 
HETATM   10  O   UNK     0      19.993  29.643  22.080  0.00  0.00    -0.351 OA
HETATM   11  C   UNK     0      19.775  30.585  23.134  0.00  0.00     0.152 C 
HETATM   12  C   UNK     0      20.719  30.320  24.315  0.00  0.00     0.178 C 
HETATM   13  C   UNK     0      18.307  30.471  23.539  0.00  0.00     0.042 C 
HETATM   14  C   UNK     0      22.170  30.299  23.834  0.00  0.00     0.183 C 
HETATM   15  C   UNK     0      22.341  29.344  22.651  0.00  0.00     0.204 C 
BRANCH  12  16
HETATM   16  O   UNK     0      20.590  31.351  25.292  0.00  0.00    -0.390 OA
HETATM   17  H   UNK     0      20.779  32.200  24.857  0.00  0.00     0.210 HD
ENDBRANCH  12  16
BRANCH  14  18
HETATM   18  O   UNK     0      23.015  29.897  24.909  0.00  0.00    -0.390 OA
HETATM   19  H   UNK     0      23.920  30.187  24.699  0.00  0.00     0.210 HD
ENDBRANCH  14  18
BRANCH  15  20
HETATM   20  O   UNK     0      22.128  27.998  23.078  0.00  0.00    -0.388 OA
HETATM   21  H   UNK     0      22.797  27.780  23.750  0.00  0.00     0.210 HD
ENDBRANCH  15  20
ENDBRANCH   8   9
ENDBRANCH   7   8
ENDBRANCH   2   7
BRANCH   6  22
HETATM   22  O   UNK     0      24.534  33.935  22.511  0.00  0.00    -0.311 OA
BRANCH  22  23
HETATM   23  C   UNK     0      23.536  34.873  22.659  0.00  0.00     0.157 A 
HETATM   24  C   UNK     0      23.684  36.164  22.315  0.00  0.00     0.124 A 
HETATM   25  O   UNK     0      22.712  37.139  22.481  0.00  0.00    -0.306 OA
HETATM   26  C   UNK     0      21.503  36.773  23.013  0.00  0.00     0.096 A 
HETATM   27  C   UNK     0      21.214  35.467  23.404  0.00  0.00     0.084 A 
HETATM   28  C   UNK     0      20.541  37.774  23.159  0.00  0.00     0.075 A 
HETATM   29  C   UNK     0      22.246  34.431  23.243  0.00  0.00     0.223 A 
HETATM   30  C   UNK     0      19.963  35.151  23.942  0.00  0.00     0.085 A 
HETATM   31  O   UNK     0      22.052  33.269  23.573  0.00  0.00    -0.284 OA
HETATM   32  C   UNK     0      19.003  36.155  24.086  0.00  0.00     0.074 A 
HETATM   33  C   UNK     0      19.291  37.462  23.695  0.00  0.00     0.071 A 
BRANCH  24  34
HETATM   34  C   UNK     0      24.932  36.692  21.735  0.00  0.00     0.004 A 
HETATM   35  C   UNK     0      26.014  36.992  22.563  0.00  0.00     0.053 A 
HETATM   36  C   UNK     0      27.196  37.489  22.014  0.00  0.00     0.099 A 
HETATM   37  C   UNK     0      27.296  37.688  20.638  0.00  0.00     0.098 A 
HETATM   38  C   UNK     0      26.214  37.388  19.809  0.00  0.00     0.040 A 
HETATM   39  C   UNK     0      25.033  36.890  20.358  0.00  0.00     0.017 A 
BRANCH  36  40
HETATM   40  O   UNK     0      28.245  37.781  22.834  0.00  0.00    -0.358 OA
HETATM   41  H   UNK     0      29.044  37.926  22.302  0.00  0.00     0.217 HD
ENDBRANCH  36  40
BRANCH  37  42
HETATM   42  O   UNK     0      28.445  38.172  20.090  0.00  0.00    -0.358 OA
HETATM   43  H   UNK     0      28.640  37.699  19.266  0.00  0.00     0.217 HD
ENDBRANCH  37  42
ENDBRANCH  24  34
BRANCH  30  44
HETATM   44  O   UNK     0      19.631  33.893  24.340  0.00  0.00    -0.360 OA
HETATM   45  H   UNK     0      19.916  33.253  23.665  0.00  0.00     0.217 HD
ENDBRANCH  30  44
BRANCH  33  46
HETATM   46  O   UNK     0      18.352  38.437  23.838  0.00  0.00    -0.361 OA
HETATM   47  H   UNK     0      17.759  38.199  24.570  0.00  0.00     0.217 HD
ENDBRANCH  33  46
ENDBRANCH  22  23
ENDBRANCH   6  22
BRANCH   3  48
HETATM   48  O   UNK     0      24.911  30.643  18.101  0.00  0.00    -0.390 OA
HETATM   49  H   UNK     0      24.088  30.139  17.987  0.00  0.00     0.210 HD
ENDBRANCH   3  48
BRANCH   5  50
HETATM   50  O   UNK     0      26.836  34.054  20.869  0.00  0.00    -0.388 OA
HETATM   51  H   UNK     0      26.651  34.593  21.656  0.00  0.00     0.210 HD
ENDBRANCH   5  50
BRANCH   4  52
HETATM   52  O   UNK     0      27.312  31.511  19.458  0.00  0.00    -0.390 OA
HETATM   53  H   UNK     0      28.000  32.136  19.743  0.00  0.00     0.210 HD
ENDBRANCH   4  52
TORSDOF 16
ENDMDL
MODEL 2
REMARK VINA RESULT:      -8.5      2.704      8.077
REMARK  16 active torsions:
REMARK  status: ('A' for Active; 'I' for Inactive)
REMARK    1  A    between atoms: O_2  and  C_22 
REMARK    2  A    between atoms: O_2  and  C_26 
REMARK    3  A    between atoms: O_4  and  C_18 
REMARK    4  A    between atoms: O_5  and  C_19 
REMARK    5  A    between atoms: O_6  and  C_25 
REMARK    6  A    between atoms: O_6  and  C_29 
REMARK    7  A    between atoms: O_7  and  C_20 
REMARK    8  A    between atoms: O_8  and  C_21 
REMARK    9  A    between atoms: O_9  and  C_23 
REMARK   10  A    between atoms: O_10  and  C_24 
REMARK   11  A    between atoms: O_13  and  C_35 
REMARK   12  A    between atoms: O_14  and  C_40 
REMARK   13  A    between atoms: O_15  and  C_41 
REMARK   14  A    between atoms: O_16  and  C_43 
REMARK   15  A    between atoms: C_17  and  C_26 
REMARK   16  A    between atoms: C_30  and  C_33 
ROOT
HETATM    1  O   UNK     0      21.024  36.409  22.185  0.00  0.00    -0.348 OA
HETATM    2  C   UNK     0      20.189  37.153  21.296  0.00  0.00     0.180 C 
HETATM    3  C   UNK     0      19.325  38.135  22.091  0.00  0.00     0.180 C 
HETATM    4  C   UNK     0      18.509  37.401  23.155  0.00  0.00     0.183 C 
HETATM    5  C   UNK     0      19.392  36.467  23.983  0.00  0.00     0.205 C 
HETATM    6  C   UNK     0      20.275  35.598  23.088  0.00  0.00     0.298 C 
ENDROOT
BRANCH   2   7
HETATM    7  C   UNK     0      21.100  37.874  20.307  0.00  0.00     0.205 C 
BRANCH   7   8
HETATM    8  O   UNK     0      21.435  39.150  20.832  0.00  0.00    -0.356 OA
BRANCH   8   9
HETATM    9  C   UNK     0      22.825  39.241  21.129  0.00  0.00     0.291 C 
HETATM   10  O   UNK     0      23.148  40.425  21.865  0.00  0.00    -0.351 OA
HETATM   11  C   UNK     0      22.913  41.642  21.151  0.00  0.00     0.152 C 
HETATM   12  C   UNK     0      23.735  41.689  19.855  0.00  0.00     0.178 C 
HETATM   13  C   UNK     0      23.267  42.790  22.094  0.00  0.00     0.042 C 
HETATM   14  C   UNK     0      23.455  40.446  19.010  0.00  0.00     0.183 C 
HETATM   15  C   UNK     0      23.635  39.171  19.836  0.00  0.00     0.204 C 
BRANCH  12  16
HETATM   16  O   UNK     0      23.380  42.837  19.086  0.00  0.00    -0.390 OA
HETATM   17  H   UNK     0      24.082  43.500  19.198  0.00  0.00     0.210 HD
ENDBRANCH  12  16
BRANCH  14  18
HETATM   18  O   UNK     0      24.340  40.429  17.892  0.00  0.00    -0.390 OA
HETATM   19  H   UNK     0      24.333  41.318  17.495  0.00  0.00     0.210 HD
ENDBRANCH  14  18
BRANCH  15  20
HETATM   20  O   UNK     0      25.009  39.011  20.191  0.00  0.00    -0.388 OA
HETATM   21  H   UNK     0      25.073  38.981  21.162  0.00  0.00     0.210 HD
ENDBRANCH  15  20
ENDBRANCH   8   9
ENDBRANCH   7   8
ENDBRANCH   2   7
BRANCH   6  22
HETATM   22  O   UNK     0      21.165  34.863  23.927  0.00  0.00    -0.311 OA
BRANCH  22  23
HETATM   23  C   UNK     0      21.327  33.569  23.485  0.00  0.00     0.157 A 
HETATM   24  C   UNK     0      22.383  33.169  22.754  0.00  0.00     0.124 A 
HETATM   25  O   UNK     0      22.561  31.883  22.266  0.00  0.00    -0.306 OA
HETATM   26  C   UNK     0      21.612  30.937  22.556  0.00  0.00     0.096 A 
HETATM   27  C   UNK     0      20.474  31.215  23.310  0.00  0.00     0.084 A 
HETATM   28  C   UNK     0      21.824  29.650  22.059  0.00  0.00     0.075 A 
HETATM   29  C   UNK     0      20.274  32.581  23.819  0.00  0.00     0.223 A 
HETATM   30  C   UNK     0      19.539  30.210  23.573  0.00  0.00     0.085 A 
HETATM   31  O   UNK     0      19.291  32.885  24.482  0.00  0.00    -0.284 OA
HETATM   32  C   UNK     0      19.753  28.924  23.075  0.00  0.00     0.074 A 
HETATM   33  C   UNK     0      20.893  28.645  22.321  0.00  0.00     0.071 A 
BRANCH  24  34
HETATM   34  C   UNK     0      23.473  34.084  22.370  0.00  0.00     0.004 A 
HETATM   35  C   UNK     0      24.419  34.479  23.316  0.00  0.00     0.053 A 
HETATM   36  C   UNK     0      25.452  35.343  22.952  0.00  0.00     0.099 A 
HETATM   37  C   UNK     0      25.537  35.815  21.643  0.00  0.00     0.098 A 
HETATM   38  C   UNK     0      24.591  35.421  20.697  0.00  0.00     0.040 A 
HETATM   39  C   UNK     0      23.560  34.556  21.060  0.00  0.00     0.017 A 
BRANCH  36  40
HETATM   40  O   UNK     0      26.369  35.723  23.886  0.00  0.00    -0.358 OA
HETATM   41  H   UNK     0      26.559  34.978  24.479  0.00  0.00     0.217 HD
ENDBRANCH  36  40
BRANCH  37  42
HETATM   42  O   UNK     0      26.541  36.659  21.275  0.00  0.00    -0.358 OA
HETATM   43  H   UNK     0      26.469  36.862  20.330  0.00  0.00     0.217 HD
ENDBRANCH  37  42
ENDBRANCH  24  34
BRANCH  30  44
HETATM   44  O   UNK     0      18.411  30.429  24.303  0.00  0.00    -0.360 OA
HETATM   45  H   UNK     0      18.635  30.448  25.250  0.00  0.00     0.217 HD
ENDBRANCH  30  44
BRANCH  33  46
HETATM   46  O   UNK     0      21.097  27.389  21.837  0.00  0.00    -0.361 OA
HETATM   47  H   UNK     0      20.795  26.743  22.498  0.00  0.00     0.217 HD
ENDBRANCH  33  46
ENDBRANCH  22  23
ENDBRANCH   6  22
BRANCH   3  48
HETATM   48  O   UNK     0      18.440  38.810  21.202  0.00  0.00    -0.390 OA
HETATM   49  H   UNK     0      18.902  38.938  20.356  0.00  0.00     0.210 HD
ENDBRANCH   3  48
BRANCH   5  50
HETATM   50  O   UNK     0      18.567  35.607  24.769  0.00  0.00    -0.388 OA
HETATM   51  H   UNK     0      18.220  34.909  24.188  0.00  0.00     0.210 HD
ENDBRANCH   5  50
BRANCH   4  52
HETATM   52  O   UNK     0      17.919  38.381  24.012  0.00  0.00    -0.390 OA
HETATM   53  H   UNK     0      16.960  38.220  24.020  0.00  0.00     0.210 HD
ENDBRANCH   4  52
TORSDOF 16
ENDMDL
MODEL 3
REMARK VINA RESULT:      -8.4      3.156      8.334
REMARK  16 active torsions:
REMARK  status: ('A' for Active; 'I' for Inactive)
REMARK    1  A    between atoms: O_2  and  C_22 
REMARK    2  A    between atoms: O_2  and  C_26 
REMARK    3  A    between atoms: O_4  and  C_18 
REMARK    4  A    between atoms: O_5  and  C_19 
REMARK    5  A    between atoms: O_6  and  C_25 
REMARK    6  A    between atoms: O_6  and  C_29 
REMARK    7  A    between atoms: O_7  and  C_20 
REMARK    8  A    between atoms: O_8  and  C_21 
REMARK    9  A    between atoms: O_9  and  C_23 
REMARK   10  A    between atoms: O_10  and  C_24 
REMARK   11  A    between atoms: O_13  and  C_35 
REMARK   12  A    between atoms: O_14  and  C_40 
REMARK   13  A    between atoms: O_15  and  C_41 
REMARK   14  A    between atoms: O_16  and  C_43 
REMARK   15  A    between atoms: C_17  and  C_26 
REMARK   16  A    between atoms: C_30  and  C_33 
ROOT
HETATM    1  O   UNK     0      21.361  36.463  22.031  0.00  0.00    -0.348 OA
HETATM    2  C   UNK     0      20.665  37.220  21.040  0.00  0.00     0.180 C 
HETATM    3  C   UNK     0      19.732  38.229  21.715  0.00  0.00     0.180 C 
HETATM    4  C   UNK     0      18.769  37.523  22.670  0.00  0.00     0.183 C 
HETATM    5  C   UNK     0      19.516  36.574  23.608  0.00  0.00     0.205 C 
HETATM    6  C   UNK     0      20.484  35.677  22.835  0.00  0.00     0.298 C 
ENDROOT
BRANCH   2   7
HETATM    7  C   UNK     0      21.711  37.912  20.172  0.00  0.00     0.205 C 
BRANCH   7   8
HETATM    8  O   UNK     0      21.959  39.209  20.691  0.00  0.00    -0.356 OA
BRANCH   8   9
HETATM    9  C   UNK     0      22.669  40.017  19.758  0.00  0.00     0.291 C 
HETATM   10  O   UNK     0      23.321  41.127  20.382  0.00  0.00    -0.351 OA
HETATM   11  C   UNK     0      22.427  42.073  20.978  0.00  0.00     0.152 C 
HETATM   12  C   UNK     0      21.464  42.655  19.934  0.00  0.00     0.178 C 
HETATM   13  C   UNK     0      23.288  43.153  21.627  0.00  0.00     0.042 C 
HETATM   14  C   UNK     0      20.731  41.527  19.208  0.00  0.00     0.183 C 
HETATM   15  C   UNK     0      21.719  40.495  18.661  0.00  0.00     0.204 C 
BRANCH  12  16
HETATM   16  O   UNK     0      20.490  43.482  20.568  0.00  0.00    -0.390 OA
HETATM   17  H   UNK     0      20.745  43.583  21.500  0.00  0.00     0.210 HD
ENDBRANCH  12  16
BRANCH  14  18
HETATM   18  O   UNK     0      19.963  42.078  18.140  0.00  0.00    -0.390 OA
HETATM   19  H   UNK     0      19.943  41.422  17.421  0.00  0.00     0.210 HD
ENDBRANCH  14  18
BRANCH  15  20
HETATM   20  O   UNK     0      22.510  41.079  17.624  0.00  0.00    -0.388 OA
HETATM   21  H   UNK     0      22.388  40.555  16.814  0.00  0.00     0.210 HD
ENDBRANCH  15  20
ENDBRANCH   8   9
ENDBRANCH   7   8
ENDBRANCH   2   7
BRANCH   6  22
HETATM   22  O   UNK     0      21.242  34.928  23.784  0.00  0.00    -0.311 OA
BRANCH  22  23
HETATM   23  C   UNK     0      21.342  33.603  23.421  0.00  0.00     0.157 A 
HETATM   24  C   UNK     0      22.395  33.102  22.750  0.00  0.00     0.124 A 
HETATM   25  O   UNK     0      22.512  31.783  22.341  0.00  0.00    -0.306 OA
HETATM   26  C   UNK     0      21.501  30.910  22.652  0.00  0.00     0.096 A 
HETATM   27  C   UNK     0      20.359  31.295  23.350  0.00  0.00     0.084 A 
HETATM   28  C   UNK     0      21.652  29.587  22.235  0.00  0.00     0.075 A 
HETATM   29  C   UNK     0      20.222  32.697  23.774  0.00  0.00     0.223 A 
HETATM   30  C   UNK     0      19.359  30.361  23.637  0.00  0.00     0.085 A 
HETATM   31  O   UNK     0      19.239  33.094  24.385  0.00  0.00    -0.284 OA
HETATM   32  C   UNK     0      19.513  29.038  23.220  0.00  0.00     0.074 A 
HETATM   33  C   UNK     0      20.657  28.652  22.521  0.00  0.00     0.071 A 
BRANCH  24  34
HETATM   34  C   UNK     0      23.547  33.931  22.353  0.00  0.00     0.004 A 
HETATM   35  C   UNK     0      24.424  34.418  23.322  0.00  0.00     0.053 A 
HETATM   36  C   UNK     0      25.515  35.201  22.946  0.00  0.00     0.099 A 
HETATM   37  C   UNK     0      25.730  35.497  21.600  0.00  0.00     0.098 A 
HETATM   38  C   UNK     0      24.853  35.010  20.631  0.00  0.00     0.040 A 
HETATM   39  C   UNK     0      23.763  34.227  21.007  0.00  0.00     0.017 A 
BRANCH  36  40
HETATM   40  O   UNK     0      26.363  35.673  23.903  0.00  0.00    -0.358 OA
HETATM   41  H   UNK     0      26.301  35.118  24.697  0.00  0.00     0.217 HD
ENDBRANCH  36  40
BRANCH  37  42
HETATM   42  O   UNK     0      26.793  36.260  21.221  0.00  0.00    -0.358 OA
HETATM   43  H   UNK     0      26.570  37.200  21.311  0.00  0.00     0.217 HD
ENDBRANCH  37  42
ENDBRANCH  24  34
BRANCH  30  44
HETATM   44  O   UNK     0      18.224  30.685  24.315  0.00  0.00    -0.360 OA
HETATM   45  H   UNK     0      18.457  31.024  25.197  0.00  0.00     0.217 HD
ENDBRANCH  30  44
BRANCH  33  46
HETATM   46  O   UNK     0      20.802  27.360  22.116  0.00  0.00    -0.361 OA
HETATM   47  H   UNK     0      21.750  27.145  22.081  0.00  0.00     0.217 HD
ENDBRANCH  33  46
ENDBRANCH  22  23
ENDBRANCH   6  22
BRANCH   3  48
HETATM   48  O   UNK     0      18.983  38.918  20.717  0.00  0.00    -0.390 OA
HETATM   49  H   UNK     0      18.888  39.844  20.998  0.00  0.00     0.210 HD
ENDBRANCH   3  48
BRANCH   5  50
HETATM   50  O   UNK     0      18.577  35.741  24.286  0.00  0.00    -0.388 OA
HETATM   51  H   UNK     0      17.845  35.552  23.675  0.00  0.00     0.210 HD
ENDBRANCH   5  50
BRANCH   4  52
HETATM   52  O   UNK     0      18.099  38.523  23.440  0.00  0.00    -0.390 OA
HETATM   53  H   UNK     0      17.897  38.134  24.308  0.00  0.00     0.210 HD
ENDBRANCH   4  52
TORSDOF 16
ENDMDL
MODEL 4
REMARK VINA RESULT:      -8.3      3.162      5.464
REMARK  16 active torsions:
REMARK  status: ('A' for Active; 'I' for Inactive)
REMARK    1  A    between atoms: O_2  and  C_22 
REMARK    2  A    between atoms: O_2  and  C_26 
REMARK    3  A    between atoms: O_4  and  C_18 
REMARK    4  A    between atoms: O_5  and  C_19 
REMARK    5  A    between atoms: O_6  and  C_25 
REMARK    6  A    between atoms: O_6  and  C_29 
REMARK    7  A    between atoms: O_7  and  C_20 
REMARK    8  A    between atoms: O_8  and  C_21 
REMARK    9  A    between atoms: O_9  and  C_23 
REMARK   10  A    between atoms: O_10  and  C_24 
REMARK   11  A    between atoms: O_13  and  C_35 
REMARK   12  A    between atoms: O_14  and  C_40 
REMARK   13  A    between atoms: O_15  and  C_41 
REMARK   14  A    between atoms: O_16  and  C_43 
REMARK   15  A    between atoms: C_17  and  C_26 
REMARK   16  A    between atoms: C_30  and  C_33 
ROOT
HETATM    1  O   UNK     0      21.791  35.510  21.538  0.00  0.00    -0.348 OA
HETATM    2  C   UNK     0      21.890  34.855  22.804  0.00  0.00     0.180 C 
HETATM    3  C   UNK     0      20.505  34.753  23.448  0.00  0.00     0.180 C 
HETATM    4  C   UNK     0      19.861  36.134  23.572  0.00  0.00     0.183 C 
HETATM    5  C   UNK     0      19.927  36.896  22.249  0.00  0.00     0.205 C 
HETATM    6  C   UNK     0      21.334  36.856  21.654  0.00  0.00     0.298 C 
ENDROOT
BRANCH   2   7
HETATM    7  C   UNK     0      22.504  33.480  22.562  0.00  0.00     0.205 C 
BRANCH   7   8
HETATM    8  O   UNK     0      21.466  32.554  22.276  0.00  0.00    -0.356 OA
BRANCH   8   9
HETATM    9  C   UNK     0      21.882  31.214  22.521  0.00  0.00     0.291 C 
HETATM   10  O   UNK     0      20.988  30.253  21.950  0.00  0.00    -0.351 OA
HETATM   11  C   UNK     0      19.673  30.268  22.515  0.00  0.00     0.152 C 
HETATM   12  C   UNK     0      19.717  29.988  24.024  0.00  0.00     0.178 C 
HETATM   13  C   UNK     0      18.853  29.221  21.764  0.00  0.00     0.042 C 
HETATM   14  C   UNK     0      20.666  30.970  24.712  0.00  0.00     0.183 C 
HETATM   15  C   UNK     0      22.032  30.986  24.024  0.00  0.00     0.204 C 
BRANCH  12  16
HETATM   16  O   UNK     0      18.421  30.150  24.594  0.00  0.00    -0.390 OA
HETATM   17  H   UNK     0      17.772  30.139  23.870  0.00  0.00     0.210 HD
ENDBRANCH  12  16
BRANCH  14  18
HETATM   18  O   UNK     0      20.815  30.598  26.080  0.00  0.00    -0.390 OA
HETATM   19  H   UNK     0      21.191  31.359  26.556  0.00  0.00     0.210 HD
ENDBRANCH  14  18
BRANCH  15  20
HETATM   20  O   UNK     0      22.686  29.730  24.210  0.00  0.00    -0.388 OA
HETATM   21  H   UNK     0      22.248  29.262  24.942  0.00  0.00     0.210 HD
ENDBRANCH  15  20
ENDBRANCH   8   9
ENDBRANCH   7   8
ENDBRANCH   2   7
BRANCH   6  22
HETATM   22  O   UNK     0      21.283  37.460  20.362  0.00  0.00    -0.311 OA
BRANCH  22  23
HETATM   23  C   UNK     0      21.922  38.680  20.346  0.00  0.00     0.157 A 
HETATM   24  C   UNK     0      23.248  38.817  20.520  0.00  0.00     0.124 A 
HETATM   25  O   UNK     0      23.918  40.032  20.542  0.00  0.00    -0.306 OA
HETATM   26  C   UNK     0      23.194  41.181  20.356  0.00  0.00     0.096 A 
HETATM   27  C   UNK     0      21.815  41.180  20.157  0.00  0.00     0.084 A 
HETATM   28  C   UNK     0      23.896  42.386  20.374  0.00  0.00     0.075 A 
HETATM   29  C   UNK     0      21.097  39.896  20.145  0.00  0.00     0.223 A 
HETATM   30  C   UNK     0      21.128  42.384  19.974  0.00  0.00     0.085 A 
HETATM   31  O   UNK     0      19.886  39.835  19.980  0.00  0.00    -0.284 OA
HETATM   32  C   UNK     0      21.834  43.588  19.992  0.00  0.00     0.074 A 
HETATM   33  C   UNK     0      23.214  43.589  20.191  0.00  0.00     0.071 A 
BRANCH  24  34
HETATM   34  C   UNK     0      24.143  37.665  20.732  0.00  0.00     0.004 A 
HETATM   35  C   UNK     0      24.680  37.422  21.997  0.00  0.00     0.053 A 
HETATM   36  C   UNK     0      25.524  36.331  22.199  0.00  0.00     0.099 A 
HETATM   37  C   UNK     0      25.834  35.483  21.136  0.00  0.00     0.098 A 
HETATM   38  C   UNK     0      25.298  35.726  19.871  0.00  0.00     0.040 A 
HETATM   39  C   UNK     0      24.453  36.816  19.670  0.00  0.00     0.017 A 
BRANCH  36  40
HETATM   40  O   UNK     0      26.044  36.106  23.439  0.00  0.00    -0.358 OA
HETATM   41  H   UNK     0      25.714  36.777  24.058  0.00  0.00     0.217 HD
ENDBRANCH  36  40
BRANCH  37  42
HETATM   42  O   UNK     0      26.658  34.414  21.321  0.00  0.00    -0.358 OA
HETATM   43  H   UNK     0      27.032  34.440  22.216  0.00  0.00     0.217 HD
ENDBRANCH  37  42
ENDBRANCH  24  34
BRANCH  30  44
HETATM   44  O   UNK     0      19.782  42.439  19.776  0.00  0.00    -0.360 OA
HETATM   45  H   UNK     0      19.427  43.250  20.179  0.00  0.00     0.217 HD
ENDBRANCH  30  44
BRANCH  33  46
HETATM   46  O   UNK     0      23.898  44.766  20.208  0.00  0.00    -0.361 OA
HETATM   47  H   UNK     0      23.271  45.498  20.074  0.00  0.00     0.217 HD
ENDBRANCH  33  46
ENDBRANCH  22  23
ENDBRANCH   6  22
BRANCH   3  48
HETATM   48  O   UNK     0      20.630  34.174  24.744  0.00  0.00    -0.390 OA
HETATM   49  H   UNK     0      19.736  34.010  25.088  0.00  0.00     0.210 HD
ENDBRANCH   3  48
BRANCH   5  50
HETATM   50  O   UNK     0      19.572  38.261  22.470  0.00  0.00    -0.388 OA
HETATM   51  H   UNK     0      19.719  38.749  21.642  0.00  0.00     0.210 HD
ENDBRANCH   5  50
BRANCH   4  52
HETATM   52  O   UNK     0      18.494  35.951  23.948  0.00  0.00    -0.390 OA
HETATM   53  H   UNK     0      18.463  35.911  24.919  0.00  0.00     0.210 HD
ENDBRANCH   4  52
TORSDOF 16
ENDMDL
MODEL 5
REMARK VINA RESULT:      -8.3      2.094      5.281
REMARK  16 active torsions:
REMARK  status: ('A' for Active; 'I' for Inactive)
REMARK    1  A    between atoms: O_2  and  C_22 
REMARK    2  A    between atoms: O_2  and  C_26 
REMARK    3  A    between atoms: O_4  and  C_18 
REMARK    4  A    between atoms: O_5  and  C_19 
REMARK    5  A    between atoms: O_6  and  C_25 
REMARK    6  A    between atoms: O_6  and  C_29 
REMARK    7  A    between atoms: O_7  and  C_20 
REMARK    8  A    between atoms: O_8  and  C_21 
REMARK    9  A    between atoms: O_9  and  C_23 
REMARK   10  A    between atoms: O_10  and  C_24 
REMARK   11  A    between atoms: O_13  and  C_35 
REMARK   12  A    between atoms: O_14  and  C_40 
REMARK   13  A    between atoms: O_15  and  C_41 
REMARK   14  A    between atoms: O_16  and  C_43 
REMARK   15  A    between atoms: C_17  and  C_26 
REMARK   16  A    between atoms: C_30  and  C_33 
ROOT
HETATM    1  O   UNK     0      23.153  32.883  20.702  0.00  0.00    -0.348 OA
HETATM    2  C   UNK     0      23.475  33.252  19.359  0.00  0.00     0.180 C 
HETATM    3  C   UNK     0      24.992  33.222  19.159  0.00  0.00     0.180 C 
HETATM    4  C   UNK     0      25.692  34.121  20.178  0.00  0.00     0.183 C 
HETATM    5  C   UNK     0      25.200  33.837  21.597  0.00  0.00     0.205 C 
HETATM    6  C   UNK     0      23.673  33.802  21.660  0.00  0.00     0.298 C 
ENDROOT
BRANCH   2   7
HETATM    7  C   UNK     0      22.762  32.273  18.431  0.00  0.00     0.205 C 
BRANCH   7   8
HETATM    8  O   UNK     0      22.677  31.009  19.071  0.00  0.00    -0.356 OA
BRANCH   8   9
HETATM    9  C   UNK     0      23.311  29.992  18.301  0.00  0.00     0.291 C 
HETATM   10  O   UNK     0      22.471  28.850  18.109  0.00  0.00    -0.351 OA
HETATM   11  C   UNK     0      22.142  28.153  19.315  0.00  0.00     0.152 C 
HETATM   12  C   UNK     0      23.408  27.655  20.026  0.00  0.00     0.178 C 
HETATM   13  C   UNK     0      21.215  27.004  18.928  0.00  0.00     0.042 C 
HETATM   14  C   UNK     0      24.372  28.819  20.261  0.00  0.00     0.183 C 
HETATM   15  C   UNK     0      24.627  29.589  18.963  0.00  0.00     0.204 C 
BRANCH  12  16
HETATM   16  O   UNK     0      23.074  27.093  21.293  0.00  0.00    -0.390 OA
HETATM   17  H   UNK     0      23.374  27.711  21.982  0.00  0.00     0.210 HD
ENDBRANCH  12  16
BRANCH  14  18
HETATM   18  O   UNK     0      25.601  28.315  20.776  0.00  0.00    -0.390 OA
HETATM   19  H   UNK     0      25.426  27.436  21.155  0.00  0.00     0.210 HD
ENDBRANCH  14  18
BRANCH  15  20
HETATM   20  O   UNK     0      25.343  28.765  18.042  0.00  0.00    -0.388 OA
HETATM   21  H   UNK     0      26.261  29.083  17.995  0.00  0.00     0.210 HD
ENDBRANCH  15  20
ENDBRANCH   8   9
ENDBRANCH   7   8
ENDBRANCH   2   7
BRANCH   6  22
HETATM   22  O   UNK     0      23.296  33.392  22.974  0.00  0.00    -0.311 OA
BRANCH  22  23
HETATM   23  C   UNK     0      22.094  33.948  23.354  0.00  0.00     0.157 A 
HETATM   24  C   UNK     0      20.964  33.232  23.488  0.00  0.00     0.124 A 
HETATM   25  O   UNK     0      19.732  33.765  23.836  0.00  0.00    -0.306 OA
HETATM   26  C   UNK     0      19.648  35.111  24.083  0.00  0.00     0.096 A 
HETATM   27  C   UNK     0      20.744  35.966  23.989  0.00  0.00     0.084 A 
HETATM   28  C   UNK     0      18.397  35.616  24.441  0.00  0.00     0.075 A 
HETATM   29  C   UNK     0      22.051  35.408  23.607  0.00  0.00     0.223 A 
HETATM   30  C   UNK     0      20.599  37.331  24.251  0.00  0.00     0.085 A 
HETATM   31  O   UNK     0      23.047  36.111  23.503  0.00  0.00    -0.284 OA
HETATM   32  C   UNK     0      19.347  37.833  24.609  0.00  0.00     0.074 A 
HETATM   33  C   UNK     0      18.249  36.978  24.704  0.00  0.00     0.071 A 
BRANCH  24  34
HETATM   34  C   UNK     0      20.913  31.778  23.250  0.00  0.00     0.004 A 
HETATM   35  C   UNK     0      22.003  30.977  23.594  0.00  0.00     0.053 A 
HETATM   36  C   UNK     0      21.955  29.601  23.370  0.00  0.00     0.099 A 
HETATM   37  C   UNK     0      20.818  29.026  22.802  0.00  0.00     0.098 A 
HETATM   38  C   UNK     0      19.729  29.827  22.458  0.00  0.00     0.040 A 
HETATM   39  C   UNK     0      19.777  31.202  22.683  0.00  0.00     0.017 A 
BRANCH  36  40
HETATM   40  O   UNK     0      23.026  28.829  23.708  0.00  0.00    -0.358 OA
HETATM   41  H   UNK     0      23.812  29.131  23.225  0.00  0.00     0.217 HD
ENDBRANCH  36  40
BRANCH  37  42
HETATM   42  O   UNK     0      20.760  27.683  22.580  0.00  0.00    -0.358 OA
HETATM   43  H   UNK     0      20.074  27.490  21.922  0.00  0.00     0.217 HD
ENDBRANCH  37  42
ENDBRANCH  24  34
BRANCH  30  44
HETATM   44  O   UNK     0      21.636  38.208  24.173  0.00  0.00    -0.360 OA
HETATM   45  H   UNK     0      21.342  39.088  24.468  0.00  0.00     0.217 HD
ENDBRANCH  30  44
BRANCH  33  46
HETATM   46  O   UNK     0      17.030  37.473  25.054  0.00  0.00    -0.361 OA
HETATM   47  H   UNK     0      16.911  37.371  26.013  0.00  0.00     0.217 HD
ENDBRANCH  33  46
ENDBRANCH  22  23
ENDBRANCH   6  22
BRANCH   3  48
HETATM   48  O   UNK     0      25.302  33.672  17.843  0.00  0.00    -0.390 OA
HETATM   49  H   UNK     0      25.234  34.641  17.832  0.00  0.00     0.210 HD
ENDBRANCH   3  48
BRANCH   5  50
HETATM   50  O   UNK     0      25.662  34.864  22.474  0.00  0.00    -0.388 OA
HETATM   51  H   UNK     0      24.914  35.454  22.667  0.00  0.00     0.210 HD
ENDBRANCH   5  50
BRANCH   4  52
HETATM   52  O   UNK     0      27.096  33.866  20.101  0.00  0.00    -0.390 OA
HETATM   53  H   UNK     0      27.394  34.146  19.219  0.00  0.00     0.210 HD
ENDBRANCH   4  52
TORSDOF 16
ENDMDL
MODEL 6
REMARK VINA RESULT:      -8.1      7.183     10.426
REMARK  16 active torsions:
REMARK  status: ('A' for Active; 'I' for Inactive)
REMARK    1  A    between atoms: O_2  and  C_22 
REMARK    2  A    between atoms: O_2  and  C_26 
REMARK    3  A    between atoms: O_4  and  C_18 
REMARK    4  A    between atoms: O_5  and  C_19 
REMARK    5  A    between atoms: O_6  and  C_25 
REMARK    6  A    between atoms: O_6  and  C_29 
REMARK    7  A    between atoms: O_7  and  C_20 
REMARK    8  A    between atoms: O_8  and  C_21 
REMARK    9  A    between atoms: O_9  and  C_23 
REMARK   10  A    between atoms: O_10  and  C_24 
REMARK   11  A    between atoms: O_13  and  C_35 
REMARK   12  A    between atoms: O_14  and  C_40 
REMARK   13  A    between atoms: O_15  and  C_41 
REMARK   14  A    between atoms: O_16  and  C_43 
REMARK   15  A    between atoms: C_17  and  C_26 
REMARK   16  A    between atoms: C_30  and  C_33 
ROOT
HETATM    1  O   UNK     0      20.746  41.292  19.627  0.00  0.00    -0.348 OA
HETATM    2  C   UNK     0      22.068  40.828  19.911  0.00  0.00     0.180 C 
HETATM    3  C   UNK     0      22.601  41.511  21.172  0.00  0.00     0.180 C 
HETATM    4  C   UNK     0      22.553  43.032  21.027  0.00  0.00     0.183 C 
HETATM    5  C   UNK     0      21.179  43.499  20.546  0.00  0.00     0.205 C 
HETATM    6  C   UNK     0      20.708  42.688  19.338  0.00  0.00     0.298 C 
ENDROOT
BRANCH   2   7
HETATM    7  C   UNK     0      21.996  39.313  20.076  0.00  0.00     0.205 C 
BRANCH   7   8
HETATM    8  O   UNK     0      21.488  39.012  21.367  0.00  0.00    -0.356 OA
BRANCH   8   9
HETATM    9  C   UNK     0      20.456  38.033  21.306  0.00  0.00     0.291 C 
HETATM   10  O   UNK     0      19.736  37.922  22.538  0.00  0.00    -0.351 OA
HETATM   11  C   UNK     0      20.524  37.459  23.638  0.00  0.00     0.152 C 
HETATM   12  C   UNK     0      21.117  36.073  23.347  0.00  0.00     0.178 C 
HETATM   13  C   UNK     0      19.614  37.445  24.865  0.00  0.00     0.042 C 
HETATM   14  C   UNK     0      21.898  36.102  22.033  0.00  0.00     0.183 C 
HETATM   15  C   UNK     0      21.047  36.684  20.903  0.00  0.00     0.204 C 
BRANCH  12  16
HETATM   16  O   UNK     0      22.014  35.691  24.388  0.00  0.00    -0.390 OA
HETATM   17  H   UNK     0      22.205  36.481  24.922  0.00  0.00     0.210 HD
ENDBRANCH  12  16
BRANCH  14  18
HETATM   18  O   UNK     0      22.306  34.777  21.700  0.00  0.00    -0.390 OA
HETATM   19  H   UNK     0      23.192  34.830  21.300  0.00  0.00     0.210 HD
ENDBRANCH  14  18
BRANCH  15  20
HETATM   20  O   UNK     0      19.961  35.804  20.608  0.00  0.00    -0.388 OA
HETATM   21  H   UNK     0      19.411  35.717  21.405  0.00  0.00     0.210 HD
ENDBRANCH  15  20
ENDBRANCH   8   9
ENDBRANCH   7   8
ENDBRANCH   2   7
BRANCH   6  22
HETATM   22  O   UNK     0      19.369  43.082  19.040  0.00  0.00    -0.311 OA
BRANCH  22  23
HETATM   23  C   UNK     0      19.180  43.249  17.685  0.00  0.00     0.157 A 
HETATM   24  C   UNK     0      18.853  42.239  16.859  0.00  0.00     0.124 A 
HETATM   25  O   UNK     0      18.687  42.366  15.489  0.00  0.00    -0.306 OA
HETATM   26  C   UNK     0      18.845  43.605  14.923  0.00  0.00     0.096 A 
HETATM   27  C   UNK     0      19.175  44.737  15.665  0.00  0.00     0.084 A 
HETATM   28  C   UNK     0      18.662  43.704  13.543  0.00  0.00     0.075 A 
HETATM   29  C   UNK     0      19.365  44.606  17.118  0.00  0.00     0.223 A 
HETATM   30  C   UNK     0      19.325  45.976  15.034  0.00  0.00     0.085 A 
HETATM   31  O   UNK     0      19.661  45.564  17.820  0.00  0.00    -0.284 OA
HETATM   32  C   UNK     0      19.141  46.071  13.654  0.00  0.00     0.074 A 
HETATM   33  C   UNK     0      18.810  44.938  12.910  0.00  0.00     0.071 A 
BRANCH  24  34
HETATM   34  C   UNK     0      18.655  40.858  17.335  0.00  0.00     0.004 A 
HETATM   35  C   UNK     0      17.564  40.549  18.147  0.00  0.00     0.053 A 
HETATM   36  C   UNK     0      17.376  39.242  18.596  0.00  0.00     0.099 A 
HETATM   37  C   UNK     0      18.280  38.244  18.235  0.00  0.00     0.098 A 
HETATM   38  C   UNK     0      19.372  38.553  17.423  0.00  0.00     0.040 A 
HETATM   39  C   UNK     0      19.559  39.859  16.973  0.00  0.00     0.017 A 
BRANCH  36  40
HETATM   40  O   UNK     0      16.307  38.953  19.391  0.00  0.00    -0.358 OA
HETATM   41  H   UNK     0      16.135  39.697  19.991  0.00  0.00     0.217 HD
ENDBRANCH  36  40
BRANCH  37  42
HETATM   42  O   UNK     0      18.107  36.964  18.667  0.00  0.00    -0.358 OA
HETATM   43  H   UNK     0      18.708  36.372  18.188  0.00  0.00     0.217 HD
ENDBRANCH  37  42
ENDBRANCH  24  34
BRANCH  30  44
HETATM   44  O   UNK     0      19.647  47.111  15.712  0.00  0.00    -0.360 OA
HETATM   45  H   UNK     0      19.217  47.102  16.585  0.00  0.00     0.217 HD
ENDBRANCH  30  44
BRANCH  33  46
HETATM   46  O   UNK     0      18.632  45.036  11.564  0.00  0.00    -0.361 OA
HETATM   47  H   UNK     0      17.689  44.913  11.361  0.00  0.00     0.217 HD
ENDBRANCH  33  46
ENDBRANCH  22  23
ENDBRANCH   6  22
BRANCH   3  48
HETATM   48  O   UNK     0      23.948  41.102  21.395  0.00  0.00    -0.390 OA
HETATM   49  H   UNK     0      23.953  40.475  22.138  0.00  0.00     0.210 HD
ENDBRANCH   3  48
BRANCH   5  50
HETATM   50  O   UNK     0      21.253  44.872  20.162  0.00  0.00    -0.388 OA
HETATM   51  H   UNK     0      22.079  45.240  20.516  0.00  0.00     0.210 HD
ENDBRANCH   5  50
BRANCH   4  52
HETATM   52  O   UNK     0      22.830  43.607  22.306  0.00  0.00    -0.390 OA
HETATM   53  H   UNK     0      23.568  44.230  22.192  0.00  0.00     0.210 HD
ENDBRANCH   4  52
TORSDOF 16
ENDMDL
MODEL 7
REMARK VINA RESULT:      -8.0      2.445      5.990
REMARK  16 active torsions:
REMARK  status: ('A' for Active; 'I' for Inactive)
REMARK    1  A    between atoms: O_2  and  C_22 
REMARK    2  A    between atoms: O_2  and  C_26 
REMARK    3  A    between atoms: O_4  and  C_18 
REMARK    4  A    between atoms: O_5  and  C_19 
REMARK    5  A    between atoms: O_6  and  C_25 
REMARK    6  A    between atoms: O_6  and  C_29 
REMARK    7  A    between atoms: O_7  and  C_20 
REMARK    8  A    between atoms: O_8  and  C_21 
REMARK    9  A    between atoms: O_9  and  C_23 
REMARK   10  A    between atoms: O_10  and  C_24 
REMARK   11  A    between atoms: O_13  and  C_35 
REMARK   12  A    between atoms: O_14  and  C_40 
REMARK   13  A    between atoms: O_15  and  C_41 
REMARK   14  A    between atoms: O_16  and  C_43 
REMARK   15  A    between atoms: C_17  and  C_26 
REMARK   16  A    between atoms: C_30  and  C_33 
ROOT
HETATM    1  O   UNK     0      21.660  36.324  22.640  0.00  0.00    -0.348 OA
HETATM    2  C   UNK     0      20.594  35.486  23.092  0.00  0.00     0.180 C 
HETATM    3  C   UNK     0      19.457  36.343  23.651  0.00  0.00     0.180 C 
HETATM    4  C   UNK     0      19.965  37.263  24.761  0.00  0.00     0.183 C 
HETATM    5  C   UNK     0      21.218  38.021  24.322  0.00  0.00     0.205 C 
HETATM    6  C   UNK     0      22.248  37.078  23.698  0.00  0.00     0.298 C 
ENDROOT
BRANCH   2   7
HETATM    7  C   UNK     0      20.137  34.645  21.903  0.00  0.00     0.205 C 
BRANCH   7   8
HETATM    8  O   UNK     0      19.597  33.422  22.383  0.00  0.00    -0.356 OA
BRANCH   8   9
HETATM    9  C   UNK     0      20.571  32.383  22.370  0.00  0.00     0.291 C 
HETATM   10  O   UNK     0      20.065  31.169  21.805  0.00  0.00    -0.351 OA
HETATM   11  C   UNK     0      18.999  30.574  22.551  0.00  0.00     0.152 C 
HETATM   12  C   UNK     0      19.446  30.242  23.982  0.00  0.00     0.178 C 
HETATM   13  C   UNK     0      18.560  29.328  21.787  0.00  0.00     0.042 C 
HETATM   14  C   UNK     0      20.014  31.491  24.658  0.00  0.00     0.183 C 
HETATM   15  C   UNK     0      21.089  32.144  23.787  0.00  0.00     0.204 C 
BRANCH  12  16
HETATM   16  O   UNK     0      18.336  29.787  24.753  0.00  0.00    -0.390 OA
HETATM   17  H   UNK     0      17.731  29.317  24.155  0.00  0.00     0.210 HD
ENDBRANCH  12  16
BRANCH  14  18
HETATM   18  O   UNK     0      20.566  31.130  25.922  0.00  0.00    -0.390 OA
HETATM   19  H   UNK     0      19.837  30.819  26.486  0.00  0.00     0.210 HD
ENDBRANCH  14  18
BRANCH  15  20
HETATM   20  O   UNK     0      22.228  31.287  23.695  0.00  0.00    -0.388 OA
HETATM   21  H   UNK     0      21.953  30.456  23.272  0.00  0.00     0.210 HD
ENDBRANCH  15  20
ENDBRANCH   8   9
ENDBRANCH   7   8
ENDBRANCH   2   7
BRANCH   6  22
HETATM   22  O   UNK     0      23.318  37.872  23.187  0.00  0.00    -0.311 OA
BRANCH  22  23
HETATM   23  C   UNK     0      24.086  37.168  22.286  0.00  0.00     0.157 A 
HETATM   24  C   UNK     0      24.294  37.575  21.021  0.00  0.00     0.124 A 
HETATM   25  O   UNK     0      25.034  36.875  20.080  0.00  0.00    -0.306 OA
HETATM   26  C   UNK     0      25.617  35.693  20.456  0.00  0.00     0.096 A 
HETATM   27  C   UNK     0      25.489  35.161  21.737  0.00  0.00     0.084 A 
HETATM   28  C   UNK     0      26.364  35.016  19.490  0.00  0.00     0.075 A 
HETATM   29  C   UNK     0      24.694  35.892  22.735  0.00  0.00     0.223 A 
HETATM   30  C   UNK     0      26.106  33.950  22.063  0.00  0.00     0.085 A 
HETATM   31  O   UNK     0      24.542  35.471  23.874  0.00  0.00    -0.284 OA
HETATM   32  C   UNK     0      26.852  33.275  21.095  0.00  0.00     0.074 A 
HETATM   33  C   UNK     0      26.981  33.807  19.812  0.00  0.00     0.071 A 
BRANCH  24  34
HETATM   34  C   UNK     0      23.723  38.825  20.487  0.00  0.00     0.004 A 
HETATM   35  C   UNK     0      22.339  38.979  20.399  0.00  0.00     0.053 A 
HETATM   36  C   UNK     0      21.799  40.162  19.896  0.00  0.00     0.099 A 
HETATM   37  C   UNK     0      22.642  41.192  19.480  0.00  0.00     0.098 A 
HETATM   38  C   UNK     0      24.026  41.038  19.567  0.00  0.00     0.040 A 
HETATM   39  C   UNK     0      24.566  39.856  20.071  0.00  0.00     0.017 A 
BRANCH  36  40
HETATM   40  O   UNK     0      20.446  40.299  19.814  0.00  0.00    -0.358 OA
HETATM   41  H   UNK     0      20.019  39.748  20.490  0.00  0.00     0.217 HD
ENDBRANCH  36  40
BRANCH  37  42
HETATM   42  O   UNK     0      22.126  42.352  18.987  0.00  0.00    -0.358 OA
HETATM   43  H   UNK     0      22.238  43.063  19.637  0.00  0.00     0.217 HD
ENDBRANCH  37  42
ENDBRANCH  24  34
BRANCH  30  44
HETATM   44  O   UNK     0      26.011  33.387  23.299  0.00  0.00    -0.360 OA
HETATM   45  H   UNK     0      26.764  33.673  23.845  0.00  0.00     0.217 HD
ENDBRANCH  30  44
BRANCH  33  46
HETATM   46  O   UNK     0      27.710  33.146  18.872  0.00  0.00    -0.361 OA
HETATM   47  H   UNK     0      28.328  32.543  19.318  0.00  0.00     0.217 HD
ENDBRANCH  33  46
ENDBRANCH  22  23
ENDBRANCH   6  22
BRANCH   3  48
HETATM   48  O   UNK     0      18.439  35.493  24.173  0.00  0.00    -0.390 OA
HETATM   49  H   UNK     0      17.817  36.043  24.679  0.00  0.00     0.210 HD
ENDBRANCH   3  48
BRANCH   5  50
HETATM   50  O   UNK     0      21.815  38.648  25.457  0.00  0.00    -0.388 OA
HETATM   51  H   UNK     0      21.129  38.758  26.136  0.00  0.00     0.210 HD
ENDBRANCH   5  50
BRANCH   4  52
HETATM   52  O   UNK     0      18.929  38.196  25.071  0.00  0.00    -0.390 OA
HETATM   53  H   UNK     0      18.665  38.043  25.994  0.00  0.00     0.210 HD
ENDBRANCH   4  52
TORSDOF 16
ENDMDL
MODEL 8
REMARK VINA RESULT:      -7.9      2.795      5.372
REMARK  16 active torsions:
REMARK  status: ('A' for Active; 'I' for Inactive)
REMARK    1  A    between atoms: O_2  and  C_22 
REMARK    2  A    between atoms: O_2  and  C_26 
REMARK    3  A    between atoms: O_4  and  C_18 
REMARK    4  A    between atoms: O_5  and  C_19 
REMARK    5  A    between atoms: O_6  and  C_25 
REMARK    6  A    between atoms: O_6  and  C_29 
REMARK    7  A    between atoms: O_7  and  C_20 
REMARK    8  A    between atoms: O_8  and  C_21 
REMARK    9  A    between atoms: O_9  and  C_23 
REMARK   10  A    between atoms: O_10  and  C_24 
REMARK   11  A    between atoms: O_13  and  C_35 
REMARK   12  A    between atoms: O_14  and  C_40 
REMARK   13  A    between atoms: O_15  and  C_41 
REMARK   14  A    between atoms: O_16  and  C_43 
REMARK   15  A    between atoms: C_17  and  C_26 
REMARK   16  A    between atoms: C_30  and  C_33 
ROOT
HETATM    1  O   UNK     0      23.044  35.166  21.289  0.00  0.00    -0.348 OA
HETATM    2  C   UNK     0      22.840  34.084  20.378  0.00  0.00     0.180 C 
HETATM    3  C   UNK     0      23.981  33.072  20.507  0.00  0.00     0.180 C 
HETATM    4  C   UNK     0      25.335  33.749  20.290  0.00  0.00     0.183 C 
HETATM    5  C   UNK     0      25.464  35.013  21.141  0.00  0.00     0.205 C 
HETATM    6  C   UNK     0      24.230  35.904  21.003  0.00  0.00     0.298 C 
ENDROOT
BRANCH   2   7
HETATM    7  C   UNK     0      21.489  33.456  20.706  0.00  0.00     0.205 C 
BRANCH   7   8
HETATM    8  O   UNK     0      21.702  32.214  21.359  0.00  0.00    -0.356 OA
BRANCH   8   9
HETATM    9  C   UNK     0      21.628  32.349  22.774  0.00  0.00     0.291 C 
HETATM   10  O   UNK     0      22.308  31.294  23.460  0.00  0.00    -0.351 OA
HETATM   11  C   UNK     0      21.740  29.997  23.252  0.00  0.00     0.152 C 
HETATM   12  C   UNK     0      20.278  29.955  23.718  0.00  0.00     0.178 C 
HETATM   13  C   UNK     0      22.611  29.001  24.014  0.00  0.00     0.042 C 
HETATM   14  C   UNK     0      19.477  31.066  23.037  0.00  0.00     0.183 C 
HETATM   15  C   UNK     0      20.165  32.421  23.210  0.00  0.00     0.204 C 
BRANCH  12  16
HETATM   16  O   UNK     0      19.685  28.705  23.372  0.00  0.00    -0.390 OA
HETATM   17  H   UNK     0      20.002  28.039  24.005  0.00  0.00     0.210 HD
ENDBRANCH  12  16
BRANCH  14  18
HETATM   18  O   UNK     0      18.167  31.111  23.597  0.00  0.00    -0.390 OA
HETATM   19  H   UNK     0      18.191  31.713  24.361  0.00  0.00     0.210 HD
ENDBRANCH  14  18
BRANCH  15  20
HETATM   20  O   UNK     0      20.139  32.809  24.585  0.00  0.00    -0.388 OA
HETATM   21  H   UNK     0      20.886  33.410  24.748  0.00  0.00     0.210 HD
ENDBRANCH  15  20
ENDBRANCH   8   9
ENDBRANCH   7   8
ENDBRANCH   2   7
BRANCH   6  22
HETATM   22  O   UNK     0      24.360  36.983  21.929  0.00  0.00    -0.311 OA
BRANCH  22  23
HETATM   23  C   UNK     0      23.829  38.150  21.426  0.00  0.00     0.157 A 
HETATM   24  C   UNK     0      22.561  38.538  21.652  0.00  0.00     0.124 A 
HETATM   25  O   UNK     0      21.987  39.689  21.134  0.00  0.00    -0.306 OA
HETATM   26  C   UNK     0      22.758  40.510  20.353  0.00  0.00     0.096 A 
HETATM   27  C   UNK     0      24.088  40.231  20.048  0.00  0.00     0.084 A 
HETATM   28  C   UNK     0      22.154  41.666  19.855  0.00  0.00     0.075 A 
HETATM   29  C   UNK     0      24.699  39.005  20.583  0.00  0.00     0.223 A 
HETATM   30  C   UNK     0      24.826  41.105  19.244  0.00  0.00     0.085 A 
HETATM   31  O   UNK     0      25.862  38.706  20.344  0.00  0.00    -0.284 OA
HETATM   32  C   UNK     0      24.220  42.260  18.748  0.00  0.00     0.074 A 
HETATM   33  C   UNK     0      22.888  42.540  19.053  0.00  0.00     0.071 A 
BRANCH  24  34
HETATM   34  C   UNK     0      21.625  37.748  22.471  0.00  0.00     0.004 A 
HETATM   35  C   UNK     0      21.867  37.573  23.834  0.00  0.00     0.053 A 
HETATM   36  C   UNK     0      20.981  36.827  24.610  0.00  0.00     0.099 A 
HETATM   37  C   UNK     0      19.852  36.254  24.024  0.00  0.00     0.098 A 
HETATM   38  C   UNK     0      19.610  36.428  22.661  0.00  0.00     0.040 A 
HETATM   39  C   UNK     0      20.496  37.175  21.885  0.00  0.00     0.017 A 
BRANCH  36  40
HETATM   40  O   UNK     0      21.229  36.661  25.940  0.00  0.00    -0.358 OA
HETATM   41  H   UNK     0      20.819  37.385  26.441  0.00  0.00     0.217 HD
ENDBRANCH  36  40
BRANCH  37  42
HETATM   42  O   UNK     0      18.979  35.523  24.772  0.00  0.00    -0.358 OA
HETATM   43  H   UNK     0      18.826  34.663  24.350  0.00  0.00     0.217 HD
ENDBRANCH  37  42
ENDBRANCH  24  34
BRANCH  30  44
HETATM   44  O   UNK     0      26.128  40.880  18.916  0.00  0.00    -0.360 OA
HETATM   45  H   UNK     0      26.180  40.548  18.003  0.00  0.00     0.217 HD
ENDBRANCH  30  44
BRANCH  33  46
HETATM   46  O   UNK     0      22.301  43.668  18.566  0.00  0.00    -0.361 OA
HETATM   47  H   UNK     0      22.852  44.026  17.849  0.00  0.00     0.217 HD
ENDBRANCH  33  46
ENDBRANCH  22  23
ENDBRANCH   6  22
BRANCH   3  48
HETATM   48  O   UNK     0      23.810  32.042  19.537  0.00  0.00    -0.390 OA
HETATM   49  H   UNK     0      23.744  31.194  20.007  0.00  0.00     0.210 HD
ENDBRANCH   3  48
BRANCH   5  50
HETATM   50  O   UNK     0      26.604  35.757  20.715  0.00  0.00    -0.388 OA
HETATM   51  H   UNK     0      27.284  35.127  20.422  0.00  0.00     0.210 HD
ENDBRANCH   5  50
BRANCH   4  52
HETATM   52  O   UNK     0      26.357  32.822  20.659  0.00  0.00    -0.390 OA
HETATM   53  H   UNK     0      27.120  32.983  20.077  0.00  0.00     0.210 HD
ENDBRANCH   4  52
TORSDOF 16
ENDMDL
MODEL 9
REMARK VINA RESULT:      -7.8      3.871      8.672
REMARK  16 active torsions:
REMARK  status: ('A' for Active; 'I' for Inactive)
REMARK    1  A    between atoms: O_2  and  C_22 
REMARK    2  A    between atoms: O_2  and  C_26 
REMARK    3  A    between atoms: O_4  and  C_18 
REMARK    4  A    between atoms: O_5  and  C_19 
REMARK    5  A    between atoms: O_6  and  C_25 
REMARK    6  A    between atoms: O_6  and  C_29 
REMARK    7  A    between atoms: O_7  and  C_20 
REMARK    8  A    between atoms: O_8  and  C_21 
REMARK    9  A    between atoms: O_9  and  C_23 
REMARK   10  A    between atoms: O_10  and  C_24 
REMARK   11  A    between atoms: O_13  and  C_35 
REMARK   12  A    between atoms: O_14  and  C_40 
REMARK   13  A    between atoms: O_15  and  C_41 
REMARK   14  A    between atoms: O_16  and  C_43 
REMARK   15  A    between atoms: C_17  and  C_26 
REMARK   16  A    between atoms: C_30  and  C_33 
ROOT
HETATM    1  O   UNK     0      22.512  38.013  21.978  0.00  0.00    -0.348 OA
HETATM    2  C   UNK     0      22.354  38.647  20.707  0.00  0.00     0.180 C 
HETATM    3  C   UNK     0      20.906  39.110  20.531  0.00  0.00     0.180 C 
HETATM    4  C   UNK     0      19.937  37.940  20.707  0.00  0.00     0.183 C 
HETATM    5  C   UNK     0      20.238  37.159  21.986  0.00  0.00     0.205 C 
HETATM    6  C   UNK     0      21.726  36.829  22.099  0.00  0.00     0.298 C 
ENDROOT
BRANCH   2   7
HETATM    7  C   UNK     0      23.332  39.817  20.653  0.00  0.00     0.205 C 
BRANCH   7   8
HETATM    8  O   UNK     0      22.791  40.834  19.823  0.00  0.00    -0.356 OA
BRANCH   8   9
HETATM    9  C   UNK     0      22.614  42.051  20.540  0.00  0.00     0.291 C 
HETATM   10  O   UNK     0      21.279  42.557  20.434  0.00  0.00    -0.351 OA
HETATM   11  C   UNK     0      20.897  42.931  19.107  0.00  0.00     0.152 C 
HETATM   12  C   UNK     0      21.826  44.019  18.551  0.00  0.00     0.178 C 
HETATM   13  C   UNK     0      19.445  43.400  19.176  0.00  0.00     0.042 C 
HETATM   14  C   UNK     0      23.283  43.561  18.639  0.00  0.00     0.183 C 
HETATM   15  C   UNK     0      23.624  43.089  20.053  0.00  0.00     0.204 C 
BRANCH  12  16
HETATM   16  O   UNK     0      21.524  44.275  17.182  0.00  0.00    -0.390 OA
HETATM   17  H   UNK     0      21.101  43.480  16.816  0.00  0.00     0.210 HD
ENDBRANCH  12  16
BRANCH  14  18
HETATM   18  O   UNK     0      24.137  44.640  18.267  0.00  0.00    -0.390 OA
HETATM   19  H   UNK     0      23.578  45.355  17.916  0.00  0.00     0.210 HD
ENDBRANCH  14  18
BRANCH  15  20
HETATM   20  O   UNK     0      23.584  44.193  20.958  0.00  0.00    -0.388 OA
HETATM   21  H   UNK     0      22.924  44.001  21.647  0.00  0.00     0.210 HD
ENDBRANCH  15  20
ENDBRANCH   8   9
ENDBRANCH   7   8
ENDBRANCH   2   7
BRANCH   6  22
HETATM   22  O   UNK     0      21.949  36.233  23.376  0.00  0.00    -0.311 OA
BRANCH  22  23
HETATM   23  C   UNK     0      22.072  34.864  23.282  0.00  0.00     0.157 A 
HETATM   24  C   UNK     0      23.125  34.259  22.704  0.00  0.00     0.124 A 
HETATM   25  O   UNK     0      23.266  32.887  22.563  0.00  0.00    -0.306 OA
HETATM   26  C   UNK     0      22.280  32.075  23.061  0.00  0.00     0.096 A 
HETATM   27  C   UNK     0      21.140  32.570  23.691  0.00  0.00     0.084 A 
HETATM   28  C   UNK     0      22.454  30.698  22.914  0.00  0.00     0.075 A 
HETATM   29  C   UNK     0      20.980  34.026  23.831  0.00  0.00     0.223 A 
HETATM   30  C   UNK     0      20.166  31.694  24.179  0.00  0.00     0.085 A 
HETATM   31  O   UNK     0      19.998  34.518  24.370  0.00  0.00    -0.284 OA
HETATM   32  C   UNK     0      20.343  30.317  24.030  0.00  0.00     0.074 A 
HETATM   33  C   UNK     0      21.484  29.821  23.400  0.00  0.00     0.071 A 
BRANCH  24  34
HETATM   34  C   UNK     0      24.252  35.013  22.126  0.00  0.00     0.004 A 
HETATM   35  C   UNK     0      25.191  35.617  22.963  0.00  0.00     0.053 A 
HETATM   36  C   UNK     0      26.258  36.329  22.417  0.00  0.00     0.099 A 
HETATM   37  C   UNK     0      26.388  36.439  21.033  0.00  0.00     0.098 A 
HETATM   38  C   UNK     0      25.450  35.836  20.195  0.00  0.00     0.040 A 
HETATM   39  C   UNK     0      24.383  35.123  20.741  0.00  0.00     0.017 A 
BRANCH  36  40
HETATM   40  O   UNK     0      27.167  36.916  23.246  0.00  0.00    -0.358 OA
HETATM   41  H   UNK     0      27.676  36.231  23.709  0.00  0.00     0.217 HD
ENDBRANCH  36  40
BRANCH  37  42
HETATM   42  O   UNK     0      27.426  37.131  20.487  0.00  0.00    -0.358 OA
HETATM   43  H   UNK     0      27.311  37.191  19.526  0.00  0.00     0.217 HD
ENDBRANCH  37  42
ENDBRANCH  24  34
BRANCH  30  44
HETATM   44  O   UNK     0      19.035  32.126  24.801  0.00  0.00    -0.360 OA
HETATM   45  H   UNK     0      18.362  32.349  24.135  0.00  0.00     0.217 HD
ENDBRANCH  30  44
BRANCH  33  46
HETATM   46  O   UNK     0      21.652  28.478  23.257  0.00  0.00    -0.361 OA
HETATM   47  H   UNK     0      20.849  28.024  23.567  0.00  0.00     0.217 HD
ENDBRANCH  33  46
ENDBRANCH  22  23
ENDBRANCH   6  22
BRANCH   3  48
HETATM   48  O   UNK     0      20.743  39.664  19.228  0.00  0.00    -0.390 OA
HETATM   49  H   UNK     0      19.833  39.996  19.154  0.00  0.00     0.210 HD
ENDBRANCH   3  48
BRANCH   5  50
HETATM   50  O   UNK     0      19.507  35.934  21.977  0.00  0.00    -0.388 OA
HETATM   51  H   UNK     0      18.752  36.038  21.373  0.00  0.00     0.210 HD
ENDBRANCH   5  50
BRANCH   4  52
HETATM   52  O   UNK     0      18.612  38.471  20.773  0.00  0.00    -0.390 OA
HETATM   53  H   UNK     0      18.094  38.050  20.066  0.00  0.00     0.210 HD
ENDBRANCH   4  52
TORSDOF 16
ENDMDL
MODEL 10
REMARK VINA RESULT:      -7.7      9.798     13.147
REMARK  16 active torsions:
REMARK  status: ('A' for Active; 'I' for Inactive)
REMARK    1  A    between atoms: O_2  and  C_22 
REMARK    2  A    between atoms: O_2  and  C_26 
REMARK    3  A    between atoms: O_4  and  C_18 
REMARK    4  A    between atoms: O_5  and  C_19 
REMARK    5  A    between atoms: O_6  and  C_25 
REMARK    6  A    between atoms: O_6  and  C_29 
REMARK    7  A    between atoms: O_7  and  C_20 
REMARK    8  A    between atoms: O_8  and  C_21 
REMARK    9  A    between atoms: O_9  and  C_23 
REMARK   10  A    between atoms: O_10  and  C_24 
REMARK   11  A    between atoms: O_13  and  C_35 
REMARK   12  A    between atoms: O_14  and  C_40 
REMARK   13  A    between atoms: O_15  and  C_41 
REMARK   14  A    between atoms: O_16  and  C_43 
REMARK   15  A    between atoms: C_17  and  C_26 
REMARK   16  A    between atoms: C_30  and  C_33 
ROOT
HETATM    1  O   UNK     0      22.001  44.297  15.738  0.00  0.00    -0.348 OA
HETATM    2  C   UNK     0      22.851  43.386  16.438  0.00  0.00     0.180 C 
HETATM    3  C   UNK     0      24.317  43.695  16.126  0.00  0.00     0.180 C 
HETATM    4  C   UNK     0      24.569  43.663  14.618  0.00  0.00     0.183 C 
HETATM    5  C   UNK     0      23.536  44.502  13.866  0.00  0.00     0.205 C 
HETATM    6  C   UNK     0      22.114  44.173  14.322  0.00  0.00     0.298 C 
ENDROOT
BRANCH   2   7
HETATM    7  C   UNK     0      22.548  43.526  17.926  0.00  0.00     0.205 C 
BRANCH   7   8
HETATM    8  O   UNK     0      22.591  42.242  18.531  0.00  0.00    -0.356 OA
BRANCH   8   9
HETATM    9  C   UNK     0      23.314  42.268  19.757  0.00  0.00     0.291 C 
HETATM   10  O   UNK     0      24.625  41.709  19.628  0.00  0.00    -0.351 OA
HETATM   11  C   UNK     0      24.639  40.316  19.300  0.00  0.00     0.152 C 
HETATM   12  C   UNK     0      23.910  39.490  20.368  0.00  0.00     0.178 C 
HETATM   13  C   UNK     0      26.103  39.905  19.161  0.00  0.00     0.042 C 
HETATM   14  C   UNK     0      22.496  40.032  20.577  0.00  0.00     0.183 C 
HETATM   15  C   UNK     0      22.520  41.539  20.840  0.00  0.00     0.204 C 
BRANCH  12  16
HETATM   16  O   UNK     0      23.806  38.129  19.955  0.00  0.00    -0.390 OA
HETATM   17  H   UNK     0      24.289  37.584  20.599  0.00  0.00     0.210 HD
ENDBRANCH  12  16
BRANCH  14  18
HETATM   18  O   UNK     0      21.891  39.357  21.678  0.00  0.00    -0.390 OA
HETATM   19  H   UNK     0      21.344  38.637  21.320  0.00  0.00     0.210 HD
ENDBRANCH  14  18
BRANCH  15  20
HETATM   20  O   UNK     0      23.151  41.805  22.094  0.00  0.00    -0.388 OA
HETATM   21  H   UNK     0      22.613  42.457  22.575  0.00  0.00     0.210 HD
ENDBRANCH  15  20
ENDBRANCH   8   9
ENDBRANCH   7   8
ENDBRANCH   2   7
BRANCH   6  22
HETATM   22  O   UNK     0      21.225  45.089  13.686  0.00  0.00    -0.311 OA
BRANCH  22  23
HETATM   23  C   UNK     0      20.065  44.468  13.277  0.00  0.00     0.157 A 
HETATM   24  C   UNK     0      18.940  44.453  14.014  0.00  0.00     0.124 A 
HETATM   25  O   UNK     0      17.767  43.811  13.648  0.00  0.00    -0.306 OA
HETATM   26  C   UNK     0      17.729  43.158  12.443  0.00  0.00     0.096 A 
HETATM   27  C   UNK     0      18.819  43.104  11.578  0.00  0.00     0.084 A 
HETATM   28  C   UNK     0      16.531  42.530  12.097  0.00  0.00     0.075 A 
HETATM   29  C   UNK     0      20.071  43.772  11.968  0.00  0.00     0.223 A 
HETATM   30  C   UNK     0      18.723  42.422  10.362  0.00  0.00     0.085 A 
HETATM   31  O   UNK     0      21.063  43.753  11.252  0.00  0.00    -0.284 OA
HETATM   32  C   UNK     0      17.524  41.795  10.018  0.00  0.00     0.074 A 
HETATM   33  C   UNK     0      16.431  41.849  10.883  0.00  0.00     0.071 A 
BRANCH  24  34
HETATM   34  C   UNK     0      18.846  45.113  15.329  0.00  0.00     0.004 A 
HETATM   35  C   UNK     0      18.905  46.504  15.418  0.00  0.00     0.053 A 
HETATM   36  C   UNK     0      18.814  47.129  16.661  0.00  0.00     0.099 A 
HETATM   37  C   UNK     0      18.666  46.363  17.817  0.00  0.00     0.098 A 
HETATM   38  C   UNK     0      18.608  44.972  17.729  0.00  0.00     0.040 A 
HETATM   39  C   UNK     0      18.697  44.348  16.486  0.00  0.00     0.017 A 
BRANCH  36  40
HETATM   40  O   UNK     0      18.875  48.488  16.735  0.00  0.00    -0.358 OA
HETATM   41  H   UNK     0      19.800  48.777  16.676  0.00  0.00     0.217 HD
ENDBRANCH  36  40
BRANCH  37  42
HETATM   42  O   UNK     0      18.576  46.962  19.037  0.00  0.00    -0.358 OA
HETATM   43  H   UNK     0      18.713  46.303  19.736  0.00  0.00     0.217 HD
ENDBRANCH  37  42
ENDBRANCH  24  34
BRANCH  30  44
HETATM   44  O   UNK     0      19.758  42.338   9.482  0.00  0.00    -0.360 OA
HETATM   45  H   UNK     0      19.414  42.352   8.572  0.00  0.00     0.217 HD
ENDBRANCH  30  44
BRANCH  33  46
HETATM   46  O   UNK     0      15.264  41.236  10.544  0.00  0.00    -0.361 OA
HETATM   47  H   UNK     0      15.411  40.275  10.510  0.00  0.00     0.217 HD
ENDBRANCH  33  46
ENDBRANCH  22  23
ENDBRANCH   6  22
BRANCH   3  48
HETATM   48  O   UNK     0      25.148  42.728  16.763  0.00  0.00    -0.390 OA
HETATM   49  H   UNK     0      25.761  43.199  17.351  0.00  0.00     0.210 HD
ENDBRANCH   3  48
BRANCH   5  50
HETATM   50  O   UNK     0      23.632  44.231  12.468  0.00  0.00    -0.388 OA
HETATM   51  H   UNK     0      23.376  45.036  11.987  0.00  0.00     0.210 HD
ENDBRANCH   5  50
BRANCH   4  52
HETATM   52  O   UNK     0      25.875  44.191  14.378  0.00  0.00    -0.390 OA
HETATM   53  H   UNK     0      25.852  44.646  13.519  0.00  0.00     0.210 HD
ENDBRANCH   4  52
TORSDOF 16
ENDMDL
