REMARK VINA RESULT:      -8.3      2.094      5.281
REMARK  16 active torsions:
REMARK  status: ('A' for Active; 'I' for Inactive)
REMARK    1  A    between atoms: O_2  and  C_22 
REMARK    2  A    between atoms: O_2  and  C_26 
REMARK    3  A    between atoms: O_4  and  C_18 
REMARK    4  A    between atoms: O_5  and  C_19 
REMARK    5  A    between atoms: O_6  and  C_25 
REMARK    6  A    between atoms: O_6  and  C_29 
REMARK    7  A    between atoms: O_7  and  C_20 
REMARK    8  A    between atoms: O_8  and  C_21 
REMARK    9  A    between atoms: O_9  and  C_23 
REMARK   10  A    between atoms: O_10  and  C_24 
REMARK   11  A    between atoms: O_13  and  C_35 
REMARK   12  A    between atoms: O_14  and  C_40 
REMARK   13  A    between atoms: O_15  and  C_41 
REMARK   14  A    between atoms: O_16  and  C_43 
REMARK   15  A    between atoms: C_17  and  C_26 
REMARK   16  A    between atoms: C_30  and  C_33 
ROOT
HETATM    1  O   UNK     0      23.153  32.883  20.702  0.00  0.00    -0.348 OA
HETATM    2  C   UNK     0      23.475  33.252  19.359  0.00  0.00     0.180 C 
HETATM    3  C   UNK     0      24.992  33.222  19.159  0.00  0.00     0.180 C 
HETATM    4  C   UNK     0      25.692  34.121  20.178  0.00  0.00     0.183 C 
HETATM    5  C   UNK     0      25.200  33.837  21.597  0.00  0.00     0.205 C 
HETATM    6  C   UNK     0      23.673  33.802  21.660  0.00  0.00     0.298 C 
ENDROOT
BRANCH   2   7
HETATM    7  C   UNK     0      22.762  32.273  18.431  0.00  0.00     0.205 C 
BRANCH   7   8
HETATM    8  O   UNK     0      22.677  31.009  19.071  0.00  0.00    -0.356 OA
BRANCH   8   9
HETATM    9  C   UNK     0      23.311  29.992  18.301  0.00  0.00     0.291 C 
HETATM   10  O   UNK     0      22.471  28.850  18.109  0.00  0.00    -0.351 OA
HETATM   11  C   UNK     0      22.142  28.153  19.315  0.00  0.00     0.152 C 
HETATM   12  C   UNK     0      23.408  27.655  20.026  0.00  0.00     0.178 C 
HETATM   13  C   UNK     0      21.215  27.004  18.928  0.00  0.00     0.042 C 
HETATM   14  C   UNK     0      24.372  28.819  20.261  0.00  0.00     0.183 C 
HETATM   15  C   UNK     0      24.627  29.589  18.963  0.00  0.00     0.204 C 
BRANCH  12  16
HETATM   16  O   UNK     0      23.074  27.093  21.293  0.00  0.00    -0.390 OA
HETATM   17  H   UNK     0      23.374  27.711  21.982  0.00  0.00     0.210 HD
ENDBRANCH  12  16
BRANCH  14  18
HETATM   18  O   UNK     0      25.601  28.315  20.776  0.00  0.00    -0.390 OA
HETATM   19  H   UNK     0      25.426  27.436  21.155  0.00  0.00     0.210 HD
ENDBRANCH  14  18
BRANCH  15  20
HETATM   20  O   UNK     0      25.343  28.765  18.042  0.00  0.00    -0.388 OA
HETATM   21  H   UNK     0      26.261  29.083  17.995  0.00  0.00     0.210 HD
ENDBRANCH  15  20
ENDBRANCH   8   9
ENDBRANCH   7   8
ENDBRANCH   2   7
BRANCH   6  22
HETATM   22  O   UNK     0      23.296  33.392  22.974  0.00  0.00    -0.311 OA
BRANCH  22  23
HETATM   23  C   UNK     0      22.094  33.948  23.354  0.00  0.00     0.157 A 
HETATM   24  C   UNK     0      20.964  33.232  23.488  0.00  0.00     0.124 A 
HETATM   25  O   UNK     0      19.732  33.765  23.836  0.00  0.00    -0.306 OA
HETATM   26  C   UNK     0      19.648  35.111  24.083  0.00  0.00     0.096 A 
HETATM   27  C   UNK     0      20.744  35.966  23.989  0.00  0.00     0.084 A 
HETATM   28  C   UNK     0      18.397  35.616  24.441  0.00  0.00     0.075 A 
HETATM   29  C   UNK     0      22.051  35.408  23.607  0.00  0.00     0.223 A 
HETATM   30  C   UNK     0      20.599  37.331  24.251  0.00  0.00     0.085 A 
HETATM   31  O   UNK     0      23.047  36.111  23.503  0.00  0.00    -0.284 OA
HETATM   32  C   UNK     0      19.347  37.833  24.609  0.00  0.00     0.074 A 
HETATM   33  C   UNK     0      18.249  36.978  24.704  0.00  0.00     0.071 A 
BRANCH  24  34
HETATM   34  C   UNK     0      20.913  31.778  23.250  0.00  0.00     0.004 A 
HETATM   35  C   UNK     0      22.003  30.977  23.594  0.00  0.00     0.053 A 
HETATM   36  C   UNK     0      21.955  29.601  23.370  0.00  0.00     0.099 A 
HETATM   37  C   UNK     0      20.818  29.026  22.802  0.00  0.00     0.098 A 
HETATM   38  C   UNK     0      19.729  29.827  22.458  0.00  0.00     0.040 A 
HETATM   39  C   UNK     0      19.777  31.202  22.683  0.00  0.00     0.017 A 
BRANCH  36  40
HETATM   40  O   UNK     0      23.026  28.829  23.708  0.00  0.00    -0.358 OA
HETATM   41  H   UNK     0      23.812  29.131  23.225  0.00  0.00     0.217 HD
ENDBRANCH  36  40
BRANCH  37  42
HETATM   42  O   UNK     0      20.760  27.683  22.580  0.00  0.00    -0.358 OA
HETATM   43  H   UNK     0      20.074  27.490  21.922  0.00  0.00     0.217 HD
ENDBRANCH  37  42
ENDBRANCH  24  34
BRANCH  30  44
HETATM   44  O   UNK     0      21.636  38.208  24.173  0.00  0.00    -0.360 OA
HETATM   45  H   UNK     0      21.342  39.088  24.468  0.00  0.00     0.217 HD
ENDBRANCH  30  44
BRANCH  33  46
HETATM   46  O   UNK     0      17.030  37.473  25.054  0.00  0.00    -0.361 OA
HETATM   47  H   UNK     0      16.911  37.371  26.013  0.00  0.00     0.217 HD
ENDBRANCH  33  46
ENDBRANCH  22  23
ENDBRANCH   6  22
BRANCH   3  48
HETATM   48  O   UNK     0      25.302  33.672  17.843  0.00  0.00    -0.390 OA
HETATM   49  H   UNK     0      25.234  34.641  17.832  0.00  0.00     0.210 HD
ENDBRANCH   3  48
BRANCH   5  50
HETATM   50  O   UNK     0      25.662  34.864  22.474  0.00  0.00    -0.388 OA
HETATM   51  H   UNK     0      24.914  35.454  22.667  0.00  0.00     0.210 HD
ENDBRANCH   5  50
BRANCH   4  52
HETATM   52  O   UNK     0      27.096  33.866  20.101  0.00  0.00    -0.390 OA
HETATM   53  H   UNK     0      27.394  34.146  19.219  0.00  0.00     0.210 HD
ENDBRANCH   4  52
TORSDOF 16
