REMARK VINA RESULT:      -8.4      3.156      8.334
REMARK  16 active torsions:
REMARK  status: ('A' for Active; 'I' for Inactive)
REMARK    1  A    between atoms: O_2  and  C_22 
REMARK    2  A    between atoms: O_2  and  C_26 
REMARK    3  A    between atoms: O_4  and  C_18 
REMARK    4  A    between atoms: O_5  and  C_19 
REMARK    5  A    between atoms: O_6  and  C_25 
REMARK    6  A    between atoms: O_6  and  C_29 
REMARK    7  A    between atoms: O_7  and  C_20 
REMARK    8  A    between atoms: O_8  and  C_21 
REMARK    9  A    between atoms: O_9  and  C_23 
REMARK   10  A    between atoms: O_10  and  C_24 
REMARK   11  A    between atoms: O_13  and  C_35 
REMARK   12  A    between atoms: O_14  and  C_40 
REMARK   13  A    between atoms: O_15  and  C_41 
REMARK   14  A    between atoms: O_16  and  C_43 
REMARK   15  A    between atoms: C_17  and  C_26 
REMARK   16  A    between atoms: C_30  and  C_33 
ROOT
HETATM    1  O   UNK     0      21.361  36.463  22.031  0.00  0.00    -0.348 OA
HETATM    2  C   UNK     0      20.665  37.220  21.040  0.00  0.00     0.180 C 
HETATM    3  C   UNK     0      19.732  38.229  21.715  0.00  0.00     0.180 C 
HETATM    4  C   UNK     0      18.769  37.523  22.670  0.00  0.00     0.183 C 
HETATM    5  C   UNK     0      19.516  36.574  23.608  0.00  0.00     0.205 C 
HETATM    6  C   UNK     0      20.484  35.677  22.835  0.00  0.00     0.298 C 
ENDROOT
BRANCH   2   7
HETATM    7  C   UNK     0      21.711  37.912  20.172  0.00  0.00     0.205 C 
BRANCH   7   8
HETATM    8  O   UNK     0      21.959  39.209  20.691  0.00  0.00    -0.356 OA
BRANCH   8   9
HETATM    9  C   UNK     0      22.669  40.017  19.758  0.00  0.00     0.291 C 
HETATM   10  O   UNK     0      23.321  41.127  20.382  0.00  0.00    -0.351 OA
HETATM   11  C   UNK     0      22.427  42.073  20.978  0.00  0.00     0.152 C 
HETATM   12  C   UNK     0      21.464  42.655  19.934  0.00  0.00     0.178 C 
HETATM   13  C   UNK     0      23.288  43.153  21.627  0.00  0.00     0.042 C 
HETATM   14  C   UNK     0      20.731  41.527  19.208  0.00  0.00     0.183 C 
HETATM   15  C   UNK     0      21.719  40.495  18.661  0.00  0.00     0.204 C 
BRANCH  12  16
HETATM   16  O   UNK     0      20.490  43.482  20.568  0.00  0.00    -0.390 OA
HETATM   17  H   UNK     0      20.745  43.583  21.500  0.00  0.00     0.210 HD
ENDBRANCH  12  16
BRANCH  14  18
HETATM   18  O   UNK     0      19.963  42.078  18.140  0.00  0.00    -0.390 OA
HETATM   19  H   UNK     0      19.943  41.422  17.421  0.00  0.00     0.210 HD
ENDBRANCH  14  18
BRANCH  15  20
HETATM   20  O   UNK     0      22.510  41.079  17.624  0.00  0.00    -0.388 OA
HETATM   21  H   UNK     0      22.388  40.555  16.814  0.00  0.00     0.210 HD
ENDBRANCH  15  20
ENDBRANCH   8   9
ENDBRANCH   7   8
ENDBRANCH   2   7
BRANCH   6  22
HETATM   22  O   UNK     0      21.242  34.928  23.784  0.00  0.00    -0.311 OA
BRANCH  22  23
HETATM   23  C   UNK     0      21.342  33.603  23.421  0.00  0.00     0.157 A 
HETATM   24  C   UNK     0      22.395  33.102  22.750  0.00  0.00     0.124 A 
HETATM   25  O   UNK     0      22.512  31.783  22.341  0.00  0.00    -0.306 OA
HETATM   26  C   UNK     0      21.501  30.910  22.652  0.00  0.00     0.096 A 
HETATM   27  C   UNK     0      20.359  31.295  23.350  0.00  0.00     0.084 A 
HETATM   28  C   UNK     0      21.652  29.587  22.235  0.00  0.00     0.075 A 
HETATM   29  C   UNK     0      20.222  32.697  23.774  0.00  0.00     0.223 A 
HETATM   30  C   UNK     0      19.359  30.361  23.637  0.00  0.00     0.085 A 
HETATM   31  O   UNK     0      19.239  33.094  24.385  0.00  0.00    -0.284 OA
HETATM   32  C   UNK     0      19.513  29.038  23.220  0.00  0.00     0.074 A 
HETATM   33  C   UNK     0      20.657  28.652  22.521  0.00  0.00     0.071 A 
BRANCH  24  34
HETATM   34  C   UNK     0      23.547  33.931  22.353  0.00  0.00     0.004 A 
HETATM   35  C   UNK     0      24.424  34.418  23.322  0.00  0.00     0.053 A 
HETATM   36  C   UNK     0      25.515  35.201  22.946  0.00  0.00     0.099 A 
HETATM   37  C   UNK     0      25.730  35.497  21.600  0.00  0.00     0.098 A 
HETATM   38  C   UNK     0      24.853  35.010  20.631  0.00  0.00     0.040 A 
HETATM   39  C   UNK     0      23.763  34.227  21.007  0.00  0.00     0.017 A 
BRANCH  36  40
HETATM   40  O   UNK     0      26.363  35.673  23.903  0.00  0.00    -0.358 OA
HETATM   41  H   UNK     0      26.301  35.118  24.697  0.00  0.00     0.217 HD
ENDBRANCH  36  40
BRANCH  37  42
HETATM   42  O   UNK     0      26.793  36.260  21.221  0.00  0.00    -0.358 OA
HETATM   43  H   UNK     0      26.570  37.200  21.311  0.00  0.00     0.217 HD
ENDBRANCH  37  42
ENDBRANCH  24  34
BRANCH  30  44
HETATM   44  O   UNK     0      18.224  30.685  24.315  0.00  0.00    -0.360 OA
HETATM   45  H   UNK     0      18.457  31.024  25.197  0.00  0.00     0.217 HD
ENDBRANCH  30  44
BRANCH  33  46
HETATM   46  O   UNK     0      20.802  27.360  22.116  0.00  0.00    -0.361 OA
HETATM   47  H   UNK     0      21.750  27.145  22.081  0.00  0.00     0.217 HD
ENDBRANCH  33  46
ENDBRANCH  22  23
ENDBRANCH   6  22
BRANCH   3  48
HETATM   48  O   UNK     0      18.983  38.918  20.717  0.00  0.00    -0.390 OA
HETATM   49  H   UNK     0      18.888  39.844  20.998  0.00  0.00     0.210 HD
ENDBRANCH   3  48
BRANCH   5  50
HETATM   50  O   UNK     0      18.577  35.741  24.286  0.00  0.00    -0.388 OA
HETATM   51  H   UNK     0      17.845  35.552  23.675  0.00  0.00     0.210 HD
ENDBRANCH   5  50
BRANCH   4  52
HETATM   52  O   UNK     0      18.099  38.523  23.440  0.00  0.00    -0.390 OA
HETATM   53  H   UNK     0      17.897  38.134  24.308  0.00  0.00     0.210 HD
ENDBRANCH   4  52
TORSDOF 16
