REMARK VINA RESULT:      -7.9      2.795      5.372
REMARK  16 active torsions:
REMARK  status: ('A' for Active; 'I' for Inactive)
REMARK    1  A    between atoms: O_2  and  C_22 
REMARK    2  A    between atoms: O_2  and  C_26 
REMARK    3  A    between atoms: O_4  and  C_18 
REMARK    4  A    between atoms: O_5  and  C_19 
REMARK    5  A    between atoms: O_6  and  C_25 
REMARK    6  A    between atoms: O_6  and  C_29 
REMARK    7  A    between atoms: O_7  and  C_20 
REMARK    8  A    between atoms: O_8  and  C_21 
REMARK    9  A    between atoms: O_9  and  C_23 
REMARK   10  A    between atoms: O_10  and  C_24 
REMARK   11  A    between atoms: O_13  and  C_35 
REMARK   12  A    between atoms: O_14  and  C_40 
REMARK   13  A    between atoms: O_15  and  C_41 
REMARK   14  A    between atoms: O_16  and  C_43 
REMARK   15  A    between atoms: C_17  and  C_26 
REMARK   16  A    between atoms: C_30  and  C_33 
ROOT
HETATM    1  O   UNK     0      23.044  35.166  21.289  0.00  0.00    -0.348 OA
HETATM    2  C   UNK     0      22.840  34.084  20.378  0.00  0.00     0.180 C 
HETATM    3  C   UNK     0      23.981  33.072  20.507  0.00  0.00     0.180 C 
HETATM    4  C   UNK     0      25.335  33.749  20.290  0.00  0.00     0.183 C 
HETATM    5  C   UNK     0      25.464  35.013  21.141  0.00  0.00     0.205 C 
HETATM    6  C   UNK     0      24.230  35.904  21.003  0.00  0.00     0.298 C 
ENDROOT
BRANCH   2   7
HETATM    7  C   UNK     0      21.489  33.456  20.706  0.00  0.00     0.205 C 
BRANCH   7   8
HETATM    8  O   UNK     0      21.702  32.214  21.359  0.00  0.00    -0.356 OA
BRANCH   8   9
HETATM    9  C   UNK     0      21.628  32.349  22.774  0.00  0.00     0.291 C 
HETATM   10  O   UNK     0      22.308  31.294  23.460  0.00  0.00    -0.351 OA
HETATM   11  C   UNK     0      21.740  29.997  23.252  0.00  0.00     0.152 C 
HETATM   12  C   UNK     0      20.278  29.955  23.718  0.00  0.00     0.178 C 
HETATM   13  C   UNK     0      22.611  29.001  24.014  0.00  0.00     0.042 C 
HETATM   14  C   UNK     0      19.477  31.066  23.037  0.00  0.00     0.183 C 
HETATM   15  C   UNK     0      20.165  32.421  23.210  0.00  0.00     0.204 C 
BRANCH  12  16
HETATM   16  O   UNK     0      19.685  28.705  23.372  0.00  0.00    -0.390 OA
HETATM   17  H   UNK     0      20.002  28.039  24.005  0.00  0.00     0.210 HD
ENDBRANCH  12  16
BRANCH  14  18
HETATM   18  O   UNK     0      18.167  31.111  23.597  0.00  0.00    -0.390 OA
HETATM   19  H   UNK     0      18.191  31.713  24.361  0.00  0.00     0.210 HD
ENDBRANCH  14  18
BRANCH  15  20
HETATM   20  O   UNK     0      20.139  32.809  24.585  0.00  0.00    -0.388 OA
HETATM   21  H   UNK     0      20.886  33.410  24.748  0.00  0.00     0.210 HD
ENDBRANCH  15  20
ENDBRANCH   8   9
ENDBRANCH   7   8
ENDBRANCH   2   7
BRANCH   6  22
HETATM   22  O   UNK     0      24.360  36.983  21.929  0.00  0.00    -0.311 OA
BRANCH  22  23
HETATM   23  C   UNK     0      23.829  38.150  21.426  0.00  0.00     0.157 A 
HETATM   24  C   UNK     0      22.561  38.538  21.652  0.00  0.00     0.124 A 
HETATM   25  O   UNK     0      21.987  39.689  21.134  0.00  0.00    -0.306 OA
HETATM   26  C   UNK     0      22.758  40.510  20.353  0.00  0.00     0.096 A 
HETATM   27  C   UNK     0      24.088  40.231  20.048  0.00  0.00     0.084 A 
HETATM   28  C   UNK     0      22.154  41.666  19.855  0.00  0.00     0.075 A 
HETATM   29  C   UNK     0      24.699  39.005  20.583  0.00  0.00     0.223 A 
HETATM   30  C   UNK     0      24.826  41.105  19.244  0.00  0.00     0.085 A 
HETATM   31  O   UNK     0      25.862  38.706  20.344  0.00  0.00    -0.284 OA
HETATM   32  C   UNK     0      24.220  42.260  18.748  0.00  0.00     0.074 A 
HETATM   33  C   UNK     0      22.888  42.540  19.053  0.00  0.00     0.071 A 
BRANCH  24  34
HETATM   34  C   UNK     0      21.625  37.748  22.471  0.00  0.00     0.004 A 
HETATM   35  C   UNK     0      21.867  37.573  23.834  0.00  0.00     0.053 A 
HETATM   36  C   UNK     0      20.981  36.827  24.610  0.00  0.00     0.099 A 
HETATM   37  C   UNK     0      19.852  36.254  24.024  0.00  0.00     0.098 A 
HETATM   38  C   UNK     0      19.610  36.428  22.661  0.00  0.00     0.040 A 
HETATM   39  C   UNK     0      20.496  37.175  21.885  0.00  0.00     0.017 A 
BRANCH  36  40
HETATM   40  O   UNK     0      21.229  36.661  25.940  0.00  0.00    -0.358 OA
HETATM   41  H   UNK     0      20.819  37.385  26.441  0.00  0.00     0.217 HD
ENDBRANCH  36  40
BRANCH  37  42
HETATM   42  O   UNK     0      18.979  35.523  24.772  0.00  0.00    -0.358 OA
HETATM   43  H   UNK     0      18.826  34.663  24.350  0.00  0.00     0.217 HD
ENDBRANCH  37  42
ENDBRANCH  24  34
BRANCH  30  44
HETATM   44  O   UNK     0      26.128  40.880  18.916  0.00  0.00    -0.360 OA
HETATM   45  H   UNK     0      26.180  40.548  18.003  0.00  0.00     0.217 HD
ENDBRANCH  30  44
BRANCH  33  46
HETATM   46  O   UNK     0      22.301  43.668  18.566  0.00  0.00    -0.361 OA
HETATM   47  H   UNK     0      22.852  44.026  17.849  0.00  0.00     0.217 HD
ENDBRANCH  33  46
ENDBRANCH  22  23
ENDBRANCH   6  22
BRANCH   3  48
HETATM   48  O   UNK     0      23.810  32.042  19.537  0.00  0.00    -0.390 OA
HETATM   49  H   UNK     0      23.744  31.194  20.007  0.00  0.00     0.210 HD
ENDBRANCH   3  48
BRANCH   5  50
HETATM   50  O   UNK     0      26.604  35.757  20.715  0.00  0.00    -0.388 OA
HETATM   51  H   UNK     0      27.284  35.127  20.422  0.00  0.00     0.210 HD
ENDBRANCH   5  50
BRANCH   4  52
HETATM   52  O   UNK     0      26.357  32.822  20.659  0.00  0.00    -0.390 OA
HETATM   53  H   UNK     0      27.120  32.983  20.077  0.00  0.00     0.210 HD
ENDBRANCH   4  52
TORSDOF 16
