REMARK VINA RESULT:      -8.5      2.704      8.077
REMARK  16 active torsions:
REMARK  status: ('A' for Active; 'I' for Inactive)
REMARK    1  A    between atoms: O_2  and  C_22 
REMARK    2  A    between atoms: O_2  and  C_26 
REMARK    3  A    between atoms: O_4  and  C_18 
REMARK    4  A    between atoms: O_5  and  C_19 
REMARK    5  A    between atoms: O_6  and  C_25 
REMARK    6  A    between atoms: O_6  and  C_29 
REMARK    7  A    between atoms: O_7  and  C_20 
REMARK    8  A    between atoms: O_8  and  C_21 
REMARK    9  A    between atoms: O_9  and  C_23 
REMARK   10  A    between atoms: O_10  and  C_24 
REMARK   11  A    between atoms: O_13  and  C_35 
REMARK   12  A    between atoms: O_14  and  C_40 
REMARK   13  A    between atoms: O_15  and  C_41 
REMARK   14  A    between atoms: O_16  and  C_43 
REMARK   15  A    between atoms: C_17  and  C_26 
REMARK   16  A    between atoms: C_30  and  C_33 
ROOT
HETATM    1  O   UNK     0      21.024  36.409  22.185  0.00  0.00    -0.348 OA
HETATM    2  C   UNK     0      20.189  37.153  21.296  0.00  0.00     0.180 C 
HETATM    3  C   UNK     0      19.325  38.135  22.091  0.00  0.00     0.180 C 
HETATM    4  C   UNK     0      18.509  37.401  23.155  0.00  0.00     0.183 C 
HETATM    5  C   UNK     0      19.392  36.467  23.983  0.00  0.00     0.205 C 
HETATM    6  C   UNK     0      20.275  35.598  23.088  0.00  0.00     0.298 C 
ENDROOT
BRANCH   2   7
HETATM    7  C   UNK     0      21.100  37.874  20.307  0.00  0.00     0.205 C 
BRANCH   7   8
HETATM    8  O   UNK     0      21.435  39.150  20.832  0.00  0.00    -0.356 OA
BRANCH   8   9
HETATM    9  C   UNK     0      22.825  39.241  21.129  0.00  0.00     0.291 C 
HETATM   10  O   UNK     0      23.148  40.425  21.865  0.00  0.00    -0.351 OA
HETATM   11  C   UNK     0      22.913  41.642  21.151  0.00  0.00     0.152 C 
HETATM   12  C   UNK     0      23.735  41.689  19.855  0.00  0.00     0.178 C 
HETATM   13  C   UNK     0      23.267  42.790  22.094  0.00  0.00     0.042 C 
HETATM   14  C   UNK     0      23.455  40.446  19.010  0.00  0.00     0.183 C 
HETATM   15  C   UNK     0      23.635  39.171  19.836  0.00  0.00     0.204 C 
BRANCH  12  16
HETATM   16  O   UNK     0      23.380  42.837  19.086  0.00  0.00    -0.390 OA
HETATM   17  H   UNK     0      24.082  43.500  19.198  0.00  0.00     0.210 HD
ENDBRANCH  12  16
BRANCH  14  18
HETATM   18  O   UNK     0      24.340  40.429  17.892  0.00  0.00    -0.390 OA
HETATM   19  H   UNK     0      24.333  41.318  17.495  0.00  0.00     0.210 HD
ENDBRANCH  14  18
BRANCH  15  20
HETATM   20  O   UNK     0      25.009  39.011  20.191  0.00  0.00    -0.388 OA
HETATM   21  H   UNK     0      25.073  38.981  21.162  0.00  0.00     0.210 HD
ENDBRANCH  15  20
ENDBRANCH   8   9
ENDBRANCH   7   8
ENDBRANCH   2   7
BRANCH   6  22
HETATM   22  O   UNK     0      21.165  34.863  23.927  0.00  0.00    -0.311 OA
BRANCH  22  23
HETATM   23  C   UNK     0      21.327  33.569  23.485  0.00  0.00     0.157 A 
HETATM   24  C   UNK     0      22.383  33.169  22.754  0.00  0.00     0.124 A 
HETATM   25  O   UNK     0      22.561  31.883  22.266  0.00  0.00    -0.306 OA
HETATM   26  C   UNK     0      21.612  30.937  22.556  0.00  0.00     0.096 A 
HETATM   27  C   UNK     0      20.474  31.215  23.310  0.00  0.00     0.084 A 
HETATM   28  C   UNK     0      21.824  29.650  22.059  0.00  0.00     0.075 A 
HETATM   29  C   UNK     0      20.274  32.581  23.819  0.00  0.00     0.223 A 
HETATM   30  C   UNK     0      19.539  30.210  23.573  0.00  0.00     0.085 A 
HETATM   31  O   UNK     0      19.291  32.885  24.482  0.00  0.00    -0.284 OA
HETATM   32  C   UNK     0      19.753  28.924  23.075  0.00  0.00     0.074 A 
HETATM   33  C   UNK     0      20.893  28.645  22.321  0.00  0.00     0.071 A 
BRANCH  24  34
HETATM   34  C   UNK     0      23.473  34.084  22.370  0.00  0.00     0.004 A 
HETATM   35  C   UNK     0      24.419  34.479  23.316  0.00  0.00     0.053 A 
HETATM   36  C   UNK     0      25.452  35.343  22.952  0.00  0.00     0.099 A 
HETATM   37  C   UNK     0      25.537  35.815  21.643  0.00  0.00     0.098 A 
HETATM   38  C   UNK     0      24.591  35.421  20.697  0.00  0.00     0.040 A 
HETATM   39  C   UNK     0      23.560  34.556  21.060  0.00  0.00     0.017 A 
BRANCH  36  40
HETATM   40  O   UNK     0      26.369  35.723  23.886  0.00  0.00    -0.358 OA
HETATM   41  H   UNK     0      26.559  34.978  24.479  0.00  0.00     0.217 HD
ENDBRANCH  36  40
BRANCH  37  42
HETATM   42  O   UNK     0      26.541  36.659  21.275  0.00  0.00    -0.358 OA
HETATM   43  H   UNK     0      26.469  36.862  20.330  0.00  0.00     0.217 HD
ENDBRANCH  37  42
ENDBRANCH  24  34
BRANCH  30  44
HETATM   44  O   UNK     0      18.411  30.429  24.303  0.00  0.00    -0.360 OA
HETATM   45  H   UNK     0      18.635  30.448  25.250  0.00  0.00     0.217 HD
ENDBRANCH  30  44
BRANCH  33  46
HETATM   46  O   UNK     0      21.097  27.389  21.837  0.00  0.00    -0.361 OA
HETATM   47  H   UNK     0      20.795  26.743  22.498  0.00  0.00     0.217 HD
ENDBRANCH  33  46
ENDBRANCH  22  23
ENDBRANCH   6  22
BRANCH   3  48
HETATM   48  O   UNK     0      18.440  38.810  21.202  0.00  0.00    -0.390 OA
HETATM   49  H   UNK     0      18.902  38.938  20.356  0.00  0.00     0.210 HD
ENDBRANCH   3  48
BRANCH   5  50
HETATM   50  O   UNK     0      18.567  35.607  24.769  0.00  0.00    -0.388 OA
HETATM   51  H   UNK     0      18.220  34.909  24.188  0.00  0.00     0.210 HD
ENDBRANCH   5  50
BRANCH   4  52
HETATM   52  O   UNK     0      17.919  38.381  24.012  0.00  0.00    -0.390 OA
HETATM   53  H   UNK     0      16.960  38.220  24.020  0.00  0.00     0.210 HD
ENDBRANCH   4  52
TORSDOF 16
