MODEL 1
REMARK VINA RESULT:      -7.6      0.000      0.000
REMARK  13 active torsions:
REMARK  status: ('A' for Active; 'I' for Inactive)
REMARK    1  A    between atoms: C_2  and  O_12 
REMARK    2  A    between atoms: C_3  and  O_10 
REMARK    3  A    between atoms: C_4  and  O_8 
REMARK    4  A    between atoms: C_5  and  O_6 
REMARK    5  A    between atoms: C_22  and  C_23 
REMARK    6  A    between atoms: O_12  and  C_13 
REMARK    7  A    between atoms: C_13  and  C_14 
REMARK    8  A    between atoms: C_15  and  C_16 
REMARK    9  A    between atoms: C_23  and  O_24 
REMARK   10  A    between atoms: O_24  and  C_25 
REMARK   11  A    between atoms: C_26  and  O_34 
REMARK   12  A    between atoms: C_27  and  O_32 
REMARK   13  A    between atoms: C_28  and  O_30 
ROOT
ATOM      1  O   LIG     1       6.997  44.210  21.307  0.00  0.00    -0.341 OA
ATOM      2  C   LIG     1       6.125  44.304  20.183  0.00  0.00     0.282 C 
ATOM      3  C   LIG     1       6.114  45.730  19.631  0.00  0.00     0.201 C 
ATOM      4  C   LIG     1       7.529  46.219  19.326  0.00  0.00     0.179 C 
ATOM      5  C   LIG     1       8.472  45.955  20.499  0.00  0.00     0.177 C 
ATOM      6  C   LIG     1       8.354  44.505  20.975  0.00  0.00     0.178 C 
ENDROOT
BRANCH   6   7
ATOM      7  C   LIG     1       9.200  44.249  22.219  0.00  0.00     0.197 C 
BRANCH   7   8
ATOM      8  O   LIG     1      10.567  44.307  21.855  0.00  0.00    -0.346 OA
BRANCH   8   9
ATOM      9  C   LIG     1      11.252  43.103  22.182  0.00  0.00     0.281 C 
ATOM     10  O   LIG     1      12.531  43.357  22.774  0.00  0.00    -0.346 OA
ATOM     11  C   LIG     1      13.468  43.957  21.882  0.00  0.00     0.197 C 
ATOM     12  C   LIG     1      13.727  43.050  20.686  0.00  0.00     0.171 C 
ATOM     13  C   LIG     1      12.422  42.742  19.950  0.00  0.00     0.178 C 
ATOM     14  C   LIG     1      11.373  42.214  20.935  0.00  0.00     0.201 C 
BRANCH  12  15
ATOM     15  O   LIG     1      14.652  43.657  19.795  0.00  0.00    -0.387 OA
ATOM     16  H   LIG     1      14.162  44.304  19.258  0.00  0.00     0.210 HD
ENDBRANCH  12  15
BRANCH  13  17
ATOM     17  O   LIG     1      11.938  43.933  19.331  0.00  0.00    -0.386 OA
ATOM     18  H   LIG     1      12.473  44.086  18.533  0.00  0.00     0.210 HD
ENDBRANCH  13  17
BRANCH  14  19
ATOM     19  O   LIG     1      11.742  40.905  21.361  0.00  0.00    -0.384 OA
ATOM     20  H   LIG     1      11.775  40.895  22.332  0.00  0.00     0.210 HD
ENDBRANCH  14  19
ENDBRANCH   8   9
ENDBRANCH   7   8
ENDBRANCH   6   7
BRANCH   5  21
ATOM     21  O   LIG     1       9.814  46.211  20.093  0.00  0.00    -0.386 OA
ATOM     22  H   LIG     1      10.275  45.356  20.025  0.00  0.00     0.210 HD
ENDBRANCH   5  21
BRANCH   2  23
ATOM     23  O   LIG     1       4.795  43.973  20.576  0.00  0.00    -0.345 OA
BRANCH  23  24
ATOM     24  C   LIG     1       4.357  44.783  21.655  0.00  0.00     0.190 C 
BRANCH  24  25
ATOM     25  C   LIG     1       3.954  43.898  22.790  0.00  0.00     0.001 C 
ATOM     26  C   LIG     1       3.246  42.769  22.628  0.00  0.00     0.006 C 
BRANCH  26  27
ATOM     27  C   LIG     1       2.839  41.860  23.713  0.00  0.00    -0.025 A 
ATOM     28  C   LIG     1       2.021  40.779  23.422  0.00  0.00     0.008 A 
ATOM     29  C   LIG     1       1.636  39.918  24.450  0.00  0.00     0.001 A 
ATOM     30  C   LIG     1       2.072  40.149  25.754  0.00  0.00     0.000 A 
ATOM     31  C   LIG     1       2.894  41.241  26.032  0.00  0.00     0.001 A 
ATOM     32  C   LIG     1       3.280  42.102  25.004  0.00  0.00     0.008 A 
ENDBRANCH  26  27
ENDBRANCH  24  25
ENDBRANCH  23  24
ENDBRANCH   2  23
BRANCH   4  33
ATOM     33  O   LIG     1       7.504  47.628  19.088  0.00  0.00    -0.386 OA
ATOM     34  H   LIG     1       6.583  47.875  18.899  0.00  0.00     0.210 HD
ENDBRANCH   4  33
BRANCH   3  35
ATOM     35  O   LIG     1       5.340  45.739  18.433  0.00  0.00    -0.384 OA
ATOM     36  H   LIG     1       4.403  45.811  18.680  0.00  0.00     0.210 HD
ENDBRANCH   3  35
TORSDOF 13
ENDMDL
MODEL 2
REMARK VINA RESULT:      -7.6      2.200      2.858
REMARK  13 active torsions:
REMARK  status: ('A' for Active; 'I' for Inactive)
REMARK    1  A    between atoms: C_2  and  O_12 
REMARK    2  A    between atoms: C_3  and  O_10 
REMARK    3  A    between atoms: C_4  and  O_8 
REMARK    4  A    between atoms: C_5  and  O_6 
REMARK    5  A    between atoms: C_22  and  C_23 
REMARK    6  A    between atoms: O_12  and  C_13 
REMARK    7  A    between atoms: C_13  and  C_14 
REMARK    8  A    between atoms: C_15  and  C_16 
REMARK    9  A    between atoms: C_23  and  O_24 
REMARK   10  A    between atoms: O_24  and  C_25 
REMARK   11  A    between atoms: C_26  and  O_34 
REMARK   12  A    between atoms: C_27  and  O_32 
REMARK   13  A    between atoms: C_28  and  O_30 
ROOT
ATOM      1  O   LIG     1       6.462  43.529  20.866  0.00  0.00    -0.341 OA
ATOM      2  C   LIG     1       5.502  43.701  19.826  0.00  0.00     0.282 C 
ATOM      3  C   LIG     1       5.879  44.890  18.941  0.00  0.00     0.201 C 
ATOM      4  C   LIG     1       7.307  44.761  18.413  0.00  0.00     0.179 C 
ATOM      5  C   LIG     1       8.284  44.418  19.537  0.00  0.00     0.177 C 
ATOM      6  C   LIG     1       7.768  43.238  20.365  0.00  0.00     0.178 C 
ENDROOT
BRANCH   6   7
ATOM      7  C   LIG     1       8.668  42.952  21.563  0.00  0.00     0.197 C 
BRANCH   7   8
ATOM      8  O   LIG     1       9.335  44.148  21.922  0.00  0.00    -0.346 OA
BRANCH   8   9
ATOM      9  C   LIG     1       8.792  44.722  23.106  0.00  0.00     0.281 C 
ATOM     10  O   LIG     1       9.143  46.103  23.244  0.00  0.00    -0.346 OA
ATOM     11  C   LIG     1      10.535  46.324  23.462  0.00  0.00     0.197 C 
ATOM     12  C   LIG     1      10.993  45.640  24.744  0.00  0.00     0.171 C 
ATOM     13  C   LIG     1      10.699  44.140  24.689  0.00  0.00     0.178 C 
ATOM     14  C   LIG     1       9.228  43.903  24.331  0.00  0.00     0.201 C 
BRANCH  12  15
ATOM     15  O   LIG     1      12.382  45.852  24.950  0.00  0.00    -0.387 OA
ATOM     16  H   LIG     1      12.832  44.999  24.825  0.00  0.00     0.210 HD
ENDBRANCH  12  15
BRANCH  13  17
ATOM     17  O   LIG     1      11.534  43.532  23.705  0.00  0.00    -0.386 OA
ATOM     18  H   LIG     1      12.080  44.233  23.310  0.00  0.00     0.210 HD
ENDBRANCH  13  17
BRANCH  14  19
ATOM     19  O   LIG     1       8.407  44.285  25.432  0.00  0.00    -0.384 OA
ATOM     20  H   LIG     1       7.545  43.845  25.340  0.00  0.00     0.210 HD
ENDBRANCH  14  19
ENDBRANCH   8   9
ENDBRANCH   7   8
ENDBRANCH   6   7
BRANCH   5  21
ATOM     21  O   LIG     1       9.550  44.082  18.976  0.00  0.00    -0.386 OA
ATOM     22  H   LIG     1       9.822  44.812  18.392  0.00  0.00     0.210 HD
ENDBRANCH   5  21
BRANCH   2  23
ATOM     23  O   LIG     1       4.219  43.961  20.392  0.00  0.00    -0.345 OA
BRANCH  23  24
ATOM     24  C   LIG     1       4.324  44.733  21.577  0.00  0.00     0.190 C 
BRANCH  24  25
ATOM     25  C   LIG     1       3.974  43.870  22.747  0.00  0.00     0.001 C 
ATOM     26  C   LIG     1       3.201  42.778  22.651  0.00  0.00     0.006 C 
BRANCH  26  27
ATOM     27  C   LIG     1       2.842  41.891  23.771  0.00  0.00    -0.025 A 
ATOM     28  C   LIG     1       2.041  40.785  23.532  0.00  0.00     0.008 A 
ATOM     29  C   LIG     1       1.702  39.946  24.593  0.00  0.00     0.001 A 
ATOM     30  C   LIG     1       2.166  40.223  25.879  0.00  0.00     0.000 A 
ATOM     31  C   LIG     1       2.971  41.339  26.104  0.00  0.00     0.001 A 
ATOM     32  C   LIG     1       3.311  42.179  25.043  0.00  0.00     0.008 A 
ENDBRANCH  26  27
ENDBRANCH  24  25
ENDBRANCH  23  24
ENDBRANCH   2  23
BRANCH   4  33
ATOM     33  O   LIG     1       7.715  46.003  17.837  0.00  0.00    -0.386 OA
ATOM     34  H   LIG     1       6.953  46.363  17.352  0.00  0.00     0.210 HD
ENDBRANCH   4  33
BRANCH   3  35
ATOM     35  O   LIG     1       4.969  44.935  17.842  0.00  0.00    -0.384 OA
ATOM     36  H   LIG     1       4.502  44.083  17.802  0.00  0.00     0.210 HD
ENDBRANCH   3  35
TORSDOF 13
ENDMDL
MODEL 3
REMARK VINA RESULT:      -7.5      1.727      2.794
REMARK  13 active torsions:
REMARK  status: ('A' for Active; 'I' for Inactive)
REMARK    1  A    between atoms: C_2  and  O_12 
REMARK    2  A    between atoms: C_3  and  O_10 
REMARK    3  A    between atoms: C_4  and  O_8 
REMARK    4  A    between atoms: C_5  and  O_6 
REMARK    5  A    between atoms: C_22  and  C_23 
REMARK    6  A    between atoms: O_12  and  C_13 
REMARK    7  A    between atoms: C_13  and  C_14 
REMARK    8  A    between atoms: C_15  and  C_16 
REMARK    9  A    between atoms: C_23  and  O_24 
REMARK   10  A    between atoms: O_24  and  C_25 
REMARK   11  A    between atoms: C_26  and  O_34 
REMARK   12  A    between atoms: C_27  and  O_32 
REMARK   13  A    between atoms: C_28  and  O_30 
ROOT
ATOM      1  O   LIG     1       7.074  43.923  20.993  0.00  0.00    -0.341 OA
ATOM      2  C   LIG     1       6.768  43.738  19.613  0.00  0.00     0.282 C 
ATOM      3  C   LIG     1       6.541  45.087  18.930  0.00  0.00     0.201 C 
ATOM      4  C   LIG     1       7.722  46.031  19.153  0.00  0.00     0.179 C 
ATOM      5  C   LIG     1       8.122  46.078  20.627  0.00  0.00     0.177 C 
ATOM      6  C   LIG     1       8.278  44.664  21.194  0.00  0.00     0.178 C 
ENDROOT
BRANCH   6   7
ATOM      7  C   LIG     1       8.564  44.684  22.693  0.00  0.00     0.197 C 
BRANCH   7   8
ATOM      8  O   LIG     1       9.876  45.176  22.895  0.00  0.00    -0.346 OA
BRANCH   8   9
ATOM      9  C   LIG     1      10.848  44.140  22.807  0.00  0.00     0.281 C 
ATOM     10  O   LIG     1      10.581  43.074  23.725  0.00  0.00    -0.346 OA
ATOM     11  C   LIG     1      10.720  43.447  25.094  0.00  0.00     0.197 C 
ATOM     12  C   LIG     1      12.142  43.909  25.383  0.00  0.00     0.171 C 
ATOM     13  C   LIG     1      12.523  45.081  24.477  0.00  0.00     0.178 C 
ATOM     14  C   LIG     1      12.254  44.723  23.011  0.00  0.00     0.201 C 
BRANCH  12  15
ATOM     15  O   LIG     1      12.273  44.290  26.746  0.00  0.00    -0.387 OA
ATOM     16  H   LIG     1      11.379  44.320  27.129  0.00  0.00     0.210 HD
ENDBRANCH  12  15
BRANCH  13  17
ATOM     17  O   LIG     1      11.751  46.226  24.838  0.00  0.00    -0.386 OA
ATOM     18  H   LIG     1      10.884  45.909  25.146  0.00  0.00     0.210 HD
ENDBRANCH  13  17
BRANCH  14  19
ATOM     19  O   LIG     1      13.202  43.749  22.582  0.00  0.00    -0.384 OA
ATOM     20  H   LIG     1      13.317  43.097  23.293  0.00  0.00     0.210 HD
ENDBRANCH  14  19
ENDBRANCH   8   9
ENDBRANCH   7   8
ENDBRANCH   6   7
BRANCH   5  21
ATOM     21  O   LIG     1       9.356  46.779  20.759  0.00  0.00    -0.386 OA
ATOM     22  H   LIG     1      10.078  46.137  20.646  0.00  0.00     0.210 HD
ENDBRANCH   5  21
BRANCH   2  23
ATOM     23  O   LIG     1       5.573  42.971  19.483  0.00  0.00    -0.345 OA
BRANCH  23  24
ATOM     24  C   LIG     1       4.487  43.586  20.157  0.00  0.00     0.190 C 
BRANCH  24  25
ATOM     25  C   LIG     1       3.914  42.613  21.136  0.00  0.00     0.001 C 
ATOM     26  C   LIG     1       3.641  42.925  22.412  0.00  0.00     0.006 C 
BRANCH  26  27
ATOM     27  C   LIG     1       3.063  42.005  23.407  0.00  0.00    -0.025 A 
ATOM     28  C   LIG     1       3.389  42.158  24.745  0.00  0.00     0.008 A 
ATOM     29  C   LIG     1       2.842  41.287  25.685  0.00  0.00     0.001 A 
ATOM     30  C   LIG     1       1.976  40.273  25.277  0.00  0.00     0.000 A 
ATOM     31  C   LIG     1       1.656  40.130  23.927  0.00  0.00     0.001 A 
ATOM     32  C   LIG     1       2.204  41.002  22.986  0.00  0.00     0.008 A 
ENDBRANCH  26  27
ENDBRANCH  24  25
ENDBRANCH  23  24
ENDBRANCH   2  23
BRANCH   4  33
ATOM     33  O   LIG     1       7.357  47.352  18.752  0.00  0.00    -0.386 OA
ATOM     34  H   LIG     1       6.502  47.292  18.293  0.00  0.00     0.210 HD
ENDBRANCH   4  33
BRANCH   3  35
ATOM     35  O   LIG     1       6.375  44.857  17.531  0.00  0.00    -0.384 OA
ATOM     36  H   LIG     1       5.423  44.787  17.348  0.00  0.00     0.210 HD
ENDBRANCH   3  35
TORSDOF 13
ENDMDL
MODEL 4
REMARK VINA RESULT:      -7.4      2.025      3.562
REMARK  13 active torsions:
REMARK  status: ('A' for Active; 'I' for Inactive)
REMARK    1  A    between atoms: C_2  and  O_12 
REMARK    2  A    between atoms: C_3  and  O_10 
REMARK    3  A    between atoms: C_4  and  O_8 
REMARK    4  A    between atoms: C_5  and  O_6 
REMARK    5  A    between atoms: C_22  and  C_23 
REMARK    6  A    between atoms: O_12  and  C_13 
REMARK    7  A    between atoms: C_13  and  C_14 
REMARK    8  A    between atoms: C_15  and  C_16 
REMARK    9  A    between atoms: C_23  and  O_24 
REMARK   10  A    between atoms: O_24  and  C_25 
REMARK   11  A    between atoms: C_26  and  O_34 
REMARK   12  A    between atoms: C_27  and  O_32 
REMARK   13  A    between atoms: C_28  and  O_30 
ROOT
ATOM      1  O   LIG     1       8.446  44.461  20.999  0.00  0.00    -0.341 OA
ATOM      2  C   LIG     1       7.569  44.848  19.944  0.00  0.00     0.282 C 
ATOM      3  C   LIG     1       8.353  45.521  18.816  0.00  0.00     0.201 C 
ATOM      4  C   LIG     1       9.504  44.638  18.336  0.00  0.00     0.179 C 
ATOM      5  C   LIG     1      10.327  44.113  19.511  0.00  0.00     0.177 C 
ATOM      6  C   LIG     1       9.418  43.502  20.581  0.00  0.00     0.178 C 
ENDROOT
BRANCH   6   7
ATOM      7  C   LIG     1      10.207  43.076  21.816  0.00  0.00     0.197 C 
BRANCH   7   8
ATOM      8  O   LIG     1      11.226  44.030  22.051  0.00  0.00    -0.346 OA
BRANCH   8   9
ATOM      9  C   LIG     1      11.495  44.184  23.440  0.00  0.00     0.281 C 
ATOM     10  O   LIG     1      10.514  43.530  24.253  0.00  0.00    -0.346 OA
ATOM     11  C   LIG     1       9.217  44.117  24.171  0.00  0.00     0.197 C 
ATOM     12  C   LIG     1       9.253  45.567  24.634  0.00  0.00     0.171 C 
ATOM     13  C   LIG     1      10.250  46.375  23.801  0.00  0.00     0.178 C 
ATOM     14  C   LIG     1      11.614  45.676  23.787  0.00  0.00     0.201 C 
BRANCH  12  15
ATOM     15  O   LIG     1       7.961  46.151  24.540  0.00  0.00    -0.387 OA
ATOM     16  H   LIG     1       7.381  45.683  25.165  0.00  0.00     0.210 HD
ENDBRANCH  12  15
BRANCH  13  17
ATOM     17  O   LIG     1       9.761  46.494  22.466  0.00  0.00    -0.386 OA
ATOM     18  H   LIG     1       8.804  46.659  22.519  0.00  0.00     0.210 HD
ENDBRANCH  13  17
BRANCH  14  19
ATOM     19  O   LIG     1      12.212  45.782  25.077  0.00  0.00    -0.384 OA
ATOM     20  H   LIG     1      11.990  46.652  25.449  0.00  0.00     0.210 HD
ENDBRANCH  14  19
ENDBRANCH   8   9
ENDBRANCH   7   8
ENDBRANCH   6   7
BRANCH   5  21
ATOM     21  O   LIG     1      11.238  43.121  19.044  0.00  0.00    -0.386 OA
ATOM     22  H   LIG     1      10.995  42.273  19.456  0.00  0.00     0.210 HD
ENDBRANCH   5  21
BRANCH   2  23
ATOM     23  O   LIG     1       6.610  45.784  20.433  0.00  0.00    -0.345 OA
BRANCH  23  24
ATOM     24  C   LIG     1       5.286  45.371  20.132  0.00  0.00     0.190 C 
BRANCH  24  25
ATOM     25  C   LIG     1       4.822  44.428  21.196  0.00  0.00     0.001 C 
ATOM     26  C   LIG     1       4.759  44.756  22.495  0.00  0.00     0.006 C 
BRANCH  26  27
ATOM     27  C   LIG     1       4.296  43.867  23.574  0.00  0.00    -0.025 A 
ATOM     28  C   LIG     1       3.459  42.806  23.267  0.00  0.00     0.008 A 
ATOM     29  C   LIG     1       3.021  41.964  24.289  0.00  0.00     0.001 A 
ATOM     30  C   LIG     1       3.424  42.194  25.604  0.00  0.00     0.000 A 
ATOM     31  C   LIG     1       4.266  43.265  25.898  0.00  0.00     0.001 A 
ATOM     32  C   LIG     1       4.705  44.108  24.876  0.00  0.00     0.008 A 
ENDBRANCH  26  27
ENDBRANCH  24  25
ENDBRANCH  23  24
ENDBRANCH   2  23
BRANCH   4  33
ATOM     33  O   LIG     1      10.371  45.403  17.496  0.00  0.00    -0.386 OA
ATOM     34  H   LIG     1      10.575  46.230  17.965  0.00  0.00     0.210 HD
ENDBRANCH   4  33
BRANCH   3  35
ATOM     35  O   LIG     1       7.456  45.763  17.732  0.00  0.00    -0.384 OA
ATOM     36  H   LIG     1       6.548  45.717  18.076  0.00  0.00     0.210 HD
ENDBRANCH   3  35
TORSDOF 13
ENDMDL
MODEL 5
REMARK VINA RESULT:      -7.4      2.075      8.667
REMARK  13 active torsions:
REMARK  status: ('A' for Active; 'I' for Inactive)
REMARK    1  A    between atoms: C_2  and  O_12 
REMARK    2  A    between atoms: C_3  and  O_10 
REMARK    3  A    between atoms: C_4  and  O_8 
REMARK    4  A    between atoms: C_5  and  O_6 
REMARK    5  A    between atoms: C_22  and  C_23 
REMARK    6  A    between atoms: O_12  and  C_13 
REMARK    7  A    between atoms: C_13  and  C_14 
REMARK    8  A    between atoms: C_15  and  C_16 
REMARK    9  A    between atoms: C_23  and  O_24 
REMARK   10  A    between atoms: O_24  and  C_25 
REMARK   11  A    between atoms: C_26  and  O_34 
REMARK   12  A    between atoms: C_27  and  O_32 
REMARK   13  A    between atoms: C_28  and  O_30 
ROOT
ATOM      1  O   LIG     1       8.103  43.698  20.078  0.00  0.00    -0.341 OA
ATOM      2  C   LIG     1       8.872  44.643  20.817  0.00  0.00     0.282 C 
ATOM      3  C   LIG     1       8.889  45.995  20.104  0.00  0.00     0.201 C 
ATOM      4  C   LIG     1       7.472  46.487  19.810  0.00  0.00     0.179 C 
ATOM      5  C   LIG     1       6.629  45.390  19.160  0.00  0.00     0.177 C 
ATOM      6  C   LIG     1       6.733  44.084  19.952  0.00  0.00     0.178 C 
ENDROOT
BRANCH   6   7
ATOM      7  C   LIG     1       5.994  42.943  19.259  0.00  0.00     0.197 C 
BRANCH   7   8
ATOM      8  O   LIG     1       4.728  42.787  19.874  0.00  0.00    -0.346 OA
BRANCH   8   9
ATOM      9  C   LIG     1       4.785  43.044  21.273  0.00  0.00     0.281 C 
ATOM     10  O   LIG     1       5.001  41.849  22.031  0.00  0.00    -0.346 OA
ATOM     11  C   LIG     1       3.912  40.930  21.978  0.00  0.00     0.197 C 
ATOM     12  C   LIG     1       2.647  41.565  22.541  0.00  0.00     0.171 C 
ATOM     13  C   LIG     1       2.297  42.841  21.773  0.00  0.00     0.178 C 
ATOM     14  C   LIG     1       3.511  43.776  21.723  0.00  0.00     0.201 C 
BRANCH  12  15
ATOM     15  O   LIG     1       1.562  40.650  22.475  0.00  0.00    -0.387 OA
ATOM     16  H   LIG     1       1.882  39.791  22.799  0.00  0.00     0.210 HD
ENDBRANCH  12  15
BRANCH  13  17
ATOM     17  O   LIG     1       1.902  42.499  20.446  0.00  0.00    -0.386 OA
ATOM     18  H   LIG     1       2.664  42.075  20.014  0.00  0.00     0.210 HD
ENDBRANCH  13  17
BRANCH  14  19
ATOM     19  O   LIG     1       3.746  44.314  23.021  0.00  0.00    -0.384 OA
ATOM     20  H   LIG     1       4.688  44.544  23.093  0.00  0.00     0.210 HD
ENDBRANCH  14  19
ENDBRANCH   8   9
ENDBRANCH   7   8
ENDBRANCH   6   7
BRANCH   5  21
ATOM     21  O   LIG     1       5.267  45.806  19.114  0.00  0.00    -0.386 OA
ATOM     22  H   LIG     1       4.867  45.620  19.982  0.00  0.00     0.210 HD
ENDBRANCH   5  21
BRANCH   2  23
ATOM     23  O   LIG     1      10.219  44.186  20.928  0.00  0.00    -0.345 OA
BRANCH  23  24
ATOM     24  C   LIG     1      10.488  43.141  20.008  0.00  0.00     0.190 C 
BRANCH  24  25
ATOM     25  C   LIG     1      11.898  42.683  20.198  0.00  0.00     0.001 C 
ATOM     26  C   LIG     1      12.306  41.972  21.261  0.00  0.00     0.006 C 
BRANCH  26  27
ATOM     27  C   LIG     1      13.679  41.488  21.483  0.00  0.00    -0.025 A 
ATOM     28  C   LIG     1      13.906  40.501  22.429  0.00  0.00     0.008 A 
ATOM     29  C   LIG     1      15.207  40.043  22.638  0.00  0.00     0.001 A 
ATOM     30  C   LIG     1      16.263  40.577  21.900  0.00  0.00     0.000 A 
ATOM     31  C   LIG     1      16.019  41.570  20.952  0.00  0.00     0.001 A 
ATOM     32  C   LIG     1      14.718  42.028  20.742  0.00  0.00     0.008 A 
ENDBRANCH  26  27
ENDBRANCH  24  25
ENDBRANCH  23  24
ENDBRANCH   2  23
BRANCH   4  33
ATOM     33  O   LIG     1       7.530  47.592  18.907  0.00  0.00    -0.386 OA
ATOM     34  H   LIG     1       8.162  47.362  18.205  0.00  0.00     0.210 HD
ENDBRANCH   4  33
BRANCH   3  35
ATOM     35  O   LIG     1       9.552  46.937  20.948  0.00  0.00    -0.384 OA
ATOM     36  H   LIG     1       9.203  46.833  21.848  0.00  0.00     0.210 HD
ENDBRANCH   3  35
TORSDOF 13
ENDMDL
MODEL 6
REMARK VINA RESULT:      -7.4      2.457      4.176
REMARK  13 active torsions:
REMARK  status: ('A' for Active; 'I' for Inactive)
REMARK    1  A    between atoms: C_2  and  O_12 
REMARK    2  A    between atoms: C_3  and  O_10 
REMARK    3  A    between atoms: C_4  and  O_8 
REMARK    4  A    between atoms: C_5  and  O_6 
REMARK    5  A    between atoms: C_22  and  C_23 
REMARK    6  A    between atoms: O_12  and  C_13 
REMARK    7  A    between atoms: C_13  and  C_14 
REMARK    8  A    between atoms: C_15  and  C_16 
REMARK    9  A    between atoms: C_23  and  O_24 
REMARK   10  A    between atoms: O_24  and  C_25 
REMARK   11  A    between atoms: C_26  and  O_34 
REMARK   12  A    between atoms: C_27  and  O_32 
REMARK   13  A    between atoms: C_28  and  O_30 
ROOT
ATOM      1  O   LIG     1       7.088  43.223  20.294  0.00  0.00    -0.341 OA
ATOM      2  C   LIG     1       6.332  43.393  19.097  0.00  0.00     0.282 C 
ATOM      3  C   LIG     1       6.095  44.878  18.821  0.00  0.00     0.201 C 
ATOM      4  C   LIG     1       7.409  45.659  18.807  0.00  0.00     0.179 C 
ATOM      5  C   LIG     1       8.263  45.327  20.030  0.00  0.00     0.177 C 
ATOM      6  C   LIG     1       8.387  43.811  20.211  0.00  0.00     0.178 C 
ENDROOT
BRANCH   6   7
ATOM      7  C   LIG     1       9.137  43.455  21.491  0.00  0.00     0.197 C 
BRANCH   7   8
ATOM      8  O   LIG     1       8.214  42.917  22.420  0.00  0.00    -0.346 OA
BRANCH   8   9
ATOM      9  C   LIG     1       8.460  43.386  23.741  0.00  0.00     0.281 C 
ATOM     10  O   LIG     1       7.784  42.595  24.726  0.00  0.00    -0.346 OA
ATOM     11  C   LIG     1       6.364  42.700  24.672  0.00  0.00     0.197 C 
ATOM     12  C   LIG     1       5.922  44.139  24.907  0.00  0.00     0.171 C 
ATOM     13  C   LIG     1       6.559  45.074  23.878  0.00  0.00     0.178 C 
ATOM     14  C   LIG     1       8.078  44.870  23.849  0.00  0.00     0.201 C 
BRANCH  12  15
ATOM     15  O   LIG     1       4.507  44.240  24.841  0.00  0.00    -0.387 OA
ATOM     16  H   LIG     1       4.173  43.430  24.419  0.00  0.00     0.210 HD
ENDBRANCH  12  15
BRANCH  13  17
ATOM     17  O   LIG     1       6.015  44.796  22.589  0.00  0.00    -0.386 OA
ATOM     18  H   LIG     1       5.922  45.644  22.121  0.00  0.00     0.210 HD
ENDBRANCH  13  17
BRANCH  14  19
ATOM     19  O   LIG     1       8.647  45.385  25.050  0.00  0.00    -0.384 OA
ATOM     20  H   LIG     1       9.585  45.135  25.078  0.00  0.00     0.210 HD
ENDBRANCH  14  19
ENDBRANCH   8   9
ENDBRANCH   7   8
ENDBRANCH   6   7
BRANCH   5  21
ATOM     21  O   LIG     1       9.562  45.889  19.866  0.00  0.00    -0.386 OA
ATOM     22  H   LIG     1       9.720  46.500  20.607  0.00  0.00     0.210 HD
ENDBRANCH   5  21
BRANCH   2  23
ATOM     23  O   LIG     1       5.061  42.762  19.236  0.00  0.00    -0.345 OA
BRANCH  23  24
ATOM     24  C   LIG     1       4.294  43.366  20.266  0.00  0.00     0.190 C 
BRANCH  24  25
ATOM     25  C   LIG     1       3.510  42.304  20.968  0.00  0.00     0.001 C 
ATOM     26  C   LIG     1       3.560  42.106  22.295  0.00  0.00     0.006 C 
BRANCH  26  27
ATOM     27  C   LIG     1       2.796  41.084  23.030  0.00  0.00    -0.025 A 
ATOM     28  C   LIG     1       2.257  40.011  22.339  0.00  0.00     0.008 A 
ATOM     29  C   LIG     1       1.534  39.044  23.036  0.00  0.00     0.001 A 
ATOM     30  C   LIG     1       1.358  39.162  24.415  0.00  0.00     0.000 A 
ATOM     31  C   LIG     1       1.906  40.248  25.097  0.00  0.00     0.001 A 
ATOM     32  C   LIG     1       2.630  41.215  24.400  0.00  0.00     0.008 A 
ENDBRANCH  26  27
ENDBRANCH  24  25
ENDBRANCH  23  24
ENDBRANCH   2  23
BRANCH   4  33
ATOM     33  O   LIG     1       7.130  47.060  18.831  0.00  0.00    -0.386 OA
ATOM     34  H   LIG     1       6.794  47.275  19.717  0.00  0.00     0.210 HD
ENDBRANCH   4  33
BRANCH   3  35
ATOM     35  O   LIG     1       5.458  45.000  17.549  0.00  0.00    -0.384 OA
ATOM     36  H   LIG     1       5.233  44.107  17.238  0.00  0.00     0.210 HD
ENDBRANCH   3  35
TORSDOF 13
ENDMDL
MODEL 7
REMARK VINA RESULT:      -7.3      1.984      3.105
REMARK  13 active torsions:
REMARK  status: ('A' for Active; 'I' for Inactive)
REMARK    1  A    between atoms: C_2  and  O_12 
REMARK    2  A    between atoms: C_3  and  O_10 
REMARK    3  A    between atoms: C_4  and  O_8 
REMARK    4  A    between atoms: C_5  and  O_6 
REMARK    5  A    between atoms: C_22  and  C_23 
REMARK    6  A    between atoms: O_12  and  C_13 
REMARK    7  A    between atoms: C_13  and  C_14 
REMARK    8  A    between atoms: C_15  and  C_16 
REMARK    9  A    between atoms: C_23  and  O_24 
REMARK   10  A    between atoms: O_24  and  C_25 
REMARK   11  A    between atoms: C_26  and  O_34 
REMARK   12  A    between atoms: C_27  and  O_32 
REMARK   13  A    between atoms: C_28  and  O_30 
ROOT
ATOM      1  O   LIG     1       7.229  44.214  20.976  0.00  0.00    -0.341 OA
ATOM      2  C   LIG     1       5.988  44.833  20.645  0.00  0.00     0.282 C 
ATOM      3  C   LIG     1       6.199  46.311  20.314  0.00  0.00     0.201 C 
ATOM      4  C   LIG     1       7.260  46.492  19.228  0.00  0.00     0.179 C 
ATOM      5  C   LIG     1       8.518  45.684  19.542  0.00  0.00     0.177 C 
ATOM      6  C   LIG     1       8.160  44.237  19.893  0.00  0.00     0.178 C 
ENDROOT
BRANCH   6   7
ATOM      7  C   LIG     1       9.388  43.440  20.324  0.00  0.00     0.197 C 
BRANCH   7   8
ATOM      8  O   LIG     1       9.295  43.184  21.713  0.00  0.00    -0.346 OA
BRANCH   8   9
ATOM      9  C   LIG     1      10.376  43.769  22.431  0.00  0.00     0.281 C 
ATOM     10  O   LIG     1      10.825  42.931  23.502  0.00  0.00    -0.346 OA
ATOM     11  C   LIG     1       9.871  42.774  24.549  0.00  0.00     0.197 C 
ATOM     12  C   LIG     1       9.536  44.121  25.177  0.00  0.00     0.171 C 
ATOM     13  C   LIG     1       9.005  45.091  24.121  0.00  0.00     0.178 C 
ATOM     14  C   LIG     1       9.974  45.164  22.936  0.00  0.00     0.201 C 
BRANCH  12  15
ATOM     15  O   LIG     1       8.576  43.960  26.212  0.00  0.00    -0.387 OA
ATOM     16  H   LIG     1       8.523  44.802  26.697  0.00  0.00     0.210 HD
ENDBRANCH  12  15
BRANCH  13  17
ATOM     17  O   LIG     1       7.729  44.642  23.667  0.00  0.00    -0.386 OA
ATOM     18  H   LIG     1       7.488  43.863  24.198  0.00  0.00     0.210 HD
ENDBRANCH  13  17
BRANCH  14  19
ATOM     19  O   LIG     1      11.160  45.846  23.337  0.00  0.00    -0.384 OA
ATOM     20  H   LIG     1      11.699  46.017  22.547  0.00  0.00     0.210 HD
ENDBRANCH  14  19
ENDBRANCH   8   9
ENDBRANCH   7   8
ENDBRANCH   6   7
BRANCH   5  21
ATOM     21  O   LIG     1       9.381  45.694  18.409  0.00  0.00    -0.386 OA
ATOM     22  H   LIG     1       8.829  45.629  17.610  0.00  0.00     0.210 HD
ENDBRANCH   5  21
BRANCH   2  23
ATOM     23  O   LIG     1       5.098  44.753  21.756  0.00  0.00    -0.345 OA
BRANCH  23  24
ATOM     24  C   LIG     1       3.836  44.233  21.371  0.00  0.00     0.190 C 
BRANCH  24  25
ATOM     25  C   LIG     1       3.405  43.217  22.379  0.00  0.00     0.001 C 
ATOM     26  C   LIG     1       3.757  43.268  23.673  0.00  0.00     0.006 C 
BRANCH  26  27
ATOM     27  C   LIG     1       3.345  42.299  24.704  0.00  0.00    -0.025 A 
ATOM     28  C   LIG     1       2.521  41.242  24.352  0.00  0.00     0.008 A 
ATOM     29  C   LIG     1       2.132  40.325  25.328  0.00  0.00     0.001 A 
ATOM     30  C   LIG     1       2.571  40.477  26.643  0.00  0.00     0.000 A 
ATOM     31  C   LIG     1       3.401  41.545  26.983  0.00  0.00     0.001 A 
ATOM     32  C   LIG     1       3.790  42.463  26.006  0.00  0.00     0.008 A 
ENDBRANCH  26  27
ENDBRANCH  24  25
ENDBRANCH  23  24
ENDBRANCH   2  23
BRANCH   4  33
ATOM     33  O   LIG     1       7.629  47.870  19.150  0.00  0.00    -0.386 OA
ATOM     34  H   LIG     1       8.126  48.085  19.957  0.00  0.00     0.210 HD
ENDBRANCH   4  33
BRANCH   3  35
ATOM     35  O   LIG     1       4.958  46.849  19.859  0.00  0.00    -0.384 OA
ATOM     36  H   LIG     1       5.150  47.517  19.180  0.00  0.00     0.210 HD
ENDBRANCH   3  35
TORSDOF 13
ENDMDL
MODEL 8
REMARK VINA RESULT:      -7.2      2.396      3.508
REMARK  13 active torsions:
REMARK  status: ('A' for Active; 'I' for Inactive)
REMARK    1  A    between atoms: C_2  and  O_12 
REMARK    2  A    between atoms: C_3  and  O_10 
REMARK    3  A    between atoms: C_4  and  O_8 
REMARK    4  A    between atoms: C_5  and  O_6 
REMARK    5  A    between atoms: C_22  and  C_23 
REMARK    6  A    between atoms: O_12  and  C_13 
REMARK    7  A    between atoms: C_13  and  C_14 
REMARK    8  A    between atoms: C_15  and  C_16 
REMARK    9  A    between atoms: C_23  and  O_24 
REMARK   10  A    between atoms: O_24  and  C_25 
REMARK   11  A    between atoms: C_26  and  O_34 
REMARK   12  A    between atoms: C_27  and  O_32 
REMARK   13  A    between atoms: C_28  and  O_30 
ROOT
ATOM      1  O   LIG     1       7.131  45.289  22.174  0.00  0.00    -0.341 OA
ATOM      2  C   LIG     1       6.063  45.212  21.232  0.00  0.00     0.282 C 
ATOM      3  C   LIG     1       6.113  46.399  20.268  0.00  0.00     0.201 C 
ATOM      4  C   LIG     1       7.483  46.517  19.602  0.00  0.00     0.179 C 
ATOM      5  C   LIG     1       8.609  46.435  20.632  0.00  0.00     0.177 C 
ATOM      6  C   LIG     1       8.416  45.228  21.553  0.00  0.00     0.178 C 
ENDROOT
BRANCH   6   7
ATOM      7  C   LIG     1       9.463  45.190  22.662  0.00  0.00     0.197 C 
BRANCH   7   8
ATOM      8  O   LIG     1       9.758  43.837  22.957  0.00  0.00    -0.346 OA
BRANCH   8   9
ATOM      9  C   LIG     1       9.816  43.602  24.359  0.00  0.00     0.281 C 
ATOM     10  O   LIG     1      10.562  42.421  24.676  0.00  0.00    -0.346 OA
ATOM     11  C   LIG     1       9.944  41.215  24.235  0.00  0.00     0.197 C 
ATOM     12  C   LIG     1       8.578  41.041  24.887  0.00  0.00     0.171 C 
ATOM     13  C   LIG     1       7.677  42.239  24.579  0.00  0.00     0.178 C 
ATOM     14  C   LIG     1       8.394  43.544  24.939  0.00  0.00     0.201 C 
BRANCH  12  15
ATOM     15  O   LIG     1       7.961  39.844  24.435  0.00  0.00    -0.387 OA
ATOM     16  H   LIG     1       8.612  39.127  24.524  0.00  0.00     0.210 HD
ENDBRANCH  12  15
BRANCH  13  17
ATOM     17  O   LIG     1       7.353  42.239  23.190  0.00  0.00    -0.386 OA
ATOM     18  H   LIG     1       8.114  42.609  22.712  0.00  0.00     0.210 HD
ENDBRANCH  13  17
BRANCH  14  19
ATOM     19  O   LIG     1       8.491  43.655  26.357  0.00  0.00    -0.384 OA
ATOM     20  H   LIG     1       9.001  42.897  26.690  0.00  0.00     0.210 HD
ENDBRANCH  14  19
ENDBRANCH   8   9
ENDBRANCH   7   8
ENDBRANCH   6   7
BRANCH   5  21
ATOM     21  O   LIG     1       9.859  46.318  19.956  0.00  0.00    -0.386 OA
ATOM     22  H   LIG     1       9.699  46.448  19.006  0.00  0.00     0.210 HD
ENDBRANCH   5  21
BRANCH   2  23
ATOM     23  O   LIG     1       4.813  45.252  21.916  0.00  0.00    -0.345 OA
BRANCH  23  24
ATOM     24  C   LIG     1       4.943  44.809  23.257  0.00  0.00     0.190 C 
BRANCH  24  25
ATOM     25  C   LIG     1       4.130  43.566  23.435  0.00  0.00     0.001 C 
ATOM     26  C   LIG     1       3.886  43.010  24.631  0.00  0.00     0.006 C 
BRANCH  26  27
ATOM     27  C   LIG     1       3.081  41.797  24.855  0.00  0.00    -0.025 A 
ATOM     28  C   LIG     1       3.009  41.255  26.129  0.00  0.00     0.008 A 
ATOM     29  C   LIG     1       2.246  40.107  26.340  0.00  0.00     0.001 A 
ATOM     30  C   LIG     1       1.566  39.515  25.276  0.00  0.00     0.000 A 
ATOM     31  C   LIG     1       1.648  40.071  24.000  0.00  0.00     0.001 A 
ATOM     32  C   LIG     1       2.411  41.220  23.788  0.00  0.00     0.008 A 
ENDBRANCH  26  27
ENDBRANCH  24  25
ENDBRANCH  23  24
ENDBRANCH   2  23
BRANCH   4  33
ATOM     33  O   LIG     1       7.582  47.779  18.939  0.00  0.00    -0.386 OA
ATOM     34  H   LIG     1       7.121  47.697  18.087  0.00  0.00     0.210 HD
ENDBRANCH   4  33
BRANCH   3  35
ATOM     35  O   LIG     1       5.114  46.204  19.268  0.00  0.00    -0.384 OA
ATOM     36  H   LIG     1       4.737  47.072  19.045  0.00  0.00     0.210 HD
ENDBRANCH   3  35
TORSDOF 13
ENDMDL
MODEL 9
REMARK VINA RESULT:      -7.0      1.937      2.596
REMARK  13 active torsions:
REMARK  status: ('A' for Active; 'I' for Inactive)
REMARK    1  A    between atoms: C_2  and  O_12 
REMARK    2  A    between atoms: C_3  and  O_10 
REMARK    3  A    between atoms: C_4  and  O_8 
REMARK    4  A    between atoms: C_5  and  O_6 
REMARK    5  A    between atoms: C_22  and  C_23 
REMARK    6  A    between atoms: O_12  and  C_13 
REMARK    7  A    between atoms: C_13  and  C_14 
REMARK    8  A    between atoms: C_15  and  C_16 
REMARK    9  A    between atoms: C_23  and  O_24 
REMARK   10  A    between atoms: O_24  and  C_25 
REMARK   11  A    between atoms: C_26  and  O_34 
REMARK   12  A    between atoms: C_27  and  O_32 
REMARK   13  A    between atoms: C_28  and  O_30 
ROOT
ATOM      1  O   LIG     1       8.518  44.852  21.148  0.00  0.00    -0.341 OA
ATOM      2  C   LIG     1       7.645  45.304  20.116  0.00  0.00     0.282 C 
ATOM      3  C   LIG     1       8.446  45.715  18.880  0.00  0.00     0.201 C 
ATOM      4  C   LIG     1       9.375  44.592  18.419  0.00  0.00     0.179 C 
ATOM      5  C   LIG     1      10.179  44.025  19.588  0.00  0.00     0.177 C 
ATOM      6  C   LIG     1       9.263  43.693  20.768  0.00  0.00     0.178 C 
ENDROOT
BRANCH   6   7
ATOM      7  C   LIG     1      10.056  43.235  21.989  0.00  0.00     0.197 C 
BRANCH   7   8
ATOM      8  O   LIG     1      11.399  43.656  21.837  0.00  0.00    -0.346 OA
BRANCH   8   9
ATOM      9  C   LIG     1      12.209  43.241  22.931  0.00  0.00     0.281 C 
ATOM     10  O   LIG     1      13.468  43.924  22.957  0.00  0.00    -0.346 OA
ATOM     11  C   LIG     1      14.321  43.599  21.863  0.00  0.00     0.197 C 
ATOM     12  C   LIG     1      14.646  42.111  21.859  0.00  0.00     0.171 C 
ATOM     13  C   LIG     1      13.365  41.279  21.793  0.00  0.00     0.178 C 
ATOM     14  C   LIG     1      12.395  41.716  22.896  0.00  0.00     0.201 C 
BRANCH  12  15
ATOM     15  O   LIG     1      15.487  41.790  20.759  0.00  0.00    -0.387 OA
ATOM     16  H   LIG     1      15.799  42.627  20.374  0.00  0.00     0.210 HD
ENDBRANCH  12  15
BRANCH  13  17
ATOM     17  O   LIG     1      12.751  41.459  20.518  0.00  0.00    -0.386 OA
ATOM     18  H   LIG     1      12.326  42.335  20.519  0.00  0.00     0.210 HD
ENDBRANCH  13  17
BRANCH  14  19
ATOM     19  O   LIG     1      12.903  41.304  24.162  0.00  0.00    -0.384 OA
ATOM     20  H   LIG     1      13.024  40.340  24.147  0.00  0.00     0.210 HD
ENDBRANCH  14  19
ENDBRANCH   8   9
ENDBRANCH   7   8
ENDBRANCH   6   7
BRANCH   5  21
ATOM     21  O   LIG     1      10.853  42.842  19.167  0.00  0.00    -0.386 OA
ATOM     22  H   LIG     1      11.069  42.321  19.961  0.00  0.00     0.210 HD
ENDBRANCH   5  21
BRANCH   2  23
ATOM     23  O   LIG     1       6.915  46.443  20.567  0.00  0.00    -0.345 OA
BRANCH  23  24
ATOM     24  C   LIG     1       5.534  46.326  20.263  0.00  0.00     0.190 C 
BRANCH  24  25
ATOM     25  C   LIG     1       5.104  44.916  20.513  0.00  0.00     0.001 C 
ATOM     26  C   LIG     1       4.056  44.592  21.285  0.00  0.00     0.006 C 
BRANCH  26  27
ATOM     27  C   LIG     1       3.587  43.220  21.549  0.00  0.00    -0.025 A 
ATOM     28  C   LIG     1       2.405  42.783  20.971  0.00  0.00     0.008 A 
ATOM     29  C   LIG     1       1.963  41.485  21.220  0.00  0.00     0.001 A 
ATOM     30  C   LIG     1       2.705  40.640  22.045  0.00  0.00     0.000 A 
ATOM     31  C   LIG     1       3.892  41.093  22.620  0.00  0.00     0.001 A 
ATOM     32  C   LIG     1       4.336  42.392  22.370  0.00  0.00     0.008 A 
ENDBRANCH  26  27
ENDBRANCH  24  25
ENDBRANCH  23  24
ENDBRANCH   2  23
BRANCH   4  33
ATOM     33  O   LIG     1      10.297  45.103  17.455  0.00  0.00    -0.386 OA
ATOM     34  H   LIG     1       9.831  45.151  16.603  0.00  0.00     0.210 HD
ENDBRANCH   4  33
BRANCH   3  35
ATOM     35  O   LIG     1       7.525  46.028  17.834  0.00  0.00    -0.384 OA
ATOM     36  H   LIG     1       8.035  46.194  17.024  0.00  0.00     0.210 HD
ENDBRANCH   3  35
TORSDOF 13
ENDMDL
