REMARK  5 active torsions:
REMARK  status: ('A' for Active; 'I' for Inactive)
REMARK    1  A    between atoms: C_1  and  O_7 
REMARK    2  A    between atoms: C_2  and  O_13 
REMARK    3  A    between atoms: C_4  and  C_9 
REMARK    4  A    between atoms: C_6  and  O_15 
REMARK    5  A    between atoms: C_9  and  O_11 
ROOT
ATOM      1  C   UNL     1       1.753  -0.014   0.000  0.00  0.00     0.201 A 
ATOM      2  C   UNL     1       1.031  -1.208   0.001  0.00  0.00     0.163 A 
ATOM      3  C   UNL     1      -0.363  -1.180   0.001  0.00  0.00     0.064 A 
ATOM      4  C   UNL     1      -1.037   0.042   0.001  0.00  0.00     0.066 A 
ATOM      5  C   UNL     1      -0.315   1.235   0.000  0.00  0.00     0.064 A 
ATOM      6  C   UNL     1       1.079   1.208   0.000  0.00  0.00     0.163 A 
ENDROOT
BRANCH   4   7
ATOM      7  C   UNL     1      -2.491   0.071   0.000  0.00  0.00     0.337 C 
ATOM      8  O   UNL     1      -3.186   1.092  -0.000  0.00  0.00    -0.245 OA
BRANCH   7   9
ATOM      9  O   UNL     1      -3.036  -1.176  -0.001  0.00  0.00    -0.477 OA
ATOM     10  H   UNL     1      -4.017  -1.146  -0.002  0.00  0.00     0.295 HD
ENDBRANCH   7   9
ENDBRANCH   4   7
BRANCH   2  11
ATOM     11  O   UNL     1       1.677  -2.408  -0.001  0.00  0.00    -0.503 OA
ATOM     12  H   UNL     1       2.635  -2.239  -0.001  0.00  0.00     0.292 HD
ENDBRANCH   2  11
BRANCH   6  13
ATOM     13  O   UNL     1       1.773   2.380  -0.000  0.00  0.00    -0.503 OA
ATOM     14  H   UNL     1       1.143   3.122  -0.001  0.00  0.00     0.292 HD
ENDBRANCH   6  13
BRANCH   1  15
ATOM     15  O   UNL     1       3.116  -0.041  -0.001  0.00  0.00    -0.501 OA
ATOM     16  H   UNL     1       3.441   0.876  -0.001  0.00  0.00     0.292 HD
ENDBRANCH   1  15
TORSDOF 5
