MODEL 1
REMARK VINA RESULT:      -9.0      0.000      0.000
REMARK  16 active torsions:
REMARK  status: ('A' for Active; 'I' for Inactive)
REMARK    1  A    between atoms: O_2  and  C_22 
REMARK    2  A    between atoms: O_2  and  C_26 
REMARK    3  A    between atoms: O_4  and  C_18 
REMARK    4  A    between atoms: O_5  and  C_19 
REMARK    5  A    between atoms: O_6  and  C_25 
REMARK    6  A    between atoms: O_6  and  C_29 
REMARK    7  A    between atoms: O_7  and  C_20 
REMARK    8  A    between atoms: O_8  and  C_21 
REMARK    9  A    between atoms: O_9  and  C_23 
REMARK   10  A    between atoms: O_10  and  C_24 
REMARK   11  A    between atoms: O_13  and  C_35 
REMARK   12  A    between atoms: O_14  and  C_40 
REMARK   13  A    between atoms: O_15  and  C_41 
REMARK   14  A    between atoms: O_16  and  C_43 
REMARK   15  A    between atoms: C_17  and  C_26 
REMARK   16  A    between atoms: C_30  and  C_33 
ROOT
HETATM    1  O   UNK     0     151.156 155.411 148.735  0.00  0.00    -0.348 OA
HETATM    2  C   UNK     0     150.937 156.628 148.019  0.00  0.00     0.180 C 
HETATM    3  C   UNK     0     149.594 157.239 148.427  0.00  0.00     0.180 C 
HETATM    4  C   UNK     0     148.456 156.241 148.213  0.00  0.00     0.183 C 
HETATM    5  C   UNK     0     148.787 154.883 148.832  0.00  0.00     0.205 C 
HETATM    6  C   UNK     0     150.185 154.414 148.428  0.00  0.00     0.298 C 
ENDROOT
BRANCH   2   7
HETATM    7  C   UNK     0     152.102 157.562 148.332  0.00  0.00     0.205 C 
BRANCH   7   8
HETATM    8  O   UNK     0     152.604 157.256 149.625  0.00  0.00    -0.356 OA
BRANCH   8   9
HETATM    9  C   UNK     0     152.591 158.400 150.473  0.00  0.00     0.291 C 
HETATM   10  O   UNK     0     153.776 159.190 150.341  0.00  0.00    -0.351 OA
HETATM   11  C   UNK     0     154.974 158.524 150.754  0.00  0.00     0.152 C 
HETATM   12  C   UNK     0     154.888 158.098 152.226  0.00  0.00     0.178 C 
HETATM   13  C   UNK     0     156.130 159.490 150.505  0.00  0.00     0.042 C 
HETATM   14  C   UNK     0     153.635 157.253 152.457  0.00  0.00     0.183 C 
HETATM   15  C   UNK     0     152.390 157.965 151.923  0.00  0.00     0.204 C 
BRANCH  12  16
HETATM   16  O   UNK     0     156.024 157.311 152.579  0.00  0.00    -0.390 OA
HETATM   17  H   UNK     0     155.790 156.376 152.454  0.00  0.00     0.210 HD
ENDBRANCH  12  16
BRANCH  14  18
HETATM   18  O   UNK     0     153.489 157.001 153.852  0.00  0.00    -0.390 OA
HETATM   19  H   UNK     0     153.824 157.778 154.331  0.00  0.00     0.210 HD
ENDBRANCH  14  18
BRANCH  15  20
HETATM   20  O   UNK     0     152.130 159.137 152.697  0.00  0.00    -0.388 OA
HETATM   21  H   UNK     0     152.974 159.592 152.858  0.00  0.00     0.210 HD
ENDBRANCH  15  20
ENDBRANCH   8   9
ENDBRANCH   7   8
ENDBRANCH   2   7
BRANCH   6  22
HETATM   22  O   UNK     0     150.475 153.219 149.154  0.00  0.00    -0.311 OA
BRANCH  22  23
HETATM   23  C   UNK     0     151.232 152.344 148.408  0.00  0.00     0.157 A 
HETATM   24  C   UNK     0     152.528 152.090 148.665  0.00  0.00     0.124 A 
HETATM   25  O   UNK     0     153.327 151.240 147.916  0.00  0.00    -0.306 OA
HETATM   26  C   UNK     0     152.768 150.591 146.845  0.00  0.00     0.096 A 
HETATM   27  C   UNK     0     151.436 150.758 146.474  0.00  0.00     0.084 A 
HETATM   28  C   UNK     0     153.594 149.735 146.116  0.00  0.00     0.075 A 
HETATM   29  C   UNK     0     150.586 151.668 147.257  0.00  0.00     0.223 A 
HETATM   30  C   UNK     0     150.919 150.071 145.371  0.00  0.00     0.085 A 
HETATM   31  O   UNK     0     149.411 151.858 146.974  0.00  0.00    -0.284 OA
HETATM   32  C   UNK     0     151.749 149.215 144.644  0.00  0.00     0.074 A 
HETATM   33  C   UNK     0     153.083 149.048 145.016  0.00  0.00     0.071 A 
BRANCH  24  34
HETATM   34  C   UNK     0     153.252 152.721 149.783  0.00  0.00     0.004 A 
HETATM   35  C   UNK     0     154.212 153.700 149.528  0.00  0.00     0.053 A 
HETATM   36  C   UNK     0     154.896 154.299 150.585  0.00  0.00     0.099 A 
HETATM   37  C   UNK     0     154.622 153.918 151.899  0.00  0.00     0.098 A 
HETATM   38  C   UNK     0     153.662 152.938 152.154  0.00  0.00     0.040 A 
HETATM   39  C   UNK     0     152.977 152.341 151.097  0.00  0.00     0.017 A 
BRANCH  36  40
HETATM   40  O   UNK     0     155.833 155.254 150.323  0.00  0.00    -0.358 OA
HETATM   41  H   UNK     0     156.596 154.849 149.880  0.00  0.00     0.217 HD
ENDBRANCH  36  40
BRANCH  37  42
HETATM   42  O   UNK     0     155.283 154.496 152.940  0.00  0.00    -0.358 OA
HETATM   43  H   UNK     0     155.513 153.821 153.597  0.00  0.00     0.217 HD
ENDBRANCH  37  42
ENDBRANCH  24  34
BRANCH  30  44
HETATM   44  O   UNK     0     149.626 150.198 144.966  0.00  0.00    -0.360 OA
HETATM   45  H   UNK     0     149.587 150.768 144.177  0.00  0.00     0.217 HD
ENDBRANCH  30  44
BRANCH  33  46
HETATM   46  O   UNK     0     153.887 148.212 144.303  0.00  0.00    -0.361 OA
HETATM   47  H   UNK     0     154.096 147.434 144.848  0.00  0.00     0.217 HD
ENDBRANCH  33  46
ENDBRANCH  22  23
ENDBRANCH   6  22
BRANCH   3  48
HETATM   48  O   UNK     0     149.351 158.406 147.645  0.00  0.00    -0.390 OA
HETATM   49  H   UNK     0     148.729 158.971 148.134  0.00  0.00     0.210 HD
ENDBRANCH   3  48
BRANCH   5  50
HETATM   50  O   UNK     0     147.841 153.913 148.382  0.00  0.00    -0.388 OA
HETATM   51  H   UNK     0     148.025 153.077 148.841  0.00  0.00     0.210 HD
ENDBRANCH   5  50
BRANCH   4  52
HETATM   52  O   UNK     0     147.282 156.772 148.830  0.00  0.00    -0.390 OA
HETATM   53  H   UNK     0     146.933 157.465 148.245  0.00  0.00     0.210 HD
ENDBRANCH   4  52
TORSDOF 16
ENDMDL
MODEL 2
REMARK VINA RESULT:      -8.9      2.136      8.501
REMARK  16 active torsions:
REMARK  status: ('A' for Active; 'I' for Inactive)
REMARK    1  A    between atoms: O_2  and  C_22 
REMARK    2  A    between atoms: O_2  and  C_26 
REMARK    3  A    between atoms: O_4  and  C_18 
REMARK    4  A    between atoms: O_5  and  C_19 
REMARK    5  A    between atoms: O_6  and  C_25 
REMARK    6  A    between atoms: O_6  and  C_29 
REMARK    7  A    between atoms: O_7  and  C_20 
REMARK    8  A    between atoms: O_8  and  C_21 
REMARK    9  A    between atoms: O_9  and  C_23 
REMARK   10  A    between atoms: O_10  and  C_24 
REMARK   11  A    between atoms: O_13  and  C_35 
REMARK   12  A    between atoms: O_14  and  C_40 
REMARK   13  A    between atoms: O_15  and  C_41 
REMARK   14  A    between atoms: O_16  and  C_43 
REMARK   15  A    between atoms: C_17  and  C_26 
REMARK   16  A    between atoms: C_30  and  C_33 
ROOT
HETATM    1  O   UNK     0     151.894 155.275 151.421  0.00  0.00    -0.348 OA
HETATM    2  C   UNK     0     152.622 154.047 151.367  0.00  0.00     0.180 C 
HETATM    3  C   UNK     0     153.162 153.699 152.757  0.00  0.00     0.180 C 
HETATM    4  C   UNK     0     154.014 154.841 153.310  0.00  0.00     0.183 C 
HETATM    5  C   UNK     0     153.288 156.181 153.193  0.00  0.00     0.205 C 
HETATM    6  C   UNK     0     152.715 156.381 151.790  0.00  0.00     0.298 C 
ENDROOT
BRANCH   2   7
HETATM    7  C   UNK     0     151.673 152.974 150.843  0.00  0.00     0.205 C 
BRANCH   7   8
HETATM    8  O   UNK     0     152.298 152.288 149.769  0.00  0.00    -0.356 OA
BRANCH   8   9
HETATM    9  C   UNK     0     152.126 152.982 148.538  0.00  0.00     0.291 C 
HETATM   10  O   UNK     0     151.024 152.478 147.777  0.00  0.00    -0.351 OA
HETATM   11  C   UNK     0     151.184 151.125 147.339  0.00  0.00     0.152 C 
HETATM   12  C   UNK     0     152.433 150.973 146.460  0.00  0.00     0.178 C 
HETATM   13  C   UNK     0     149.909 150.745 146.590  0.00  0.00     0.042 C 
HETATM   14  C   UNK     0     153.663 151.503 147.199  0.00  0.00     0.183 C 
HETATM   15  C   UNK     0     153.418 152.919 147.724  0.00  0.00     0.204 C 
BRANCH  12  16
HETATM   16  O   UNK     0     152.658 149.599 146.154  0.00  0.00    -0.390 OA
HETATM   17  H   UNK     0     153.023 149.172 146.948  0.00  0.00     0.210 HD
ENDBRANCH  12  16
BRANCH  14  18
HETATM   18  O   UNK     0     154.780 151.500 146.314  0.00  0.00    -0.390 OA
HETATM   19  H   UNK     0     155.189 152.383 146.348  0.00  0.00     0.210 HD
ENDBRANCH  14  18
BRANCH  15  20
HETATM   20  O   UNK     0     153.289 153.829 146.631  0.00  0.00    -0.388 OA
HETATM   21  H   UNK     0     152.701 154.554 146.903  0.00  0.00     0.210 HD
ENDBRANCH  15  20
ENDBRANCH   8   9
ENDBRANCH   7   8
ENDBRANCH   2   7
BRANCH   6  22
HETATM   22  O   UNK     0     151.936 157.577 151.800  0.00  0.00    -0.311 OA
BRANCH  22  23
HETATM   23  C   UNK     0     152.075 158.283 150.625  0.00  0.00     0.157 A 
HETATM   24  C   UNK     0     151.171 158.240 149.630  0.00  0.00     0.124 A 
HETATM   25  O   UNK     0     151.296 158.912 148.424  0.00  0.00    -0.306 OA
HETATM   26  C   UNK     0     152.403 159.694 148.223  0.00  0.00     0.096 A 
HETATM   27  C   UNK     0     153.412 159.834 149.174  0.00  0.00     0.084 A 
HETATM   28  C   UNK     0     152.496 160.365 147.003  0.00  0.00     0.075 A 
HETATM   29  C   UNK     0     153.291 159.113 150.451  0.00  0.00     0.223 A 
HETATM   30  C   UNK     0     154.520 160.645 148.914  0.00  0.00     0.085 A 
HETATM   31  O   UNK     0     154.148 159.194 151.321  0.00  0.00    -0.284 OA
HETATM   32  C   UNK     0     154.610 161.316 147.692  0.00  0.00     0.074 A 
HETATM   33  C   UNK     0     153.600 161.176 146.740  0.00  0.00     0.071 A 
BRANCH  24  34
HETATM   34  C   UNK     0     149.938 157.437 149.715  0.00  0.00     0.004 A 
HETATM   35  C   UNK     0     149.913 156.140 149.203  0.00  0.00     0.053 A 
HETATM   36  C   UNK     0     148.748 155.379 149.284  0.00  0.00     0.099 A 
HETATM   37  C   UNK     0     147.605 155.915 149.877  0.00  0.00     0.098 A 
HETATM   38  C   UNK     0     147.628 157.213 150.388  0.00  0.00     0.040 A 
HETATM   39  C   UNK     0     148.795 157.973 150.308  0.00  0.00     0.017 A 
BRANCH  36  40
HETATM   40  O   UNK     0     148.736 154.113 148.778  0.00  0.00    -0.358 OA
HETATM   41  H   UNK     0     148.244 154.100 147.941  0.00  0.00     0.217 HD
ENDBRANCH  36  40
BRANCH  37  42
HETATM   42  O   UNK     0     146.460 155.182 149.962  0.00  0.00    -0.358 OA
HETATM   43  H   UNK     0     146.363 154.632 149.169  0.00  0.00     0.217 HD
ENDBRANCH  37  42
ENDBRANCH  24  34
BRANCH  30  44
HETATM   44  O   UNK     0     155.532 160.815 149.808  0.00  0.00    -0.360 OA
HETATM   45  H   UNK     0     156.379 160.584 149.388  0.00  0.00     0.217 HD
ENDBRANCH  30  44
BRANCH  33  46
HETATM   46  O   UNK     0     153.693 161.832 145.550  0.00  0.00    -0.361 OA
HETATM   47  H   UNK     0     154.537 162.313 145.520  0.00  0.00     0.217 HD
ENDBRANCH  33  46
ENDBRANCH  22  23
ENDBRANCH   6  22
BRANCH   3  48
HETATM   48  O   UNK     0     153.955 152.518 152.671  0.00  0.00    -0.390 OA
HETATM   49  H   UNK     0     154.616 152.649 151.972  0.00  0.00     0.210 HD
ENDBRANCH   3  48
BRANCH   5  50
HETATM   50  O   UNK     0     154.205 157.242 153.458  0.00  0.00    -0.388 OA
HETATM   51  H   UNK     0     154.566 157.547 152.609  0.00  0.00     0.210 HD
ENDBRANCH   5  50
BRANCH   4  52
HETATM   52  O   UNK     0     154.283 154.564 154.686  0.00  0.00    -0.390 OA
HETATM   53  H   UNK     0     155.194 154.852 154.868  0.00  0.00     0.210 HD
ENDBRANCH   4  52
TORSDOF 16
ENDMDL
MODEL 3
REMARK VINA RESULT:      -8.8      2.140      8.325
REMARK  16 active torsions:
REMARK  status: ('A' for Active; 'I' for Inactive)
REMARK    1  A    between atoms: O_2  and  C_22 
REMARK    2  A    between atoms: O_2  and  C_26 
REMARK    3  A    between atoms: O_4  and  C_18 
REMARK    4  A    between atoms: O_5  and  C_19 
REMARK    5  A    between atoms: O_6  and  C_25 
REMARK    6  A    between atoms: O_6  and  C_29 
REMARK    7  A    between atoms: O_7  and  C_20 
REMARK    8  A    between atoms: O_8  and  C_21 
REMARK    9  A    between atoms: O_9  and  C_23 
REMARK   10  A    between atoms: O_10  and  C_24 
REMARK   11  A    between atoms: O_13  and  C_35 
REMARK   12  A    between atoms: O_14  and  C_40 
REMARK   13  A    between atoms: O_15  and  C_41 
REMARK   14  A    between atoms: O_16  and  C_43 
REMARK   15  A    between atoms: C_17  and  C_26 
REMARK   16  A    between atoms: C_30  and  C_33 
ROOT
HETATM    1  O   UNK     0     150.645 153.117 149.277  0.00  0.00    -0.348 OA
HETATM    2  C   UNK     0     151.650 152.703 148.350  0.00  0.00     0.180 C 
HETATM    3  C   UNK     0     152.499 151.587 148.965  0.00  0.00     0.180 C 
HETATM    4  C   UNK     0     153.104 152.036 150.295  0.00  0.00     0.183 C 
HETATM    5  C   UNK     0     152.042 152.647 151.208  0.00  0.00     0.205 C 
HETATM    6  C   UNK     0     151.198 153.682 150.464  0.00  0.00     0.298 C 
ENDROOT
BRANCH   2   7
HETATM    7  C   UNK     0     150.941 152.239 147.081  0.00  0.00     0.205 C 
BRANCH   7   8
HETATM    8  O   UNK     0     151.910 151.983 146.076  0.00  0.00    -0.356 OA
BRANCH   8   9
HETATM    9  C   UNK     0     151.359 151.232 145.000  0.00  0.00     0.291 C 
HETATM   10  O   UNK     0     151.406 149.822 145.239  0.00  0.00    -0.351 OA
HETATM   11  C   UNK     0     152.730 149.286 145.332  0.00  0.00     0.152 C 
HETATM   12  C   UNK     0     153.520 149.542 144.041  0.00  0.00     0.178 C 
HETATM   13  C   UNK     0     152.588 147.795 145.630  0.00  0.00     0.042 C 
HETATM   14  C   UNK     0     153.510 151.033 143.705  0.00  0.00     0.183 C 
HETATM   15  C   UNK     0     152.082 151.584 143.701  0.00  0.00     0.204 C 
BRANCH  12  16
HETATM   16  O   UNK     0     154.877 149.133 144.204  0.00  0.00    -0.390 OA
HETATM   17  H   UNK     0     155.430 149.707 143.647  0.00  0.00     0.210 HD
ENDBRANCH  12  16
BRANCH  14  18
HETATM   18  O   UNK     0     154.110 151.231 142.427  0.00  0.00    -0.390 OA
HETATM   19  H   UNK     0     153.699 152.016 142.024  0.00  0.00     0.210 HD
ENDBRANCH  14  18
BRANCH  15  20
HETATM   20  O   UNK     0     151.342 151.010 142.622  0.00  0.00    -0.388 OA
HETATM   21  H   UNK     0     150.931 151.731 142.114  0.00  0.00     0.210 HD
ENDBRANCH  15  20
ENDBRANCH   8   9
ENDBRANCH   7   8
ENDBRANCH   2   7
BRANCH   6  22
HETATM   22  O   UNK     0     150.145 154.098 151.334  0.00  0.00    -0.311 OA
BRANCH  22  23
HETATM   23  C   UNK     0     149.636 155.323 150.963  0.00  0.00     0.157 A 
HETATM   24  C   UNK     0     150.356 156.458 150.994  0.00  0.00     0.124 A 
HETATM   25  O   UNK     0     149.865 157.711 150.659  0.00  0.00    -0.306 OA
HETATM   26  C   UNK     0     148.562 157.814 150.247  0.00  0.00     0.096 A 
HETATM   27  C   UNK     0     147.709 156.716 150.161  0.00  0.00     0.084 A 
HETATM   28  C   UNK     0     148.100 159.086 149.907  0.00  0.00     0.075 A 
HETATM   29  C   UNK     0     148.220 155.386 150.528  0.00  0.00     0.223 A 
HETATM   30  C   UNK     0     146.387 156.881 149.735  0.00  0.00     0.085 A 
HETATM   31  O   UNK     0     147.515 154.387 150.477  0.00  0.00    -0.284 OA
HETATM   32  C   UNK     0     145.928 158.154 149.396  0.00  0.00     0.074 A 
HETATM   33  C   UNK     0     146.782 159.254 149.481  0.00  0.00     0.071 A 
BRANCH  24  34
HETATM   34  C   UNK     0     151.767 156.490 151.420  0.00  0.00     0.004 A 
HETATM   35  C   UNK     0     152.091 156.371 152.771  0.00  0.00     0.053 A 
HETATM   36  C   UNK     0     153.426 156.399 153.174  0.00  0.00     0.099 A 
HETATM   37  C   UNK     0     154.438 156.547 152.226  0.00  0.00     0.098 A 
HETATM   38  C   UNK     0     154.114 156.668 150.874  0.00  0.00     0.040 A 
HETATM   39  C   UNK     0     152.779 156.638 150.472  0.00  0.00     0.017 A 
BRANCH  36  40
HETATM   40  O   UNK     0     153.730 156.283 154.498  0.00  0.00    -0.358 OA
HETATM   41  H   UNK     0     154.099 155.402 154.672  0.00  0.00     0.217 HD
ENDBRANCH  36  40
BRANCH  37  42
HETATM   42  O   UNK     0     155.745 156.576 152.607  0.00  0.00    -0.358 OA
HETATM   43  H   UNK     0     156.050 157.495 152.664  0.00  0.00     0.217 HD
ENDBRANCH  37  42
ENDBRANCH  24  34
BRANCH  30  44
HETATM   44  O   UNK     0     145.513 155.842 149.634  0.00  0.00    -0.360 OA
HETATM   45  H   UNK     0     145.670 155.365 148.800  0.00  0.00     0.217 HD
ENDBRANCH  30  44
BRANCH  33  46
HETATM   46  O   UNK     0     146.329 160.494 149.150  0.00  0.00    -0.361 OA
HETATM   47  H   UNK     0     145.549 160.402 148.576  0.00  0.00     0.217 HD
ENDBRANCH  33  46
ENDBRANCH  22  23
ENDBRANCH   6  22
BRANCH   3  48
HETATM   48  O   UNK     0     153.547 151.241 148.063  0.00  0.00    -0.390 OA
HETATM   49  H   UNK     0     153.445 151.781 147.261  0.00  0.00     0.210 HD
ENDBRANCH   3  48
BRANCH   5  50
HETATM   50  O   UNK     0     152.679 153.296 152.308  0.00  0.00    -0.388 OA
HETATM   51  H   UNK     0     152.698 152.674 153.055  0.00  0.00     0.210 HD
ENDBRANCH   5  50
BRANCH   4  52
HETATM   52  O   UNK     0     153.675 150.890 150.929  0.00  0.00    -0.390 OA
HETATM   53  H   UNK     0     153.590 150.143 150.312  0.00  0.00     0.210 HD
ENDBRANCH   4  52
TORSDOF 16
ENDMDL
MODEL 4
REMARK VINA RESULT:      -8.6      1.742      2.348
REMARK  16 active torsions:
REMARK  status: ('A' for Active; 'I' for Inactive)
REMARK    1  A    between atoms: O_2  and  C_22 
REMARK    2  A    between atoms: O_2  and  C_26 
REMARK    3  A    between atoms: O_4  and  C_18 
REMARK    4  A    between atoms: O_5  and  C_19 
REMARK    5  A    between atoms: O_6  and  C_25 
REMARK    6  A    between atoms: O_6  and  C_29 
REMARK    7  A    between atoms: O_7  and  C_20 
REMARK    8  A    between atoms: O_8  and  C_21 
REMARK    9  A    between atoms: O_9  and  C_23 
REMARK   10  A    between atoms: O_10  and  C_24 
REMARK   11  A    between atoms: O_13  and  C_35 
REMARK   12  A    between atoms: O_14  and  C_40 
REMARK   13  A    between atoms: O_15  and  C_41 
REMARK   14  A    between atoms: O_16  and  C_43 
REMARK   15  A    between atoms: C_17  and  C_26 
REMARK   16  A    between atoms: C_30  and  C_33 
ROOT
HETATM    1  O   UNK     0     150.672 155.375 149.918  0.00  0.00    -0.348 OA
HETATM    2  C   UNK     0     150.258 156.740 149.837  0.00  0.00     0.180 C 
HETATM    3  C   UNK     0     148.801 156.871 150.288  0.00  0.00     0.180 C 
HETATM    4  C   UNK     0     147.895 155.953 149.468  0.00  0.00     0.183 C 
HETATM    5  C   UNK     0     148.451 154.530 149.414  0.00  0.00     0.205 C 
HETATM    6  C   UNK     0     149.933 154.527 149.041  0.00  0.00     0.298 C 
ENDROOT
BRANCH   2   7
HETATM    7  C   UNK     0     151.198 157.558 150.718  0.00  0.00     0.205 C 
BRANCH   7   8
HETATM    8  O   UNK     0     152.504 157.516 150.162  0.00  0.00    -0.356 OA
BRANCH   8   9
HETATM    9  C   UNK     0     152.859 158.763 149.572  0.00  0.00     0.291 C 
HETATM   10  O   UNK     0     153.269 158.623 148.208  0.00  0.00    -0.351 OA
HETATM   11  C   UNK     0     154.465 157.856 148.031  0.00  0.00     0.152 C 
HETATM   12  C   UNK     0     155.643 158.489 148.785  0.00  0.00     0.178 C 
HETATM   13  C   UNK     0     154.725 157.774 146.529  0.00  0.00     0.042 C 
HETATM   14  C   UNK     0     155.281 158.685 150.257  0.00  0.00     0.183 C 
HETATM   15  C   UNK     0     153.954 159.433 150.399  0.00  0.00     0.204 C 
BRANCH  12  16
HETATM   16  O   UNK     0     156.785 157.638 148.719  0.00  0.00    -0.390 OA
HETATM   17  H   UNK     0     157.568 158.173 148.933  0.00  0.00     0.210 HD
ENDBRANCH  12  16
BRANCH  14  18
HETATM   18  O   UNK     0     156.321 159.415 150.903  0.00  0.00    -0.390 OA
HETATM   19  H   UNK     0     156.269 159.224 151.856  0.00  0.00     0.210 HD
ENDBRANCH  14  18
BRANCH  15  20
HETATM   20  O   UNK     0     154.097 160.774 149.926  0.00  0.00    -0.388 OA
HETATM   21  H   UNK     0     155.044 160.998 149.923  0.00  0.00     0.210 HD
ENDBRANCH  15  20
ENDBRANCH   8   9
ENDBRANCH   7   8
ENDBRANCH   2   7
BRANCH   6  22
HETATM   22  O   UNK     0     150.412 153.187 149.151  0.00  0.00    -0.311 OA
BRANCH  22  23
HETATM   23  C   UNK     0     151.210 152.844 148.082  0.00  0.00     0.157 A 
HETATM   24  C   UNK     0     152.553 152.913 148.116  0.00  0.00     0.124 A 
HETATM   25  O   UNK     0     153.383 152.607 147.049  0.00  0.00    -0.306 OA
HETATM   26  C   UNK     0     152.813 152.183 145.877  0.00  0.00     0.096 A 
HETATM   27  C   UNK     0     151.435 152.059 145.709  0.00  0.00     0.084 A 
HETATM   28  C   UNK     0     153.675 151.873 144.824  0.00  0.00     0.075 A 
HETATM   29  C   UNK     0     150.548 152.395 146.833  0.00  0.00     0.223 A 
HETATM   30  C   UNK     0     150.909 151.623 144.490  0.00  0.00     0.085 A 
HETATM   31  O   UNK     0     149.331 152.310 146.743  0.00  0.00    -0.284 OA
HETATM   32  C   UNK     0     151.774 151.313 143.439  0.00  0.00     0.074 A 
HETATM   33  C   UNK     0     153.153 151.437 143.606  0.00  0.00     0.071 A 
BRANCH  24  34
HETATM   34  C   UNK     0     153.293 153.354 149.311  0.00  0.00     0.004 A 
HETATM   35  C   UNK     0     153.215 152.616 150.493  0.00  0.00     0.053 A 
HETATM   36  C   UNK     0     153.917 153.032 151.624  0.00  0.00     0.099 A 
HETATM   37  C   UNK     0     154.697 154.188 151.574  0.00  0.00     0.098 A 
HETATM   38  C   UNK     0     154.775 154.926 150.394  0.00  0.00     0.040 A 
HETATM   39  C   UNK     0     154.074 154.509 149.263  0.00  0.00     0.017 A 
BRANCH  36  40
HETATM   40  O   UNK     0     153.832 152.304 152.772  0.00  0.00    -0.358 OA
HETATM   41  H   UNK     0     154.663 151.823 152.917  0.00  0.00     0.217 HD
ENDBRANCH  36  40
BRANCH  37  42
HETATM   42  O   UNK     0     155.387 154.604 152.672  0.00  0.00    -0.358 OA
HETATM   43  H   UNK     0     155.645 155.533 152.564  0.00  0.00     0.217 HD
ENDBRANCH  37  42
ENDBRANCH  24  34
BRANCH  30  44
HETATM   44  O   UNK     0     149.572 151.485 144.274  0.00  0.00    -0.360 OA
HETATM   45  H   UNK     0     149.126 152.334 144.440  0.00  0.00     0.217 HD
ENDBRANCH  30  44
BRANCH  33  46
HETATM   46  O   UNK     0     153.992 151.134 142.578  0.00  0.00    -0.361 OA
HETATM   47  H   UNK     0     153.887 150.195 142.351  0.00  0.00     0.217 HD
ENDBRANCH  33  46
ENDBRANCH  22  23
ENDBRANCH   6  22
BRANCH   3  48
HETATM   48  O   UNK     0     148.377 158.222 150.123  0.00  0.00    -0.390 OA
HETATM   49  H   UNK     0     149.169 158.785 150.102  0.00  0.00     0.210 HD
ENDBRANCH   3  48
BRANCH   5  50
HETATM   50  O   UNK     0     147.740 153.781 148.429  0.00  0.00    -0.388 OA
HETATM   51  H   UNK     0     147.250 154.406 147.869  0.00  0.00     0.210 HD
ENDBRANCH   5  50
BRANCH   4  52
HETATM   52  O   UNK     0     146.607 155.937 150.087  0.00  0.00    -0.390 OA
HETATM   53  H   UNK     0     146.245 155.041 149.982  0.00  0.00     0.210 HD
ENDBRANCH   4  52
TORSDOF 16
ENDMDL
MODEL 5
REMARK VINA RESULT:      -8.6      1.527      2.103
REMARK  16 active torsions:
REMARK  status: ('A' for Active; 'I' for Inactive)
REMARK    1  A    between atoms: O_2  and  C_22 
REMARK    2  A    between atoms: O_2  and  C_26 
REMARK    3  A    between atoms: O_4  and  C_18 
REMARK    4  A    between atoms: O_5  and  C_19 
REMARK    5  A    between atoms: O_6  and  C_25 
REMARK    6  A    between atoms: O_6  and  C_29 
REMARK    7  A    between atoms: O_7  and  C_20 
REMARK    8  A    between atoms: O_8  and  C_21 
REMARK    9  A    between atoms: O_9  and  C_23 
REMARK   10  A    between atoms: O_10  and  C_24 
REMARK   11  A    between atoms: O_13  and  C_35 
REMARK   12  A    between atoms: O_14  and  C_40 
REMARK   13  A    between atoms: O_15  and  C_41 
REMARK   14  A    between atoms: O_16  and  C_43 
REMARK   15  A    between atoms: C_17  and  C_26 
REMARK   16  A    between atoms: C_30  and  C_33 
ROOT
HETATM    1  O   UNK     0     150.976 155.542 150.318  0.00  0.00    -0.348 OA
HETATM    2  C   UNK     0     150.773 156.932 150.054  0.00  0.00     0.180 C 
HETATM    3  C   UNK     0     149.307 157.300 150.296  0.00  0.00     0.180 C 
HETATM    4  C   UNK     0     148.381 156.422 149.455  0.00  0.00     0.183 C 
HETATM    5  C   UNK     0     148.731 154.942 149.609  0.00  0.00     0.205 C 
HETATM    6  C   UNK     0     150.231 154.705 149.436  0.00  0.00     0.298 C 
ENDROOT
BRANCH   2   7
HETATM    7  C   UNK     0     151.711 157.714 150.969  0.00  0.00     0.205 C 
BRANCH   7   8
HETATM    8  O   UNK     0     152.291 158.780 150.233  0.00  0.00    -0.356 OA
BRANCH   8   9
HETATM    9  C   UNK     0     153.462 159.278 150.873  0.00  0.00     0.291 C 
HETATM   10  O   UNK     0     153.859 160.556 150.366  0.00  0.00    -0.351 OA
HETATM   11  C   UNK     0     154.250 160.546 148.990  0.00  0.00     0.152 C 
HETATM   12  C   UNK     0     155.432 159.593 148.760  0.00  0.00     0.178 C 
HETATM   13  C   UNK     0     154.594 161.985 148.612  0.00  0.00     0.042 C 
HETATM   14  C   UNK     0     155.093 158.199 149.287  0.00  0.00     0.183 C 
HETATM   15  C   UNK     0     154.597 158.266 150.733  0.00  0.00     0.204 C 
BRANCH  12  16
HETATM   16  O   UNK     0     155.714 159.484 147.366  0.00  0.00    -0.390 OA
HETATM   17  H   UNK     0     155.138 160.109 146.895  0.00  0.00     0.210 HD
ENDBRANCH  12  16
BRANCH  14  18
HETATM   18  O   UNK     0     156.253 157.373 149.209  0.00  0.00    -0.390 OA
HETATM   19  H   UNK     0     156.038 156.520 149.625  0.00  0.00     0.210 HD
ENDBRANCH  14  18
BRANCH  15  20
HETATM   20  O   UNK     0     155.659 158.681 151.593  0.00  0.00    -0.388 OA
HETATM   21  H   UNK     0     156.480 158.717 151.073  0.00  0.00     0.210 HD
ENDBRANCH  15  20
ENDBRANCH   8   9
ENDBRANCH   7   8
ENDBRANCH   2   7
BRANCH   6  22
HETATM   22  O   UNK     0     150.498 153.334 149.734  0.00  0.00    -0.311 OA
BRANCH  22  23
HETATM   23  C   UNK     0     151.400 152.789 148.848  0.00  0.00     0.157 A 
HETATM   24  C   UNK     0     152.725 152.755 149.077  0.00  0.00     0.124 A 
HETATM   25  O   UNK     0     153.663 152.243 148.193  0.00  0.00    -0.306 OA
HETATM   26  C   UNK     0     153.223 151.713 147.007  0.00  0.00     0.096 A 
HETATM   27  C   UNK     0     151.877 151.677 146.650  0.00  0.00     0.084 A 
HETATM   28  C   UNK     0     154.190 151.197 146.143  0.00  0.00     0.075 A 
HETATM   29  C   UNK     0     150.879 152.230 147.577  0.00  0.00     0.223 A 
HETATM   30  C   UNK     0     151.487 151.125 145.426  0.00  0.00     0.085 A 
HETATM   31  O   UNK     0     149.684 152.231 147.314  0.00  0.00    -0.284 OA
HETATM   32  C   UNK     0     152.456 150.609 144.564  0.00  0.00     0.074 A 
HETATM   33  C   UNK     0     153.803 150.644 144.922  0.00  0.00     0.071 A 
BRANCH  24  34
HETATM   34  C   UNK     0     153.331 153.292 150.308  0.00  0.00     0.004 A 
HETATM   35  C   UNK     0     154.442 154.131 150.230  0.00  0.00     0.053 A 
HETATM   36  C   UNK     0     155.015 154.641 151.395  0.00  0.00     0.099 A 
HETATM   37  C   UNK     0     154.477 154.312 152.639  0.00  0.00     0.098 A 
HETATM   38  C   UNK     0     153.366 153.472 152.717  0.00  0.00     0.040 A 
HETATM   39  C   UNK     0     152.793 152.963 151.552  0.00  0.00     0.017 A 
BRANCH  36  40
HETATM   40  O   UNK     0     156.102 155.459 151.307  0.00  0.00    -0.358 OA
HETATM   41  H   UNK     0     156.910 154.923 151.254  0.00  0.00     0.217 HD
ENDBRANCH  36  40
BRANCH  37  42
HETATM   42  O   UNK     0     155.027 154.804 153.784  0.00  0.00    -0.358 OA
HETATM   43  H   UNK     0     154.782 154.239 154.534  0.00  0.00     0.217 HD
ENDBRANCH  37  42
ENDBRANCH  24  34
BRANCH  30  44
HETATM   44  O   UNK     0     150.186 151.066 145.029  0.00  0.00    -0.360 OA
HETATM   45  H   UNK     0     149.681 151.775 145.462  0.00  0.00     0.217 HD
ENDBRANCH  30  44
BRANCH  33  46
HETATM   46  O   UNK     0     154.745 150.140 144.077  0.00  0.00    -0.361 OA
HETATM   47  H   UNK     0     155.605 150.542 144.287  0.00  0.00     0.217 HD
ENDBRANCH  33  46
ENDBRANCH  22  23
ENDBRANCH   6  22
BRANCH   3  48
HETATM   48  O   UNK     0     149.102 158.667 149.950  0.00  0.00    -0.390 OA
HETATM   49  H   UNK     0     149.110 159.190 150.769  0.00  0.00     0.210 HD
ENDBRANCH   3  48
BRANCH   5  50
HETATM   50  O   UNK     0     148.040 154.185 148.616  0.00  0.00    -0.388 OA
HETATM   51  H   UNK     0     147.966 153.269 148.932  0.00  0.00     0.210 HD
ENDBRANCH   5  50
BRANCH   4  52
HETATM   52  O   UNK     0     147.041 156.642 149.899  0.00  0.00    -0.390 OA
HETATM   53  H   UNK     0     146.459 156.546 149.126  0.00  0.00     0.210 HD
ENDBRANCH   4  52
TORSDOF 16
ENDMDL
MODEL 6
REMARK VINA RESULT:      -8.6      3.587      6.569
REMARK  16 active torsions:
REMARK  status: ('A' for Active; 'I' for Inactive)
REMARK    1  A    between atoms: O_2  and  C_22 
REMARK    2  A    between atoms: O_2  and  C_26 
REMARK    3  A    between atoms: O_4  and  C_18 
REMARK    4  A    between atoms: O_5  and  C_19 
REMARK    5  A    between atoms: O_6  and  C_25 
REMARK    6  A    between atoms: O_6  and  C_29 
REMARK    7  A    between atoms: O_7  and  C_20 
REMARK    8  A    between atoms: O_8  and  C_21 
REMARK    9  A    between atoms: O_9  and  C_23 
REMARK   10  A    between atoms: O_10  and  C_24 
REMARK   11  A    between atoms: O_13  and  C_35 
REMARK   12  A    between atoms: O_14  and  C_40 
REMARK   13  A    between atoms: O_15  and  C_41 
REMARK   14  A    between atoms: O_16  and  C_43 
REMARK   15  A    between atoms: C_17  and  C_26 
REMARK   16  A    between atoms: C_30  and  C_33 
ROOT
HETATM    1  O   UNK     0     152.738 156.852 150.805  0.00  0.00    -0.348 OA
HETATM    2  C   UNK     0     153.146 157.000 152.166  0.00  0.00     0.180 C 
HETATM    3  C   UNK     0     153.561 155.642 152.737  0.00  0.00     0.180 C 
HETATM    4  C   UNK     0     152.430 154.624 152.590  0.00  0.00     0.183 C 
HETATM    5  C   UNK     0     151.881 154.608 151.164  0.00  0.00     0.205 C 
HETATM    6  C   UNK     0     151.586 156.023 150.666  0.00  0.00     0.298 C 
ENDROOT
BRANCH   2   7
HETATM    7  C   UNK     0     154.297 158.001 152.194  0.00  0.00     0.205 C 
BRANCH   7   8
HETATM    8  O   UNK     0     154.316 158.718 150.969  0.00  0.00    -0.356 OA
BRANCH   8   9
HETATM    9  C   UNK     0     155.606 158.686 150.367  0.00  0.00     0.291 C 
HETATM   10  O   UNK     0     156.114 159.996 150.095  0.00  0.00    -0.351 OA
HETATM   11  C   UNK     0     155.352 160.732 149.134  0.00  0.00     0.152 C 
HETATM   12  C   UNK     0     155.297 159.992 147.790  0.00  0.00     0.178 C 
HETATM   13  C   UNK     0     156.006 162.106 149.003  0.00  0.00     0.042 C 
HETATM   14  C   UNK     0     154.773 158.571 147.994  0.00  0.00     0.183 C 
HETATM   15  C   UNK     0     155.559 157.849 149.090  0.00  0.00     0.204 C 
BRANCH  12  16
HETATM   16  O   UNK     0     154.417 160.665 146.891  0.00  0.00    -0.390 OA
HETATM   17  H   UNK     0     153.707 160.046 146.650  0.00  0.00     0.210 HD
ENDBRANCH  12  16
BRANCH  14  18
HETATM   18  O   UNK     0     154.877 157.851 146.767  0.00  0.00    -0.390 OA
HETATM   19  H   UNK     0     155.549 158.293 146.220  0.00  0.00     0.210 HD
ENDBRANCH  14  18
BRANCH  15  20
HETATM   20  O   UNK     0     156.905 157.633 148.662  0.00  0.00    -0.388 OA
HETATM   21  H   UNK     0     157.101 156.683 148.734  0.00  0.00     0.210 HD
ENDBRANCH  15  20
ENDBRANCH   8   9
ENDBRANCH   7   8
ENDBRANCH   2   7
BRANCH   6  22
HETATM   22  O   UNK     0     151.217 155.938 149.291  0.00  0.00    -0.311 OA
BRANCH  22  23
HETATM   23  C   UNK     0     149.884 156.233 149.104  0.00  0.00     0.157 A 
HETATM   24  C   UNK     0     149.367 157.458 149.310  0.00  0.00     0.124 A 
HETATM   25  O   UNK     0     148.027 157.781 149.163  0.00  0.00    -0.306 OA
HETATM   26  C   UNK     0     147.158 156.799 148.761  0.00  0.00     0.096 A 
HETATM   27  C   UNK     0     147.563 155.491 148.505  0.00  0.00     0.084 A 
HETATM   28  C   UNK     0     145.818 157.157 148.612  0.00  0.00     0.075 A 
HETATM   29  C   UNK     0     148.981 155.139 148.672  0.00  0.00     0.223 A 
HETATM   30  C   UNK     0     146.632 154.531 148.099  0.00  0.00     0.085 A 
HETATM   31  O   UNK     0     149.394 154.005 148.468  0.00  0.00    -0.284 OA
HETATM   32  C   UNK     0     145.292 154.892 147.951  0.00  0.00     0.074 A 
HETATM   33  C   UNK     0     144.886 156.202 148.206  0.00  0.00     0.071 A 
BRANCH  24  34
HETATM   34  C   UNK     0     150.189 158.601 149.746  0.00  0.00     0.004 A 
HETATM   35  C   UNK     0     150.174 159.003 151.082  0.00  0.00     0.053 A 
HETATM   36  C   UNK     0     150.952 160.084 151.495  0.00  0.00     0.099 A 
HETATM   37  C   UNK     0     151.745 160.765 150.572  0.00  0.00     0.098 A 
HETATM   38  C   UNK     0     151.760 160.364 149.236  0.00  0.00     0.040 A 
HETATM   39  C   UNK     0     150.983 159.283 148.823  0.00  0.00     0.017 A 
BRANCH  36  40
HETATM   40  O   UNK     0     150.927 160.467 152.802  0.00  0.00    -0.358 OA
HETATM   41  H   UNK     0     151.500 159.883 153.325  0.00  0.00     0.217 HD
ENDBRANCH  36  40
BRANCH  37  42
HETATM   42  O   UNK     0     152.510 161.822 150.963  0.00  0.00    -0.358 OA
HETATM   43  H   UNK     0     153.346 161.820 150.472  0.00  0.00     0.217 HD
ENDBRANCH  37  42
ENDBRANCH  24  34
BRANCH  30  44
HETATM   44  O   UNK     0     146.975 153.240 147.837  0.00  0.00    -0.360 OA
HETATM   45  H   UNK     0     147.396 152.850 148.623  0.00  0.00     0.217 HD
ENDBRANCH  30  44
BRANCH  33  46
HETATM   46  O   UNK     0     143.578 156.549 148.061  0.00  0.00    -0.361 OA
HETATM   47  H   UNK     0     143.217 156.099 147.278  0.00  0.00     0.217 HD
ENDBRANCH  33  46
ENDBRANCH  22  23
ENDBRANCH   6  22
BRANCH   3  48
HETATM   48  O   UNK     0     153.885 155.791 154.117  0.00  0.00    -0.390 OA
HETATM   49  H   UNK     0     154.113 156.722 154.274  0.00  0.00     0.210 HD
ENDBRANCH   3  48
BRANCH   5  50
HETATM   50  O   UNK     0     150.665 153.860 151.132  0.00  0.00    -0.388 OA
HETATM   51  H   UNK     0     149.949 154.436 151.447  0.00  0.00     0.210 HD
ENDBRANCH   5  50
BRANCH   4  52
HETATM   52  O   UNK     0     152.954 153.334 152.912  0.00  0.00    -0.390 OA
HETATM   53  H   UNK     0     153.710 153.467 153.509  0.00  0.00     0.210 HD
ENDBRANCH   4  52
TORSDOF 16
ENDMDL
MODEL 7
REMARK VINA RESULT:      -8.5      4.085      7.485
REMARK  16 active torsions:
REMARK  status: ('A' for Active; 'I' for Inactive)
REMARK    1  A    between atoms: O_2  and  C_22 
REMARK    2  A    between atoms: O_2  and  C_26 
REMARK    3  A    between atoms: O_4  and  C_18 
REMARK    4  A    between atoms: O_5  and  C_19 
REMARK    5  A    between atoms: O_6  and  C_25 
REMARK    6  A    between atoms: O_6  and  C_29 
REMARK    7  A    between atoms: O_7  and  C_20 
REMARK    8  A    between atoms: O_8  and  C_21 
REMARK    9  A    between atoms: O_9  and  C_23 
REMARK   10  A    between atoms: O_10  and  C_24 
REMARK   11  A    between atoms: O_13  and  C_35 
REMARK   12  A    between atoms: O_14  and  C_40 
REMARK   13  A    between atoms: O_15  and  C_41 
REMARK   14  A    between atoms: O_16  and  C_43 
REMARK   15  A    between atoms: C_17  and  C_26 
REMARK   16  A    between atoms: C_30  and  C_33 
ROOT
HETATM    1  O   UNK     0     152.802 159.405 149.640  0.00  0.00    -0.348 OA
HETATM    2  C   UNK     0     153.436 160.115 148.574  0.00  0.00     0.180 C 
HETATM    3  C   UNK     0     154.751 159.428 148.199  0.00  0.00     0.180 C 
HETATM    4  C   UNK     0     155.664 159.301 149.419  0.00  0.00     0.183 C 
HETATM    5  C   UNK     0     154.916 158.705 150.611  0.00  0.00     0.205 C 
HETATM    6  C   UNK     0     153.578 159.410 150.836  0.00  0.00     0.298 C 
ENDROOT
BRANCH   2   7
HETATM    7  C   UNK     0     152.461 160.147 147.401  0.00  0.00     0.205 C 
BRANCH   7   8
HETATM    8  O   UNK     0     152.400 161.469 146.886  0.00  0.00    -0.356 OA
BRANCH   8   9
HETATM    9  C   UNK     0     151.057 161.934 146.801  0.00  0.00     0.291 C 
HETATM   10  O   UNK     0     150.973 163.266 146.285  0.00  0.00    -0.351 OA
HETATM   11  C   UNK     0     151.581 164.257 147.119  0.00  0.00     0.152 C 
HETATM   12  C   UNK     0     150.933 164.280 148.511  0.00  0.00     0.178 C 
HETATM   13  C   UNK     0     151.436 165.596 146.400  0.00  0.00     0.042 C 
HETATM   14  C   UNK     0     150.972 162.883 149.131  0.00  0.00     0.183 C 
HETATM   15  C   UNK     0     150.391 161.842 148.172  0.00  0.00     0.204 C 
BRANCH  12  16
HETATM   16  O   UNK     0     151.644 165.167 149.372  0.00  0.00    -0.390 OA
HETATM   17  H   UNK     0     152.595 165.016 149.237  0.00  0.00     0.210 HD
ENDBRANCH  12  16
BRANCH  14  18
HETATM   18  O   UNK     0     150.229 162.890 150.349  0.00  0.00    -0.390 OA
HETATM   19  H   UNK     0     150.855 163.046 151.077  0.00  0.00     0.210 HD
ENDBRANCH  14  18
BRANCH  15  20
HETATM   20  O   UNK     0     148.993 162.072 147.993  0.00  0.00    -0.388 OA
HETATM   21  H   UNK     0     148.872 162.969 147.637  0.00  0.00     0.210 HD
ENDBRANCH  15  20
ENDBRANCH   8   9
ENDBRANCH   7   8
ENDBRANCH   2   7
BRANCH   6  22
HETATM   22  O   UNK     0     152.879 158.710 151.865  0.00  0.00    -0.311 OA
BRANCH  22  23
HETATM   23  C   UNK     0     151.668 158.229 151.420  0.00  0.00     0.157 A 
HETATM   24  C   UNK     0     151.450 156.931 151.141  0.00  0.00     0.124 A 
HETATM   25  O   UNK     0     150.255 156.419 150.661  0.00  0.00    -0.306 OA
HETATM   26  C   UNK     0     149.205 157.280 150.469  0.00  0.00     0.096 A 
HETATM   27  C   UNK     0     149.292 158.646 150.727  0.00  0.00     0.084 A 
HETATM   28  C   UNK     0     148.012 156.734 149.994  0.00  0.00     0.075 A 
HETATM   29  C   UNK     0     150.562 159.197 151.224  0.00  0.00     0.223 A 
HETATM   30  C   UNK     0     148.189 159.477 150.512  0.00  0.00     0.085 A 
HETATM   31  O   UNK     0     150.700 160.390 151.462  0.00  0.00    -0.284 OA
HETATM   32  C   UNK     0     146.997 158.928 150.037  0.00  0.00     0.074 A 
HETATM   33  C   UNK     0     146.908 157.560 149.779  0.00  0.00     0.071 A 
BRANCH  24  34
HETATM   34  C   UNK     0     152.492 155.901 151.300  0.00  0.00     0.004 A 
HETATM   35  C   UNK     0     152.644 155.244 152.521  0.00  0.00     0.053 A 
HETATM   36  C   UNK     0     153.629 154.268 152.671  0.00  0.00     0.099 A 
HETATM   37  C   UNK     0     154.464 153.950 151.601  0.00  0.00     0.098 A 
HETATM   38  C   UNK     0     154.314 154.607 150.380  0.00  0.00     0.040 A 
HETATM   39  C   UNK     0     153.328 155.582 150.230  0.00  0.00     0.017 A 
BRANCH  36  40
HETATM   40  O   UNK     0     153.768 153.634 153.870  0.00  0.00    -0.358 OA
HETATM   41  H   UNK     0     153.533 152.697 153.773  0.00  0.00     0.217 HD
ENDBRANCH  36  40
BRANCH  37  42
HETATM   42  O   UNK     0     155.429 152.998 151.735  0.00  0.00    -0.358 OA
HETATM   43  H   UNK     0     155.139 152.325 152.371  0.00  0.00     0.217 HD
ENDBRANCH  37  42
ENDBRANCH  24  34
BRANCH  30  44
HETATM   44  O   UNK     0     148.222 160.818 150.746  0.00  0.00    -0.360 OA
HETATM   45  H   UNK     0     148.448 161.286 149.924  0.00  0.00     0.217 HD
ENDBRANCH  30  44
BRANCH  33  46
HETATM   46  O   UNK     0     145.744 157.030 149.316  0.00  0.00    -0.361 OA
HETATM   47  H   UNK     0     145.188 156.777 150.073  0.00  0.00     0.217 HD
ENDBRANCH  33  46
ENDBRANCH  22  23
ENDBRANCH   6  22
BRANCH   3  48
HETATM   48  O   UNK     0     155.412 160.192 147.194  0.00  0.00    -0.390 OA
HETATM   49  H   UNK     0     156.115 159.641 146.811  0.00  0.00     0.210 HD
ENDBRANCH   3  48
BRANCH   5  50
HETATM   50  O   UNK     0     155.705 158.856 151.791  0.00  0.00    -0.388 OA
HETATM   51  H   UNK     0     155.103 158.997 152.540  0.00  0.00     0.210 HD
ENDBRANCH   5  50
BRANCH   4  52
HETATM   52  O   UNK     0     156.755 158.448 149.068  0.00  0.00    -0.390 OA
HETATM   53  H   UNK     0     156.440 157.844 148.374  0.00  0.00     0.210 HD
ENDBRANCH   4  52
TORSDOF 16
ENDMDL
MODEL 8
REMARK VINA RESULT:      -8.5      2.444      8.963
REMARK  16 active torsions:
REMARK  status: ('A' for Active; 'I' for Inactive)
REMARK    1  A    between atoms: O_2  and  C_22 
REMARK    2  A    between atoms: O_2  and  C_26 
REMARK    3  A    between atoms: O_4  and  C_18 
REMARK    4  A    between atoms: O_5  and  C_19 
REMARK    5  A    between atoms: O_6  and  C_25 
REMARK    6  A    between atoms: O_6  and  C_29 
REMARK    7  A    between atoms: O_7  and  C_20 
REMARK    8  A    between atoms: O_8  and  C_21 
REMARK    9  A    between atoms: O_9  and  C_23 
REMARK   10  A    between atoms: O_10  and  C_24 
REMARK   11  A    between atoms: O_13  and  C_35 
REMARK   12  A    between atoms: O_14  and  C_40 
REMARK   13  A    between atoms: O_15  and  C_41 
REMARK   14  A    between atoms: O_16  and  C_43 
REMARK   15  A    between atoms: C_17  and  C_26 
REMARK   16  A    between atoms: C_30  and  C_33 
ROOT
HETATM    1  O   UNK     0     149.874 152.990 147.741  0.00  0.00    -0.348 OA
HETATM    2  C   UNK     0     150.580 152.835 146.508  0.00  0.00     0.180 C 
HETATM    3  C   UNK     0     151.712 151.819 146.680  0.00  0.00     0.180 C 
HETATM    4  C   UNK     0     152.644 152.233 147.819  0.00  0.00     0.183 C 
HETATM    5  C   UNK     0     151.855 152.573 149.084  0.00  0.00     0.205 C 
HETATM    6  C   UNK     0     150.696 153.522 148.777  0.00  0.00     0.298 C 
ENDROOT
BRANCH   2   7
HETATM    7  C   UNK     0     149.571 152.384 145.456  0.00  0.00     0.205 C 
BRANCH   7   8
HETATM    8  O   UNK     0     149.581 150.967 145.383  0.00  0.00    -0.356 OA
BRANCH   8   9
HETATM    9  C   UNK     0     149.769 150.515 144.046  0.00  0.00     0.291 C 
HETATM   10  O   UNK     0     148.548 150.496 143.299  0.00  0.00    -0.351 OA
HETATM   11  C   UNK     0     147.573 149.573 143.794  0.00  0.00     0.152 C 
HETATM   12  C   UNK     0     148.118 148.138 143.785  0.00  0.00     0.178 C 
HETATM   13  C   UNK     0     146.334 149.718 142.913  0.00  0.00     0.042 C 
HETATM   14  C   UNK     0     149.436 148.072 144.557  0.00  0.00     0.183 C 
HETATM   15  C   UNK     0     150.418 149.132 144.054  0.00  0.00     0.204 C 
BRANCH  12  16
HETATM   16  O   UNK     0     147.192 147.254 144.414  0.00  0.00    -0.390 OA
HETATM   17  H   UNK     0     146.310 147.660 144.363  0.00  0.00     0.210 HD
ENDBRANCH  12  16
BRANCH  14  18
HETATM   18  O   UNK     0     150.005 146.773 144.405  0.00  0.00    -0.390 OA
HETATM   19  H   UNK     0     150.182 146.635 143.459  0.00  0.00     0.210 HD
ENDBRANCH  14  18
BRANCH  15  20
HETATM   20  O   UNK     0     150.818 148.831 142.716  0.00  0.00    -0.388 OA
HETATM   21  H   UNK     0     150.646 147.888 142.550  0.00  0.00     0.210 HD
ENDBRANCH  15  20
ENDBRANCH   8   9
ENDBRANCH   7   8
ENDBRANCH   2   7
BRANCH   6  22
HETATM   22  O   UNK     0     149.928 153.677 149.970  0.00  0.00    -0.311 OA
BRANCH  22  23
HETATM   23  C   UNK     0     149.287 154.896 150.006  0.00  0.00     0.157 A 
HETATM   24  C   UNK     0     149.840 156.000 150.539  0.00  0.00     0.124 A 
HETATM   25  O   UNK     0     149.211 157.233 150.621  0.00  0.00    -0.306 OA
HETATM   26  C   UNK     0     147.945 157.357 150.109  0.00  0.00     0.096 A 
HETATM   27  C   UNK     0     147.261 156.295 149.521  0.00  0.00     0.084 A 
HETATM   28  C   UNK     0     147.342 158.612 150.197  0.00  0.00     0.075 A 
HETATM   29  C   UNK     0     147.918 154.981 149.444  0.00  0.00     0.223 A 
HETATM   30  C   UNK     0     145.971 156.479 149.017  0.00  0.00     0.085 A 
HETATM   31  O   UNK     0     147.364 154.011 148.944  0.00  0.00    -0.284 OA
HETATM   32  C   UNK     0     145.370 157.736 149.106  0.00  0.00     0.074 A 
HETATM   33  C   UNK     0     146.055 158.800 149.694  0.00  0.00     0.071 A 
BRANCH  24  34
HETATM   34  C   UNK     0     151.192 156.006 151.126  0.00  0.00     0.004 A 
HETATM   35  C   UNK     0     151.431 155.349 152.333  0.00  0.00     0.053 A 
HETATM   36  C   UNK     0     152.711 155.353 152.888  0.00  0.00     0.099 A 
HETATM   37  C   UNK     0     153.752 156.014 152.236  0.00  0.00     0.098 A 
HETATM   38  C   UNK     0     153.512 156.671 151.029  0.00  0.00     0.040 A 
HETATM   39  C   UNK     0     152.233 156.666 150.474  0.00  0.00     0.017 A 
BRANCH  36  40
HETATM   40  O   UNK     0     152.932 154.709 154.069  0.00  0.00    -0.358 OA
HETATM   41  H   UNK     0     152.308 153.971 154.160  0.00  0.00     0.217 HD
ENDBRANCH  36  40
BRANCH  37  42
HETATM   42  O   UNK     0     155.006 156.024 152.767  0.00  0.00    -0.358 OA
HETATM   43  H   UNK     0     155.426 156.882 152.599  0.00  0.00     0.217 HD
ENDBRANCH  37  42
ENDBRANCH  24  34
BRANCH  30  44
HETATM   44  O   UNK     0     145.259 155.476 148.434  0.00  0.00    -0.360 OA
HETATM   45  H   UNK     0     144.668 155.847 147.756  0.00  0.00     0.217 HD
ENDBRANCH  30  44
BRANCH  33  46
HETATM   46  O   UNK     0     145.465 160.024 149.779  0.00  0.00    -0.361 OA
HETATM   47  H   UNK     0     145.673 160.531 148.975  0.00  0.00     0.217 HD
ENDBRANCH  33  46
ENDBRANCH  22  23
ENDBRANCH   6  22
BRANCH   3  48
HETATM   48  O   UNK     0     152.458 151.736 145.468  0.00  0.00    -0.390 OA
HETATM   49  H   UNK     0     152.144 152.438 144.873  0.00  0.00     0.210 HD
ENDBRANCH   3  48
BRANCH   5  50
HETATM   50  O   UNK     0     152.719 153.209 150.024  0.00  0.00    -0.388 OA
HETATM   51  H   UNK     0     152.313 153.135 150.904  0.00  0.00     0.210 HD
ENDBRANCH   5  50
BRANCH   4  52
HETATM   52  O   UNK     0     153.524 151.140 148.087  0.00  0.00    -0.390 OA
HETATM   53  H   UNK     0     152.974 150.353 148.240  0.00  0.00     0.210 HD
ENDBRANCH   4  52
TORSDOF 16
ENDMDL
MODEL 9
REMARK VINA RESULT:      -8.5      4.756      7.701
REMARK  16 active torsions:
REMARK  status: ('A' for Active; 'I' for Inactive)
REMARK    1  A    between atoms: O_2  and  C_22 
REMARK    2  A    between atoms: O_2  and  C_26 
REMARK    3  A    between atoms: O_4  and  C_18 
REMARK    4  A    between atoms: O_5  and  C_19 
REMARK    5  A    between atoms: O_6  and  C_25 
REMARK    6  A    between atoms: O_6  and  C_29 
REMARK    7  A    between atoms: O_7  and  C_20 
REMARK    8  A    between atoms: O_8  and  C_21 
REMARK    9  A    between atoms: O_9  and  C_23 
REMARK   10  A    between atoms: O_10  and  C_24 
REMARK   11  A    between atoms: O_13  and  C_35 
REMARK   12  A    between atoms: O_14  and  C_40 
REMARK   13  A    between atoms: O_15  and  C_41 
REMARK   14  A    between atoms: O_16  and  C_43 
REMARK   15  A    between atoms: C_17  and  C_26 
REMARK   16  A    between atoms: C_30  and  C_33 
ROOT
HETATM    1  O   UNK     0     150.960 160.427 148.219  0.00  0.00    -0.348 OA
HETATM    2  C   UNK     0     150.953 160.253 146.800  0.00  0.00     0.180 C 
HETATM    3  C   UNK     0     149.778 161.018 146.186  0.00  0.00     0.180 C 
HETATM    4  C   UNK     0     148.456 160.581 146.818  0.00  0.00     0.183 C 
HETATM    5  C   UNK     0     148.540 160.599 148.345  0.00  0.00     0.205 C 
HETATM    6  C   UNK     0     149.797 159.885 148.841  0.00  0.00     0.298 C 
ENDROOT
BRANCH   2   7
HETATM    7  C   UNK     0     152.293 160.754 146.270  0.00  0.00     0.205 C 
BRANCH   7   8
HETATM    8  O   UNK     0     153.251 160.706 147.317  0.00  0.00    -0.356 OA
BRANCH   8   9
HETATM    9  C   UNK     0     154.565 160.491 146.810  0.00  0.00     0.291 C 
HETATM   10  O   UNK     0     155.090 159.212 147.179  0.00  0.00    -0.351 OA
HETATM   11  C   UNK     0     155.279 159.040 148.587  0.00  0.00     0.152 C 
HETATM   12  C   UNK     0     156.246 160.092 149.147  0.00  0.00     0.178 C 
HETATM   13  C   UNK     0     155.796 157.619 148.797  0.00  0.00     0.042 C 
HETATM   14  C   UNK     0     155.762 161.496 148.784  0.00  0.00     0.183 C 
HETATM   15  C   UNK     0     155.490 161.611 147.283  0.00  0.00     0.204 C 
BRANCH  12  16
HETATM   16  O   UNK     0     156.310 159.998 150.568  0.00  0.00    -0.390 OA
HETATM   17  H   UNK     0     156.777 160.784 150.899  0.00  0.00     0.210 HD
ENDBRANCH  12  16
BRANCH  14  18
HETATM   18  O   UNK     0     156.749 162.449 149.173  0.00  0.00    -0.390 OA
HETATM   19  H   UNK     0     156.754 163.159 148.508  0.00  0.00     0.210 HD
ENDBRANCH  14  18
BRANCH  15  20
HETATM   20  O   UNK     0     156.714 161.501 146.556  0.00  0.00    -0.388 OA
HETATM   21  H   UNK     0     156.747 160.621 146.143  0.00  0.00     0.210 HD
ENDBRANCH  15  20
ENDBRANCH   8   9
ENDBRANCH   7   8
ENDBRANCH   2   7
BRANCH   6  22
HETATM   22  O   UNK     0     149.878 160.067 150.254  0.00  0.00    -0.311 OA
BRANCH  22  23
HETATM   23  C   UNK     0     151.038 159.533 150.769  0.00  0.00     0.157 A 
HETATM   24  C   UNK     0     152.048 160.286 151.240  0.00  0.00     0.124 A 
HETATM   25  O   UNK     0     153.241 159.782 151.735  0.00  0.00    -0.306 OA
HETATM   26  C   UNK     0     153.411 158.422 151.771  0.00  0.00     0.096 A 
HETATM   27  C   UNK     0     152.442 157.527 151.322  0.00  0.00     0.084 A 
HETATM   28  C   UNK     0     154.618 157.944 152.283  0.00  0.00     0.075 A 
HETATM   29  C   UNK     0     151.179 158.057 150.784  0.00  0.00     0.223 A 
HETATM   30  C   UNK     0     152.671 156.150 151.381  0.00  0.00     0.085 A 
HETATM   31  O   UNK     0     150.294 157.320 150.370  0.00  0.00    -0.284 OA
HETATM   32  C   UNK     0     153.879 155.675 151.894  0.00  0.00     0.074 A 
HETATM   33  C   UNK     0     154.850 156.570 152.344  0.00  0.00     0.071 A 
BRANCH  24  34
HETATM   34  C   UNK     0     151.996 161.758 151.258  0.00  0.00     0.004 A 
HETATM   35  C   UNK     0     151.402 162.423 152.331  0.00  0.00     0.053 A 
HETATM   36  C   UNK     0     151.355 163.817 152.349  0.00  0.00     0.099 A 
HETATM   37  C   UNK     0     151.900 164.547 151.293  0.00  0.00     0.098 A 
HETATM   38  C   UNK     0     152.494 163.883 150.219  0.00  0.00     0.040 A 
HETATM   39  C   UNK     0     152.542 162.489 150.202  0.00  0.00     0.017 A 
BRANCH  36  40
HETATM   40  O   UNK     0     150.770 164.455 153.402  0.00  0.00    -0.358 OA
HETATM   41  H   UNK     0     151.422 164.582 154.109  0.00  0.00     0.217 HD
ENDBRANCH  36  40
BRANCH  37  42
HETATM   42  O   UNK     0     151.860 165.908 151.299  0.00  0.00    -0.358 OA
HETATM   43  H   UNK     0     150.948 166.210 151.164  0.00  0.00     0.217 HD
ENDBRANCH  37  42
ENDBRANCH  24  34
BRANCH  30  44
HETATM   44  O   UNK     0     151.758 155.234 150.956  0.00  0.00    -0.360 OA
HETATM   45  H   UNK     0     152.208 154.394 150.758  0.00  0.00     0.217 HD
ENDBRANCH  30  44
BRANCH  33  46
HETATM   46  O   UNK     0     156.027 156.102 152.843  0.00  0.00    -0.361 OA
HETATM   47  H   UNK     0     156.203 155.223 152.466  0.00  0.00     0.217 HD
ENDBRANCH  33  46
ENDBRANCH  22  23
ENDBRANCH   6  22
BRANCH   3  48
HETATM   48  O   UNK     0     149.735 160.769 144.784  0.00  0.00    -0.390 OA
HETATM   49  H   UNK     0     150.134 159.898 144.621  0.00  0.00     0.210 HD
ENDBRANCH   3  48
BRANCH   5  50
HETATM   50  O   UNK     0     147.401 159.933 148.889  0.00  0.00    -0.388 OA
HETATM   51  H   UNK     0     146.604 160.330 148.500  0.00  0.00     0.210 HD
ENDBRANCH   5  50
BRANCH   4  52
HETATM   52  O   UNK     0     147.440 161.488 146.387  0.00  0.00    -0.390 OA
HETATM   53  H   UNK     0     147.061 161.131 145.566  0.00  0.00     0.210 HD
ENDBRANCH   4  52
TORSDOF 16
ENDMDL
MODEL 10
REMARK VINA RESULT:      -8.5      3.777      6.605
REMARK  16 active torsions:
REMARK  status: ('A' for Active; 'I' for Inactive)
REMARK    1  A    between atoms: O_2  and  C_22 
REMARK    2  A    between atoms: O_2  and  C_26 
REMARK    3  A    between atoms: O_4  and  C_18 
REMARK    4  A    between atoms: O_5  and  C_19 
REMARK    5  A    between atoms: O_6  and  C_25 
REMARK    6  A    between atoms: O_6  and  C_29 
REMARK    7  A    between atoms: O_7  and  C_20 
REMARK    8  A    between atoms: O_8  and  C_21 
REMARK    9  A    between atoms: O_9  and  C_23 
REMARK   10  A    between atoms: O_10  and  C_24 
REMARK   11  A    between atoms: O_13  and  C_35 
REMARK   12  A    between atoms: O_14  and  C_40 
REMARK   13  A    between atoms: O_15  and  C_41 
REMARK   14  A    between atoms: O_16  and  C_43 
REMARK   15  A    between atoms: C_17  and  C_26 
REMARK   16  A    between atoms: C_30  and  C_33 
ROOT
HETATM    1  O   UNK     0     150.961 159.964 149.239  0.00  0.00    -0.348 OA
HETATM    2  C   UNK     0     150.967 160.410 147.882  0.00  0.00     0.180 C 
HETATM    3  C   UNK     0     149.683 161.188 147.583  0.00  0.00     0.180 C 
HETATM    4  C   UNK     0     148.450 160.341 147.897  0.00  0.00     0.183 C 
HETATM    5  C   UNK     0     148.544 159.721 149.291  0.00  0.00     0.205 C 
HETATM    6  C   UNK     0     149.901 159.050 149.509  0.00  0.00     0.298 C 
ENDROOT
BRANCH   2   7
HETATM    7  C   UNK     0     152.209 161.274 147.688  0.00  0.00     0.205 C 
BRANCH   7   8
HETATM    8  O   UNK     0     153.231 160.816 148.561  0.00  0.00    -0.356 OA
BRANCH   8   9
HETATM    9  C   UNK     0     154.526 161.070 148.025  0.00  0.00     0.291 C 
HETATM   10  O   UNK     0     154.919 160.091 147.059  0.00  0.00    -0.351 OA
HETATM   11  C   UNK     0     155.067 158.770 147.591  0.00  0.00     0.152 C 
HETATM   12  C   UNK     0     156.123 158.740 148.705  0.00  0.00     0.178 C 
HETATM   13  C   UNK     0     155.442 157.859 146.424  0.00  0.00     0.042 C 
HETATM   14  C   UNK     0     155.782 159.773 149.780  0.00  0.00     0.183 C 
HETATM   15  C   UNK     0     155.547 161.151 149.159  0.00  0.00     0.204 C 
BRANCH  12  16
HETATM   16  O   UNK     0     156.154 157.454 149.321  0.00  0.00    -0.390 OA
HETATM   17  H   UNK     0     155.408 156.937 148.972  0.00  0.00     0.210 HD
ENDBRANCH  12  16
BRANCH  14  18
HETATM   18  O   UNK     0     156.850 159.841 150.722  0.00  0.00    -0.390 OA
HETATM   19  H   UNK     0     157.426 159.071 150.573  0.00  0.00     0.210 HD
ENDBRANCH  14  18
BRANCH  15  20
HETATM   20  O   UNK     0     156.767 161.653 148.611  0.00  0.00    -0.388 OA
HETATM   21  H   UNK     0     156.844 161.338 147.694  0.00  0.00     0.210 HD
ENDBRANCH  15  20
ENDBRANCH   8   9
ENDBRANCH   7   8
ENDBRANCH   2   7
BRANCH   6  22
HETATM   22  O   UNK     0     149.967 158.624 150.870  0.00  0.00    -0.311 OA
BRANCH  22  23
HETATM   23  C   UNK     0     150.949 157.677 151.058  0.00  0.00     0.157 A 
HETATM   24  C   UNK     0     150.784 156.377 150.756  0.00  0.00     0.124 A 
HETATM   25  O   UNK     0     151.739 155.394 150.963  0.00  0.00    -0.306 OA
HETATM   26  C   UNK     0     152.950 155.760 151.493  0.00  0.00     0.096 A 
HETATM   27  C   UNK     0     153.255 157.073 151.841  0.00  0.00     0.084 A 
HETATM   28  C   UNK     0     153.894 154.750 151.680  0.00  0.00     0.075 A 
HETATM   29  C   UNK     0     152.241 158.119 151.637  0.00  0.00     0.223 A 
HETATM   30  C   UNK     0     154.507 157.388 152.379  0.00  0.00     0.085 A 
HETATM   31  O   UNK     0     152.451 159.288 151.929  0.00  0.00    -0.284 OA
HETATM   32  C   UNK     0     155.450 156.376 152.565  0.00  0.00     0.074 A 
HETATM   33  C   UNK     0     155.145 155.060 152.216  0.00  0.00     0.071 A 
BRANCH  24  34
HETATM   34  C   UNK     0     149.532 155.849 150.184  0.00  0.00     0.004 A 
HETATM   35  C   UNK     0     149.435 155.618 148.812  0.00  0.00     0.053 A 
HETATM   36  C   UNK     0     148.252 155.117 148.270  0.00  0.00     0.099 A 
HETATM   37  C   UNK     0     147.164 154.849 149.100  0.00  0.00     0.098 A 
HETATM   38  C   UNK     0     147.260 155.081 150.473  0.00  0.00     0.040 A 
HETATM   39  C   UNK     0     148.444 155.581 151.014  0.00  0.00     0.017 A 
BRANCH  36  40
HETATM   40  O   UNK     0     148.169 154.896 146.928  0.00  0.00    -0.358 OA
HETATM   41  H   UNK     0     147.535 155.516 146.534  0.00  0.00     0.217 HD
ENDBRANCH  36  40
BRANCH  37  42
HETATM   42  O   UNK     0     146.003 154.359 148.583  0.00  0.00    -0.358 OA
HETATM   43  H   UNK     0     145.950 153.404 148.744  0.00  0.00     0.217 HD
ENDBRANCH  37  42
ENDBRANCH  24  34
BRANCH  30  44
HETATM   44  O   UNK     0     154.855 158.654 152.737  0.00  0.00    -0.360 OA
HETATM   45  H   UNK     0     154.265 159.290 152.297  0.00  0.00     0.217 HD
ENDBRANCH  30  44
BRANCH  33  46
HETATM   46  O   UNK     0     156.067 154.076 152.399  0.00  0.00    -0.361 OA
HETATM   47  H   UNK     0     156.881 154.313 151.922  0.00  0.00     0.217 HD
ENDBRANCH  33  46
ENDBRANCH  22  23
ENDBRANCH   6  22
BRANCH   3  48
HETATM   48  O   UNK     0     149.664 161.554 146.205  0.00  0.00    -0.390 OA
HETATM   49  H   UNK     0     148.866 162.086 146.046  0.00  0.00     0.210 HD
ENDBRANCH   3  48
BRANCH   5  50
HETATM   50  O   UNK     0     147.526 158.732 149.440  0.00  0.00    -0.388 OA
HETATM   51  H   UNK     0     147.596 158.360 150.335  0.00  0.00     0.210 HD
ENDBRANCH   5  50
BRANCH   4  52
HETATM   52  O   UNK     0     147.302 161.191 147.832  0.00  0.00    -0.390 OA
HETATM   53  H   UNK     0     147.328 161.649 146.974  0.00  0.00     0.210 HD
ENDBRANCH   4  52
TORSDOF 16
ENDMDL
