REMARK VINA RESULT:      -9.0      8.545     13.702
REMARK  13 active torsions:
REMARK  status: ('A' for Active; 'I' for Inactive)
REMARK    1  A    between atoms: C_4  and  O_5 
REMARK    2  A    between atoms: C_17  and  O_18 
REMARK    3  A    between atoms: C_30  and  O_31 
REMARK    4  A    between atoms: C_43  and  C_44 
REMARK    5  A    between atoms: O_5  and  C_6 
REMARK    6  A    between atoms: C_6  and  C_8 
REMARK    7  A    between atoms: O_18  and  C_19 
REMARK    8  A    between atoms: C_19  and  C_21 
REMARK    9  A    between atoms: O_31  and  C_32 
REMARK   10  A    between atoms: C_32  and  C_34 
REMARK   11  A    between atoms: C_44  and  O_45 
REMARK   12  A    between atoms: O_45  and  C_46 
REMARK   13  A    between atoms: C_46  and  C_48 
ROOT
ATOM      1  O   LIG     1     182.533 181.479 174.090  0.00  0.00    -0.320 OA
ATOM      2  C   LIG     1     183.127 182.699 174.578  0.00  0.00     0.313 C 
ATOM      3  O   LIG     1     184.033 182.321 175.606  0.00  0.00    -0.186 OA
ATOM      4  C   LIG     1     183.862 183.465 173.440  0.00  0.00     0.271 C 
ATOM      5  C   LIG     1     182.870 183.706 172.263  0.00  0.00     0.256 C 
ATOM      6  C   LIG     1     182.182 182.380 171.822  0.00  0.00     0.243 C 
ATOM      7  C   LIG     1     181.543 181.661 173.054  0.00  0.00     0.205 C 
ENDROOT
BRANCH   7   8
ATOM      8  C   LIG     1     180.966 180.268 172.690  0.00  0.00     0.242 C 
BRANCH   8   9
ATOM      9  O   LIG     1     181.994 179.271 172.557  0.00  0.00    -0.443 OA
BRANCH   9  10
ATOM     10  C   LIG     1     182.351 178.626 171.398  0.00  0.00     0.341 C 
ATOM     11  O   LIG     1     183.187 179.173 170.636  0.00  0.00    -0.245 OA
BRANCH  10  12
ATOM     12  C   LIG     1     181.800 177.353 171.068  0.00  0.00     0.082 A 
ATOM     13  C   LIG     1     182.638 176.223 170.906  0.00  0.00     0.052 A 
ATOM     14  C   LIG     1     182.109 174.967 170.552  0.00  0.00     0.238 A 
ATOM     15  O   LIG     1     182.967 173.927 170.383  0.00  0.00    -0.283 OA
ATOM     16  C   LIG     1     180.718 174.808 170.376  0.00  0.00     0.273 A 
ATOM     17  O   LIG     1     180.217 173.587 170.048  0.00  0.00    -0.280 OA
ATOM     18  C   LIG     1     179.865 175.918 170.541  0.00  0.00     0.238 A 
ATOM     19  O   LIG     1     178.527 175.773 170.370  0.00  0.00    -0.283 OA
ATOM     20  C   LIG     1     180.406 177.176 170.879  0.00  0.00     0.052 A 
ENDBRANCH  10  12
ENDBRANCH   9  10
ENDBRANCH   8   9
ENDBRANCH   7   8
BRANCH   6  21
ATOM     21  O   LIG     1     181.160 182.681 170.853  0.00  0.00    -0.443 OA
BRANCH  21  22
ATOM     22  C   LIG     1     180.923 182.132 169.622  0.00  0.00     0.341 C 
ATOM     23  O   LIG     1     181.616 182.623 168.702  0.00  0.00    -0.245 OA
BRANCH  22  24
ATOM     24  C   LIG     1     179.951 181.144 169.312  0.00  0.00     0.082 A 
ATOM     25  C   LIG     1     178.621 181.254 169.776  0.00  0.00     0.052 A 
ATOM     26  C   LIG     1     177.642 180.302 169.432  0.00  0.00     0.238 A 
ATOM     27  C   LIG     1     177.984 179.228 168.591  0.00  0.00     0.273 A 
ATOM     28  O   LIG     1     176.370 180.417 169.898  0.00  0.00    -0.283 OA
ATOM     29  C   LIG     1     179.308 179.090 168.127  0.00  0.00     0.238 A 
ATOM     30  O   LIG     1     177.036 178.331 168.227  0.00  0.00    -0.280 OA
ATOM     31  O   LIG     1     179.644 178.040 167.336  0.00  0.00    -0.283 OA
ATOM     32  C   LIG     1     180.282 180.042 168.488  0.00  0.00     0.052 A 
ENDBRANCH  22  24
ENDBRANCH  21  22
ENDBRANCH   6  21
BRANCH   5  33
ATOM     33  O   LIG     1     183.534 184.253 171.110  0.00  0.00    -0.441 OA
BRANCH  33  34
ATOM     34  C   LIG     1     183.477 185.541 170.663  0.00  0.00     0.342 C 
ATOM     35  O   LIG     1     182.509 186.210 171.093  0.00  0.00    -0.245 OA
BRANCH  34  36
ATOM     36  C   LIG     1     184.491 186.154 169.878  0.00  0.00     0.082 A 
ATOM     37  C   LIG     1     185.085 187.391 170.369  0.00  0.00     0.052 A 
ATOM     38  C   LIG     1     186.153 187.958 169.642  0.00  0.00     0.238 A 
ATOM     39  O   LIG     1     186.724 189.099 170.102  0.00  0.00    -0.283 OA
ATOM     40  C   LIG     1     186.653 187.370 168.458  0.00  0.00     0.273 A 
ATOM     41  O   LIG     1     187.694 187.954 167.810  0.00  0.00    -0.280 OA
ATOM     42  C   LIG     1     186.016 186.156 167.974  0.00  0.00     0.238 A 
ATOM     43  C   LIG     1     184.900 185.484 168.657  0.00  0.00     0.052 A 
ATOM     44  O   LIG     1     186.577 185.685 166.782  0.00  0.00    -0.283 OA
ENDBRANCH  34  36
ENDBRANCH  33  34
ENDBRANCH   5  33
BRANCH   4  45
ATOM     45  O   LIG     1     184.374 184.735 173.888  0.00  0.00    -0.440 OA
BRANCH  45  46
ATOM     46  C   LIG     1     185.677 185.061 174.143  0.00  0.00     0.342 C 
ATOM     47  O   LIG     1     185.956 185.209 175.355  0.00  0.00    -0.245 OA
BRANCH  46  48
ATOM     48  C   LIG     1     186.648 185.332 173.136  0.00  0.00     0.082 A 
ATOM     49  C   LIG     1     187.499 186.458 173.219  0.00  0.00     0.052 A 
ATOM     50  C   LIG     1     188.482 186.712 172.241  0.00  0.00     0.238 A 
ATOM     51  O   LIG     1     189.285 187.799 172.358  0.00  0.00    -0.283 OA
ATOM     52  C   LIG     1     188.629 185.832 171.148  0.00  0.00     0.273 A 
ATOM     53  O   LIG     1     189.591 186.033 170.207  0.00  0.00    -0.280 OA
ATOM     54  C   LIG     1     187.776 184.718 171.032  0.00  0.00     0.238 A 
ATOM     55  O   LIG     1     187.874 183.868 169.977  0.00  0.00    -0.283 OA
ATOM     56  C   LIG     1     186.804 184.469 172.021  0.00  0.00     0.052 A 
ENDBRANCH  46  48
ENDBRANCH  45  46
ENDBRANCH   4  45
TORSDOF 13
