REMARK VINA RESULT:      -8.9      7.272     12.576
REMARK  13 active torsions:
REMARK  status: ('A' for Active; 'I' for Inactive)
REMARK    1  A    between atoms: C_4  and  O_5 
REMARK    2  A    between atoms: C_17  and  O_18 
REMARK    3  A    between atoms: C_30  and  O_31 
REMARK    4  A    between atoms: C_43  and  C_44 
REMARK    5  A    between atoms: O_5  and  C_6 
REMARK    6  A    between atoms: C_6  and  C_8 
REMARK    7  A    between atoms: O_18  and  C_19 
REMARK    8  A    between atoms: C_19  and  C_21 
REMARK    9  A    between atoms: O_31  and  C_32 
REMARK   10  A    between atoms: C_32  and  C_34 
REMARK   11  A    between atoms: C_44  and  O_45 
REMARK   12  A    between atoms: O_45  and  C_46 
REMARK   13  A    between atoms: C_46  and  C_48 
ROOT
ATOM      1  O   LIG     1     178.890 182.632 170.045  0.00  0.00    -0.320 OA
ATOM      2  C   LIG     1     179.954 183.588 169.876  0.00  0.00     0.313 C 
ATOM      3  O   LIG     1     179.340 184.870 169.845  0.00  0.00    -0.186 OA
ATOM      4  C   LIG     1     180.990 183.494 171.034  0.00  0.00     0.271 C 
ATOM      5  C   LIG     1     181.509 182.029 171.137  0.00  0.00     0.256 C 
ATOM      6  C   LIG     1     180.328 181.016 171.229  0.00  0.00     0.243 C 
ATOM      7  C   LIG     1     179.316 181.251 170.061  0.00  0.00     0.205 C 
ENDROOT
BRANCH   7   8
ATOM      8  C   LIG     1     178.054 180.359 170.187  0.00  0.00     0.242 C 
BRANCH   8   9
ATOM      9  O   LIG     1     177.663 179.787 168.927  0.00  0.00    -0.443 OA
BRANCH   9  10
ATOM     10  C   LIG     1     178.381 178.870 168.197  0.00  0.00     0.341 C 
ATOM     11  O   LIG     1     178.930 179.244 167.131  0.00  0.00    -0.245 OA
BRANCH  10  12
ATOM     12  C   LIG     1     178.518 177.524 168.645  0.00  0.00     0.082 A 
ATOM     13  C   LIG     1     179.785 176.891 168.654  0.00  0.00     0.052 A 
ATOM     14  C   LIG     1     179.929 175.552 169.065  0.00  0.00     0.238 A 
ATOM     15  O   LIG     1     181.166 174.991 169.025  0.00  0.00    -0.283 OA
ATOM     16  C   LIG     1     178.805 174.820 169.503  0.00  0.00     0.273 A 
ATOM     17  O   LIG     1     178.958 173.533 169.912  0.00  0.00    -0.280 OA
ATOM     18  C   LIG     1     177.536 175.434 169.511  0.00  0.00     0.238 A 
ATOM     19  O   LIG     1     176.449 174.736 169.928  0.00  0.00    -0.283 OA
ATOM     20  C   LIG     1     177.398 176.770 169.080  0.00  0.00     0.052 A 
ENDBRANCH  10  12
ENDBRANCH   9  10
ENDBRANCH   8   9
ENDBRANCH   7   8
BRANCH   6  21
ATOM     21  O   LIG     1     180.853 179.677 171.153  0.00  0.00    -0.443 OA
BRANCH  21  22
ATOM     22  C   LIG     1     180.970 178.720 172.124  0.00  0.00     0.341 C 
ATOM     23  O   LIG     1     182.048 178.767 172.759  0.00  0.00    -0.245 OA
BRANCH  22  24
ATOM     24  C   LIG     1     180.038 177.687 172.407  0.00  0.00     0.082 A 
ATOM     25  C   LIG     1     180.466 176.368 172.681  0.00  0.00     0.052 A 
ATOM     26  C   LIG     1     179.549 175.351 173.009  0.00  0.00     0.238 A 
ATOM     27  C   LIG     1     178.177 175.652 173.088  0.00  0.00     0.273 A 
ATOM     28  O   LIG     1     179.978 174.084 173.256  0.00  0.00    -0.283 OA
ATOM     29  C   LIG     1     177.725 176.957 172.806  0.00  0.00     0.238 A 
ATOM     30  O   LIG     1     177.297 174.686 173.440  0.00  0.00    -0.280 OA
ATOM     31  O   LIG     1     176.400 177.242 172.858  0.00  0.00    -0.283 OA
ATOM     32  C   LIG     1     178.651 177.964 172.467  0.00  0.00     0.052 A 
ENDBRANCH  22  24
ENDBRANCH  21  22
ENDBRANCH   6  21
BRANCH   5  33
ATOM     33  O   LIG     1     182.335 181.836 172.299  0.00  0.00    -0.441 OA
BRANCH  33  34
ATOM     34  C   LIG     1     182.397 182.633 173.404  0.00  0.00     0.342 C 
ATOM     35  O   LIG     1     181.343 182.689 174.078  0.00  0.00    -0.245 OA
BRANCH  34  36
ATOM     36  C   LIG     1     183.587 183.261 173.864  0.00  0.00     0.082 A 
ATOM     37  C   LIG     1     183.459 184.391 174.775  0.00  0.00     0.052 A 
ATOM     38  C   LIG     1     184.635 184.961 175.306  0.00  0.00     0.238 A 
ATOM     39  O   LIG     1     184.525 186.001 176.170  0.00  0.00    -0.283 OA
ATOM     40  C   LIG     1     185.922 184.479 174.974  0.00  0.00     0.273 A 
ATOM     41  O   LIG     1     187.017 185.060 175.529  0.00  0.00    -0.280 OA
ATOM     42  C   LIG     1     186.018 183.375 174.033  0.00  0.00     0.238 A 
ATOM     43  C   LIG     1     184.856 182.707 173.427  0.00  0.00     0.052 A 
ATOM     44  O   LIG     1     187.339 183.005 173.762  0.00  0.00    -0.283 OA
ENDBRANCH  34  36
ENDBRANCH  33  34
ENDBRANCH   5  33
BRANCH   4  45
ATOM     45  O   LIG     1     182.112 184.374 170.828  0.00  0.00    -0.440 OA
BRANCH  45  46
ATOM     46  C   LIG     1     182.336 185.586 171.420  0.00  0.00     0.342 C 
ATOM     47  O   LIG     1     181.414 185.987 172.166  0.00  0.00    -0.245 OA
BRANCH  46  48
ATOM     48  C   LIG     1     183.464 186.413 171.149  0.00  0.00     0.082 A 
ATOM     49  C   LIG     1     184.688 186.233 171.834  0.00  0.00     0.052 A 
ATOM     50  C   LIG     1     185.816 187.029 171.546  0.00  0.00     0.238 A 
ATOM     51  O   LIG     1     186.976 186.823 172.219  0.00  0.00    -0.283 OA
ATOM     52  C   LIG     1     185.736 188.031 170.557  0.00  0.00     0.273 A 
ATOM     53  O   LIG     1     186.816 188.790 170.234  0.00  0.00    -0.280 OA
ATOM     54  C   LIG     1     184.519 188.243 169.879  0.00  0.00     0.238 A 
ATOM     55  O   LIG     1     184.402 189.219 168.941  0.00  0.00    -0.283 OA
ATOM     56  C   LIG     1     183.402 187.435 170.169  0.00  0.00     0.052 A 
ENDBRANCH  46  48
ENDBRANCH  45  46
ENDBRANCH   4  45
TORSDOF 13
