MODEL 1
REMARK VINA RESULT:     -10.7      0.000      0.000
REMARK  Name = 9823887
REMARK                            x       y       z     vdW  Elec       q    Type
REMARK                         _______ _______ _______ _____ _____    ______ ____
ROOT
ATOM      1  O   LIG    1        9.416  40.255  84.835  0.00  0.00    -0.341 OA
ATOM      2  C   LIG    1       10.033  39.883  83.605  0.00  0.00    +0.282 C 
ATOM      3  C   LIG    1       11.318  39.097  83.868  0.00  0.00    +0.201 C 
ATOM      4  C   LIG    1       11.063  37.903  84.787  0.00  0.00    +0.179 C 
ATOM      5  C   LIG    1       10.259  38.315  86.019  0.00  0.00    +0.177 C 
ATOM     22  C   LIG    1        9.024  39.125  85.617  0.00  0.00    +0.178 C 
ENDROOT
BRANCH   5   6
ATOM      6  O   LIG    1        9.847  37.148  86.726  0.00  0.00    -0.386 OA
ATOM      7  H   LIG    1        8.956  36.909  86.418  0.00  0.00    +0.210 HD
ENDBRANCH   5   6
BRANCH   4   8
ATOM      8  O   LIG    1       12.312  37.370  85.232  0.00  0.00    -0.386 OA
ATOM      9  H   LIG    1       12.860  37.216  84.444  0.00  0.00    +0.210 HD
ENDBRANCH   4   8
BRANCH   3  10
ATOM     10  O   LIG    1       11.822  38.632  82.615  0.00  0.00    -0.384 OA
ATOM     11  H   LIG    1       12.736  38.948  82.522  0.00  0.00    +0.210 HD
ENDBRANCH   3  10
BRANCH   2  12
ATOM     12  O   LIG    1       10.375  41.052  82.864  0.00  0.00    -0.345 OA
BRANCH  12  13
ATOM     13  C   LIG    1       11.338  41.836  83.551  0.00  0.00    +0.190 C 
BRANCH  13  14
ATOM     14  C   LIG    1       11.122  43.275  83.206  0.00  0.00    +0.001 C 
ATOM     15  C   LIG    1       10.126  44.014  83.717  0.00  0.00    +0.006 C 
BRANCH  15  16
ATOM     16  C   LIG    1        9.883  45.436  83.418  0.00  0.00    -0.025 A 
ATOM     17  C   LIG    1        9.202  46.217  84.339  0.00  0.00    +0.008 A 
ATOM     18  C   LIG    1        8.973  47.562  84.055  0.00  0.00    +0.001 A 
ATOM     19  C   LIG    1        9.426  48.110  82.856  0.00  0.00    +0.000 A 
ATOM     20  C   LIG    1       10.110  47.313  81.939  0.00  0.00    +0.001 A 
ATOM     21  C   LIG    1       10.340  45.966  82.222  0.00  0.00    +0.008 A 
ENDBRANCH  15  16
ENDBRANCH  13  14
ENDBRANCH  12  13
ENDBRANCH   2  12
BRANCH  22  23
ATOM     23  C   LIG    1        8.268  39.647  86.835  0.00  0.00    +0.197 C 
BRANCH  23  24
ATOM     24  O   LIG    1        7.857  38.541  87.617  0.00  0.00    -0.346 OA
BRANCH  24  25
ATOM     25  C   LIG    1        6.497  38.198  87.373  0.00  0.00    +0.281 C 
ATOM     26  C   LIG    1        6.396  36.723  86.956  0.00  0.00    +0.201 C 
ATOM     27  C   LIG    1        6.598  35.774  88.143  0.00  0.00    +0.178 C 
ATOM     28  C   LIG    1        5.716  36.203  89.316  0.00  0.00    +0.171 C 
ATOM     29  C   LIG    1        5.932  37.676  89.640  0.00  0.00    +0.197 C 
ATOM     36  O   LIG    1        5.660  38.486  88.499  0.00  0.00    -0.346 OA
BRANCH  28  30
ATOM     30  O   LIG    1        6.000  35.400  90.453  0.00  0.00    -0.387 OA
ATOM     31  H   LIG    1        6.575  34.671  90.161  0.00  0.00    +0.210 HD
ENDBRANCH  28  30
BRANCH  27  32
ATOM     32  O   LIG    1        7.966  35.799  88.547  0.00  0.00    -0.386 OA
ATOM     33  H   LIG    1        8.211  36.729  88.691  0.00  0.00    +0.210 HD
ENDBRANCH  27  32
BRANCH  26  34
ATOM     34  O   LIG    1        5.102  36.510  86.396  0.00  0.00    -0.384 OA
ATOM     35  H   LIG    1        4.543  36.084  87.067  0.00  0.00    +0.210 HD
ENDBRANCH  26  34
ENDBRANCH  24  25
ENDBRANCH  23  24
ENDBRANCH  22  23
TORSDOF 13
ENDMDL
MODEL 2
REMARK VINA RESULT:     -10.7     27.645     31.944
REMARK  Name = 9823887
REMARK                            x       y       z     vdW  Elec       q    Type
REMARK                         _______ _______ _______ _____ _____    ______ ____
ROOT
ATOM      1  O   LIG    1       30.579  19.259  89.410  0.00  0.00    -0.341 OA
ATOM      2  C   LIG    1       30.017  19.183  88.102  0.00  0.00    +0.282 C 
ATOM      3  C   LIG    1       28.709  19.973  88.035  0.00  0.00    +0.201 C 
ATOM      4  C   LIG    1       28.902  21.411  88.514  0.00  0.00    +0.179 C 
ATOM      5  C   LIG    1       29.652  21.456  89.845  0.00  0.00    +0.177 C 
ATOM     22  C   LIG    1       30.916  20.596  89.785  0.00  0.00    +0.178 C 
ENDROOT
BRANCH   5   6
ATOM      6  O   LIG    1       30.012  22.804  90.138  0.00  0.00    -0.386 OA
ATOM      7  H   LIG    1       30.208  22.861  91.090  0.00  0.00    +0.210 HD
ENDBRANCH   5   6
BRANCH   4   8
ATOM      8  O   LIG    1       27.626  22.024  88.705  0.00  0.00    -0.386 OA
ATOM      9  H   LIG    1       26.980  21.313  88.851  0.00  0.00    +0.210 HD
ENDBRANCH   4   8
BRANCH   3  10
ATOM     10  O   LIG    1       28.260  19.980  86.680  0.00  0.00    -0.384 OA
ATOM     11  H   LIG    1       28.102  19.060  86.410  0.00  0.00    +0.210 HD
ENDBRANCH   3  10
BRANCH   2  12
ATOM     12  O   LIG    1       29.728  17.824  87.780  0.00  0.00    -0.345 OA
BRANCH  12  13
ATOM     13  C   LIG    1       28.608  17.347  88.508  0.00  0.00    +0.190 C 
BRANCH  13  14
ATOM     14  C   LIG    1       28.823  15.904  88.832  0.00  0.00    +0.001 C 
ATOM     15  C   LIG    1       29.854  15.459  89.566  0.00  0.00    +0.006 C 
BRANCH  15  16
ATOM     16  C   LIG    1       30.099  14.050  89.922  0.00  0.00    -0.025 A 
ATOM     17  C   LIG    1       29.624  13.048  89.092  0.00  0.00    +0.008 A 
ATOM     18  C   LIG    1       29.855  11.715  89.429  0.00  0.00    +0.001 A 
ATOM     19  C   LIG    1       30.557  11.401  90.593  0.00  0.00    +0.000 A 
ATOM     20  C   LIG    1       31.029  12.420  91.419  0.00  0.00    +0.001 A 
ATOM     21  C   LIG    1       30.798  13.754  91.081  0.00  0.00    +0.008 A 
ENDBRANCH  15  16
ENDBRANCH  13  14
ENDBRANCH  12  13
ENDBRANCH   2  12
BRANCH  22  23
ATOM     23  C   LIG    1       31.620  20.531  91.138  0.00  0.00    +0.197 C 
BRANCH  23  24
ATOM     24  O   LIG    1       31.992  21.844  91.515  0.00  0.00    -0.346 OA
BRANCH  24  25
ATOM     25  C   LIG    1       33.372  22.092  91.271  0.00  0.00    +0.281 C 
ATOM     26  C   LIG    1       33.532  23.359  90.417  0.00  0.00    +0.201 C 
ATOM     27  C   LIG    1       33.272  24.636  91.224  0.00  0.00    +0.178 C 
ATOM     28  C   LIG    1       34.064  24.602  92.532  0.00  0.00    +0.171 C 
ATOM     29  C   LIG    1       33.796  23.308  93.289  0.00  0.00    +0.197 C 
ATOM     36  O   LIG    1       34.126  22.177  92.486  0.00  0.00    -0.346 OA
BRANCH  28  30
ATOM     30  O   LIG    1       33.722  25.725  93.332  0.00  0.00    -0.387 OA
ATOM     31  H   LIG    1       33.674  25.423  94.256  0.00  0.00    +0.210 HD
ENDBRANCH  28  30
BRANCH  27  32
ATOM     32  O   LIG    1       31.880  24.739  91.518  0.00  0.00    -0.386 OA
ATOM     33  H   LIG    1       31.559  25.570  91.127  0.00  0.00    +0.210 HD
ENDBRANCH  27  32
BRANCH  26  34
ATOM     34  O   LIG    1       34.865  23.384  89.910  0.00  0.00    -0.384 OA
ATOM     35  H   LIG    1       35.366  24.061  90.395  0.00  0.00    +0.210 HD
ENDBRANCH  26  34
ENDBRANCH  24  25
ENDBRANCH  23  24
ENDBRANCH  22  23
TORSDOF 13
ENDMDL
MODEL 3
REMARK VINA RESULT:     -10.2      2.132      5.547
REMARK  Name = 9823887
REMARK                            x       y       z     vdW  Elec       q    Type
REMARK                         _______ _______ _______ _____ _____    ______ ____
ROOT
ATOM      1  O   LIG    1        7.055  39.987  87.027  0.00  0.00    -0.341 OA
ATOM      2  C   LIG    1        6.656  40.981  87.968  0.00  0.00    +0.282 C 
ATOM      3  C   LIG    1        5.339  40.585  88.638  0.00  0.00    +0.201 C 
ATOM      4  C   LIG    1        5.425  39.188  89.252  0.00  0.00    +0.179 C 
ATOM      5  C   LIG    1        6.008  38.182  88.261  0.00  0.00    +0.177 C 
ATOM     22  C   LIG    1        7.300  38.719  87.638  0.00  0.00    +0.178 C 
ENDROOT
BRANCH   5   6
ATOM      6  O   LIG    1        6.285  36.959  88.938  0.00  0.00    -0.386 OA
ATOM      7  H   LIG    1        6.097  36.227  88.324  0.00  0.00    +0.210 HD
ENDBRANCH   5   6
BRANCH   4   8
ATOM      8  O   LIG    1        4.115  38.745  89.611  0.00  0.00    -0.386 OA
ATOM      9  H   LIG    1        4.076  38.711  90.582  0.00  0.00    +0.210 HD
ENDBRANCH   4   8
BRANCH   3  10
ATOM     10  O   LIG    1        5.055  41.537  89.662  0.00  0.00    -0.384 OA
ATOM     11  H   LIG    1        4.579  41.080  90.375  0.00  0.00    +0.210 HD
ENDBRANCH   3  10
BRANCH   2  12
ATOM     12  O   LIG    1        6.454  42.224  87.299  0.00  0.00    -0.345 OA
BRANCH  12  13
ATOM     13  C   LIG    1        6.960  43.309  88.061  0.00  0.00    +0.190 C 
BRANCH  13  14
ATOM     14  C   LIG    1        7.294  44.433  87.134  0.00  0.00    +0.001 C 
ATOM     15  C   LIG    1        8.357  44.422  86.315  0.00  0.00    +0.006 C 
BRANCH  15  16
ATOM     16  C   LIG    1        8.716  45.499  85.376  0.00  0.00    -0.025 A 
ATOM     17  C   LIG    1        8.312  46.797  85.645  0.00  0.00    +0.008 A 
ATOM     18  C   LIG    1        8.653  47.816  84.756  0.00  0.00    +0.001 A 
ATOM     19  C   LIG    1        9.393  47.525  83.610  0.00  0.00    +0.000 A 
ATOM     20  C   LIG    1        9.792  46.214  83.352  0.00  0.00    +0.001 A 
ATOM     21  C   LIG    1        9.451  45.194  84.242  0.00  0.00    +0.008 A 
ENDBRANCH  15  16
ENDBRANCH  13  14
ENDBRANCH  12  13
ENDBRANCH   2  12
BRANCH  22  23
ATOM     23  C   LIG    1        7.839  37.784  86.560  0.00  0.00    +0.197 C 
BRANCH  23  24
ATOM     24  O   LIG    1        9.049  38.323  86.059  0.00  0.00    -0.346 OA
BRANCH  24  25
ATOM     25  C   LIG    1        9.008  38.490  84.646  0.00  0.00    +0.281 C 
ATOM     26  C   LIG    1       10.362  39.012  84.142  0.00  0.00    +0.201 C 
ATOM     27  C   LIG    1       11.439  37.923  84.151  0.00  0.00    +0.178 C 
ATOM     28  C   LIG    1       10.913  36.656  83.475  0.00  0.00    +0.171 C 
ATOM     29  C   LIG    1        9.582  36.235  84.085  0.00  0.00    +0.197 C 
ATOM     36  O   LIG    1        8.624  37.285  83.974  0.00  0.00    -0.346 OA
BRANCH  28  30
ATOM     30  O   LIG    1       11.867  35.611  83.599  0.00  0.00    -0.387 OA
ATOM     31  H   LIG    1       12.094  35.530  84.542  0.00  0.00    +0.210 HD
ENDBRANCH  28  30
BRANCH  27  32
ATOM     32  O   LIG    1       11.803  37.622  85.498  0.00  0.00    -0.386 OA
ATOM     33  H   LIG    1       12.724  37.309  85.489  0.00  0.00    +0.210 HD
ENDBRANCH  27  32
BRANCH  26  34
ATOM     34  O   LIG    1       10.182  39.488  82.810  0.00  0.00    -0.384 OA
ATOM     35  H   LIG    1       10.001  40.442  82.845  0.00  0.00    +0.210 HD
ENDBRANCH  26  34
ENDBRANCH  24  25
ENDBRANCH  23  24
ENDBRANCH  22  23
TORSDOF 13
ENDMDL
MODEL 4
REMARK VINA RESULT:     -10.0     28.186     32.350
REMARK  Name = 9823887
REMARK                            x       y       z     vdW  Elec       q    Type
REMARK                         _______ _______ _______ _____ _____    ______ ____
ROOT
ATOM      1  O   LIG    1       32.921  20.470  91.394  0.00  0.00    -0.341 OA
ATOM      2  C   LIG    1       33.063  19.914  92.699  0.00  0.00    +0.282 C 
ATOM      3  C   LIG    1       34.267  20.528  93.415  0.00  0.00    +0.201 C 
ATOM      4  C   LIG    1       34.189  22.054  93.427  0.00  0.00    +0.179 C 
ATOM      5  C   LIG    1       33.877  22.604  92.036  0.00  0.00    +0.177 C 
ATOM     22  C   LIG    1       32.677  21.877  91.421  0.00  0.00    +0.178 C 
ENDROOT
BRANCH   5   6
ATOM      6  O   LIG    1       33.586  23.996  92.133  0.00  0.00    -0.386 OA
ATOM      7  H   LIG    1       33.008  24.128  92.905  0.00  0.00    +0.210 HD
ENDBRANCH   5   6
BRANCH   4   8
ATOM      8  O   LIG    1       35.446  22.591  93.843  0.00  0.00    -0.386 OA
ATOM      9  H   LIG    1       35.527  22.436  94.799  0.00  0.00    +0.210 HD
ENDBRANCH   4   8
BRANCH   3  10
ATOM     10  O   LIG    1       34.284  20.043  94.757  0.00  0.00    -0.384 OA
ATOM     11  H   LIG    1       34.281  19.071  94.727  0.00  0.00    +0.210 HD
ENDBRANCH   3  10
BRANCH   2  12
ATOM     12  O   LIG    1       33.277  18.507  92.603  0.00  0.00    -0.345 OA
BRANCH  12  13
ATOM     13  C   LIG    1       32.294  17.784  93.325  0.00  0.00    +0.190 C 
BRANCH  13  14
ATOM     14  C   LIG    1       31.646  16.800  92.404  0.00  0.00    +0.001 C 
ATOM     15  C   LIG    1       31.826  15.474  92.498  0.00  0.00    +0.006 C 
BRANCH  15  16
ATOM     16  C   LIG    1       31.198  14.468  91.624  0.00  0.00    -0.025 A 
ATOM     17  C   LIG    1       30.560  14.879  90.464  0.00  0.00    +0.008 A 
ATOM     18  C   LIG    1       29.967  13.926  89.637  0.00  0.00    +0.001 A 
ATOM     19  C   LIG    1       30.017  12.575  89.980  0.00  0.00    +0.000 A 
ATOM     20  C   LIG    1       30.662  12.176  91.151  0.00  0.00    +0.001 A 
ATOM     21  C   LIG    1       31.256  13.129  91.978  0.00  0.00    +0.008 A 
ENDBRANCH  15  16
ENDBRANCH  13  14
ENDBRANCH  12  13
ENDBRANCH   2  12
BRANCH  22  23
ATOM     23  C   LIG    1       32.418  22.328  89.987  0.00  0.00    +0.197 C 
BRANCH  23  24
ATOM     24  O   LIG    1       31.113  21.924  89.617  0.00  0.00    -0.346 OA
BRANCH  24  25
ATOM     25  C   LIG    1       31.116  21.164  88.413  0.00  0.00    +0.281 C 
ATOM     26  C   LIG    1       29.913  20.209  88.393  0.00  0.00    +0.201 C 
ATOM     27  C   LIG    1       28.597  20.946  88.122  0.00  0.00    +0.178 C 
ATOM     28  C   LIG    1       28.747  21.864  86.908  0.00  0.00    +0.171 C 
ATOM     29  C   LIG    1       29.960  22.772  87.068  0.00  0.00    +0.197 C 
ATOM     36  O   LIG    1       31.145  22.000  87.250  0.00  0.00    -0.346 OA
BRANCH  28  30
ATOM     30  O   LIG    1       27.568  22.638  86.739  0.00  0.00    -0.387 OA
ATOM     31  H   LIG    1       26.807  22.048  86.880  0.00  0.00    +0.210 HD
ENDBRANCH  28  30
BRANCH  27  32
ATOM     32  O   LIG    1       28.244  21.728  89.263  0.00  0.00    -0.386 OA
ATOM     33  H   LIG    1       27.909  22.582  88.940  0.00  0.00    +0.210 HD
ENDBRANCH  27  32
BRANCH  26  34
ATOM     34  O   LIG    1       30.133  19.244  87.368  0.00  0.00    -0.384 OA
ATOM     35  H   LIG    1       29.566  19.465  86.610  0.00  0.00    +0.210 HD
ENDBRANCH  26  34
ENDBRANCH  24  25
ENDBRANCH  23  24
ENDBRANCH  22  23
TORSDOF 13
ENDMDL
MODEL 5
REMARK VINA RESULT:      -9.8     28.523     32.599
REMARK  Name = 9823887
REMARK                            x       y       z     vdW  Elec       q    Type
REMARK                         _______ _______ _______ _____ _____    ______ ____
ROOT
ATOM      1  O   LIG    1       32.946  20.405  91.678  0.00  0.00    -0.341 OA
ATOM      2  C   LIG    1       33.273  19.841  92.946  0.00  0.00    +0.282 C 
ATOM      3  C   LIG    1       34.489  20.548  93.548  0.00  0.00    +0.201 C 
ATOM      4  C   LIG    1       34.280  22.060  93.608  0.00  0.00    +0.179 C 
ATOM      5  C   LIG    1       33.776  22.603  92.272  0.00  0.00    +0.177 C 
ATOM     22  C   LIG    1       32.586  21.784  91.766  0.00  0.00    +0.178 C 
ENDROOT
BRANCH   5   6
ATOM      6  O   LIG    1       33.378  23.962  92.434  0.00  0.00    -0.386 OA
ATOM      7  H   LIG    1       33.705  24.464  91.667  0.00  0.00    +0.210 HD
ENDBRANCH   5   6
BRANCH   4   8
ATOM      8  O   LIG    1       35.523  22.701  93.904  0.00  0.00    -0.386 OA
ATOM      9  H   LIG    1       35.458  23.619  93.593  0.00  0.00    +0.210 HD
ENDBRANCH   4   8
BRANCH   3  10
ATOM     10  O   LIG    1       34.690  20.044  94.868  0.00  0.00    -0.384 OA
ATOM     11  H   LIG    1       35.401  20.560  95.283  0.00  0.00    +0.210 HD
ENDBRANCH   3  10
BRANCH   2  12
ATOM     12  O   LIG    1       33.597  18.461  92.792  0.00  0.00    -0.345 OA
BRANCH  12  13
ATOM     13  C   LIG    1       32.915  17.661  93.744  0.00  0.00    +0.190 C 
BRANCH  13  14
ATOM     14  C   LIG    1       32.546  16.361  93.104  0.00  0.00    +0.001 C 
ATOM     15  C   LIG    1       31.495  16.216  92.282  0.00  0.00    +0.006 C 
BRANCH  15  16
ATOM     16  C   LIG    1       31.102  14.961  91.619  0.00  0.00    -0.025 A 
ATOM     17  C   LIG    1       31.382  13.751  92.234  0.00  0.00    +0.008 A 
ATOM     18  C   LIG    1       31.010  12.563  91.605  0.00  0.00    +0.001 A 
ATOM     19  C   LIG    1       30.364  12.600  90.370  0.00  0.00    +0.000 A 
ATOM     20  C   LIG    1       30.089  13.825  89.763  0.00  0.00    +0.001 A 
ATOM     21  C   LIG    1       30.461  15.013  90.391  0.00  0.00    +0.008 A 
ENDBRANCH  15  16
ENDBRANCH  13  14
ENDBRANCH  12  13
ENDBRANCH   2  12
BRANCH  22  23
ATOM     23  C   LIG    1       32.138  22.233  90.379  0.00  0.00    +0.197 C 
BRANCH  23  24
ATOM     24  O   LIG    1       31.591  21.119  89.699  0.00  0.00    -0.346 OA
BRANCH  24  25
ATOM     25  C   LIG    1       30.185  21.015  89.901  0.00  0.00    +0.281 C 
ATOM     26  C   LIG    1       29.439  21.598  88.691  0.00  0.00    +0.201 C 
ATOM     27  C   LIG    1       29.502  20.671  87.472  0.00  0.00    +0.178 C 
ATOM     28  C   LIG    1       29.121  19.246  87.875  0.00  0.00    +0.171 C 
ATOM     29  C   LIG    1       29.950  18.784  89.066  0.00  0.00    +0.197 C 
ATOM     36  O   LIG    1       29.779  19.669  90.171  0.00  0.00    -0.346 OA
BRANCH  28  30
ATOM     30  O   LIG    1       29.304  18.368  86.773  0.00  0.00    -0.387 OA
ATOM     31  H   LIG    1       30.109  18.649  86.304  0.00  0.00    +0.210 HD
ENDBRANCH  28  30
BRANCH  27  32
ATOM     32  O   LIG    1       30.826  20.672  86.940  0.00  0.00    -0.386 OA
ATOM     33  H   LIG    1       31.439  20.825  87.680  0.00  0.00    +0.210 HD
ENDBRANCH  27  32
BRANCH  26  34
ATOM     34  O   LIG    1       28.077  21.793  89.065  0.00  0.00    -0.384 OA
ATOM     35  H   LIG    1       28.029  21.847  90.034  0.00  0.00    +0.210 HD
ENDBRANCH  26  34
ENDBRANCH  24  25
ENDBRANCH  23  24
ENDBRANCH  22  23
TORSDOF 13
ENDMDL
MODEL 6
REMARK VINA RESULT:      -9.7     28.404     32.528
REMARK  Name = 9823887
REMARK                            x       y       z     vdW  Elec       q    Type
REMARK                         _______ _______ _______ _____ _____    ______ ____
ROOT
ATOM      1  O   LIG    1       32.756  21.506  91.023  0.00  0.00    -0.341 OA
ATOM      2  C   LIG    1       33.000  20.992  92.330  0.00  0.00    +0.282 C 
ATOM      3  C   LIG    1       34.045  21.843  93.053  0.00  0.00    +0.201 C 
ATOM      4  C   LIG    1       33.652  23.319  93.061  0.00  0.00    +0.179 C 
ATOM      5  C   LIG    1       33.243  23.791  91.667  0.00  0.00    +0.177 C 
ATOM     22  C   LIG    1       32.225  22.832  91.045  0.00  0.00    +0.178 C 
ENDROOT
BRANCH   5   6
ATOM      6  O   LIG    1       32.669  25.093  91.758  0.00  0.00    -0.386 OA
ATOM      7  H   LIG    1       33.020  25.627  91.025  0.00  0.00    +0.210 HD
ENDBRANCH   5   6
BRANCH   4   8
ATOM      8  O   LIG    1       34.767  24.106  93.484  0.00  0.00    -0.386 OA
ATOM      9  H   LIG    1       34.661  24.273  94.436  0.00  0.00    +0.210 HD
ENDBRANCH   4   8
BRANCH   3  10
ATOM     10  O   LIG    1       34.153  21.373  94.396  0.00  0.00    -0.384 OA
ATOM     11  H   LIG    1       34.555  20.488  94.375  0.00  0.00    +0.210 HD
ENDBRANCH   3  10
BRANCH   2  12
ATOM     12  O   LIG    1       33.503  19.660  92.238  0.00  0.00    -0.345 OA
BRANCH  12  13
ATOM     13  C   LIG    1       32.610  18.729  92.828  0.00  0.00    +0.190 C 
BRANCH  13  14
ATOM     14  C   LIG    1       33.405  17.697  93.562  0.00  0.00    +0.001 C 
ATOM     15  C   LIG    1       33.049  16.405  93.632  0.00  0.00    +0.006 C 
BRANCH  15  16
ATOM     16  C   LIG    1       33.807  15.352  94.329  0.00  0.00    -0.025 A 
ATOM     17  C   LIG    1       33.134  14.248  94.827  0.00  0.00    +0.008 A 
ATOM     18  C   LIG    1       33.853  13.251  95.487  0.00  0.00    +0.001 A 
ATOM     19  C   LIG    1       35.234  13.372  95.642  0.00  0.00    +0.000 A 
ATOM     20  C   LIG    1       35.897  14.489  95.136  0.00  0.00    +0.001 A 
ATOM     21  C   LIG    1       35.179  15.486  94.475  0.00  0.00    +0.008 A 
ENDBRANCH  15  16
ENDBRANCH  13  14
ENDBRANCH  12  13
ENDBRANCH   2  12
BRANCH  22  23
ATOM     23  C   LIG    1       31.889  23.218  89.608  0.00  0.00    +0.197 C 
BRANCH  23  24
ATOM     24  O   LIG    1       30.661  22.608  89.253  0.00  0.00    -0.346 OA
BRANCH  24  25
ATOM     25  C   LIG    1       30.810  21.727  88.144  0.00  0.00    +0.281 C 
ATOM     26  C   LIG    1       29.777  20.593  88.235  0.00  0.00    +0.201 C 
ATOM     27  C   LIG    1       28.364  21.070  87.882  0.00  0.00    +0.178 C 
ATOM     28  C   LIG    1       28.386  21.857  86.571  0.00  0.00    +0.171 C 
ATOM     29  C   LIG    1       29.433  22.962  86.625  0.00  0.00    +0.197 C 
ATOM     36  O   LIG    1       30.723  22.419  86.893  0.00  0.00    -0.346 OA
BRANCH  28  30
ATOM     30  O   LIG    1       27.100  22.404  86.315  0.00  0.00    -0.387 OA
ATOM     31  H   LIG    1       26.446  21.836  86.758  0.00  0.00    +0.210 HD
ENDBRANCH  28  30
BRANCH  27  32
ATOM     32  O   LIG    1       27.869  21.908  88.926  0.00  0.00    -0.386 OA
ATOM     33  H   LIG    1       27.512  22.712  88.511  0.00  0.00    +0.210 HD
ENDBRANCH  27  32
BRANCH  26  34
ATOM     34  O   LIG    1       30.169  19.566  87.327  0.00  0.00    -0.384 OA
ATOM     35  H   LIG    1       31.004  19.181  87.641  0.00  0.00    +0.210 HD
ENDBRANCH  26  34
ENDBRANCH  24  25
ENDBRANCH  23  24
ENDBRANCH  22  23
TORSDOF 13
ENDMDL
MODEL 7
REMARK VINA RESULT:      -9.4     17.504     20.882
REMARK  Name = 9823887
REMARK                            x       y       z     vdW  Elec       q    Type
REMARK                         _______ _______ _______ _____ _____    ______ ____
ROOT
ATOM      1  O   LIG    1       13.223  19.860  92.301  0.00  0.00    -0.341 OA
ATOM      2  C   LIG    1       11.835  20.166  92.191  0.00  0.00    +0.282 C 
ATOM      3  C   LIG    1       11.263  19.599  90.892  0.00  0.00    +0.201 C 
ATOM      4  C   LIG    1       11.552  18.104  90.762  0.00  0.00    +0.179 C 
ATOM      5  C   LIG    1       13.022  17.797  91.043  0.00  0.00    +0.177 C 
ATOM     22  C   LIG    1       13.473  18.454  92.350  0.00  0.00    +0.178 C 
ENDROOT
BRANCH   5   6
ATOM      6  O   LIG    1       13.200  16.386  91.139  0.00  0.00    -0.386 OA
ATOM      7  H   LIG    1       12.325  15.983  91.279  0.00  0.00    +0.210 HD
ENDBRANCH   5   6
BRANCH   4   8
ATOM      8  O   LIG    1       11.259  17.677  89.430  0.00  0.00    -0.386 OA
ATOM      9  H   LIG    1       11.333  18.455  88.852  0.00  0.00    +0.210 HD
ENDBRANCH   4   8
BRANCH   3  10
ATOM     10  O   LIG    1        9.851  19.811  90.895  0.00  0.00    -0.384 OA
ATOM     11  H   LIG    1        9.598  20.138  91.774  0.00  0.00    +0.210 HD
ENDBRANCH   3  10
BRANCH   2  12
ATOM     12  O   LIG    1       11.653  21.580  92.173  0.00  0.00    -0.345 OA
BRANCH  12  13
ATOM     13  C   LIG    1       11.713  22.092  90.851  0.00  0.00    +0.190 C 
BRANCH  13  14
ATOM     14  C   LIG    1       12.904  22.988  90.735  0.00  0.00    +0.001 C 
ATOM     15  C   LIG    1       12.836  24.249  90.282  0.00  0.00    +0.006 C 
BRANCH  15  16
ATOM     16  C   LIG    1       13.978  25.172  90.164  0.00  0.00    -0.025 A 
ATOM     17  C   LIG    1       14.910  24.974  89.158  0.00  0.00    +0.008 A 
ATOM     18  C   LIG    1       15.991  25.848  89.047  0.00  0.00    +0.001 A 
ATOM     19  C   LIG    1       16.127  26.908  89.943  0.00  0.00    +0.000 A 
ATOM     20  C   LIG    1       15.182  27.095  90.951  0.00  0.00    +0.001 A 
ATOM     21  C   LIG    1       14.100  26.220  91.062  0.00  0.00    +0.008 A 
ENDBRANCH  15  16
ENDBRANCH  13  14
ENDBRANCH  12  13
ENDBRANCH   2  12
BRANCH  22  23
ATOM     23  C   LIG    1       14.967  18.260  92.595  0.00  0.00    +0.197 C 
BRANCH  23  24
ATOM     24  O   LIG    1       15.506  19.477  93.077  0.00  0.00    -0.346 OA
BRANCH  24  25
ATOM     25  C   LIG    1       16.431  20.046  92.157  0.00  0.00    +0.281 C 
ATOM     26  C   LIG    1       15.743  21.148  91.337  0.00  0.00    +0.201 C 
ATOM     27  C   LIG    1       15.518  22.422  92.159  0.00  0.00    +0.178 C 
ATOM     28  C   LIG    1       16.810  22.822  92.874  0.00  0.00    +0.171 C 
ATOM     29  C   LIG    1       17.371  21.649  93.666  0.00  0.00    +0.197 C 
ATOM     36  O   LIG    1       17.609  20.533  92.810  0.00  0.00    -0.346 OA
BRANCH  28  30
ATOM     30  O   LIG    1       16.563  23.927  93.732  0.00  0.00    -0.387 OA
ATOM     31  H   LIG    1       15.890  23.653  94.378  0.00  0.00    +0.210 HD
ENDBRANCH  28  30
BRANCH  27  32
ATOM     32  O   LIG    1       14.496  22.191  93.127  0.00  0.00    -0.386 OA
ATOM     33  H   LIG    1       13.856  21.572  92.736  0.00  0.00    +0.210 HD
ENDBRANCH  27  32
BRANCH  26  34
ATOM     34  O   LIG    1       16.572  21.449  90.218  0.00  0.00    -0.384 OA
ATOM     35  H   LIG    1       16.792  20.617  89.765  0.00  0.00    +0.210 HD
ENDBRANCH  26  34
ENDBRANCH  24  25
ENDBRANCH  23  24
ENDBRANCH  22  23
TORSDOF 13
ENDMDL
MODEL 8
REMARK VINA RESULT:      -8.9     14.671     18.630
REMARK  Name = 9823887
REMARK                            x       y       z     vdW  Elec       q    Type
REMARK                         _______ _______ _______ _____ _____    ______ ____
ROOT
ATOM      1  O   LIG    1       24.754  35.582  88.863  0.00  0.00    -0.341 OA
ATOM      2  C   LIG    1       23.426  35.093  88.686  0.00  0.00    +0.282 C 
ATOM      3  C   LIG    1       22.444  35.889  89.546  0.00  0.00    +0.201 C 
ATOM      4  C   LIG    1       22.562  37.390  89.282  0.00  0.00    +0.179 C 
ATOM      5  C   LIG    1       24.020  37.846  89.323  0.00  0.00    +0.177 C 
ATOM     22  C   LIG    1       24.897  36.943  88.452  0.00  0.00    +0.178 C 
ENDROOT
BRANCH   5   6
ATOM      6  O   LIG    1       24.108  39.187  88.849  0.00  0.00    -0.386 OA
ATOM      7  H   LIG    1       23.287  39.647  89.097  0.00  0.00    +0.210 HD
ENDBRANCH   5   6
BRANCH   4   8
ATOM      8  O   LIG    1       21.846  38.108  90.289  0.00  0.00    -0.386 OA
ATOM      9  H   LIG    1       21.459  38.893  89.866  0.00  0.00    +0.210 HD
ENDBRANCH   4   8
BRANCH   3  10
ATOM     10  O   LIG    1       21.121  35.455  89.231  0.00  0.00    -0.384 OA
ATOM     11  H   LIG    1       21.059  34.506  89.433  0.00  0.00    +0.210 HD
ENDBRANCH   3  10
BRANCH   2  12
ATOM     12  O   LIG    1       23.358  33.727  89.089  0.00  0.00    -0.345 OA
BRANCH  12  13
ATOM     13  C   LIG    1       23.648  32.854  88.009  0.00  0.00    +0.190 C 
BRANCH  13  14
ATOM     14  C   LIG    1       22.762  31.654  88.108  0.00  0.00    +0.001 C 
ATOM     15  C   LIG    1       21.437  31.731  88.310  0.00  0.00    +0.006 C 
BRANCH  15  16
ATOM     16  C   LIG    1       20.524  30.578  88.400  0.00  0.00    -0.025 A 
ATOM     17  C   LIG    1       19.966  30.247  89.625  0.00  0.00    +0.008 A 
ATOM     18  C   LIG    1       19.102  29.157  89.709  0.00  0.00    +0.001 A 
ATOM     19  C   LIG    1       18.806  28.410  88.568  0.00  0.00    +0.000 A 
ATOM     20  C   LIG    1       19.375  28.755  87.343  0.00  0.00    +0.001 A 
ATOM     21  C   LIG    1       20.240  29.846  87.258  0.00  0.00    +0.008 A 
ENDBRANCH  15  16
ENDBRANCH  13  14
ENDBRANCH  12  13
ENDBRANCH   2  12
BRANCH  22  23
ATOM     23  C   LIG    1       26.374  37.307  88.568  0.00  0.00    +0.197 C 
BRANCH  23  24
ATOM     24  O   LIG    1       26.573  38.575  87.971  0.00  0.00    -0.346 OA
BRANCH  24  25
ATOM     25  C   LIG    1       27.755  39.206  88.453  0.00  0.00    +0.281 C 
ATOM     26  C   LIG    1       28.257  40.231  87.426  0.00  0.00    +0.201 C 
ATOM     27  C   LIG    1       27.390  41.495  87.401  0.00  0.00    +0.178 C 
ATOM     28  C   LIG    1       27.179  42.016  88.823  0.00  0.00    +0.171 C 
ATOM     29  C   LIG    1       26.657  40.908  89.729  0.00  0.00    +0.197 C 
ATOM     36  O   LIG    1       27.558  39.802  89.740  0.00  0.00    -0.346 OA
BRANCH  28  30
ATOM     30  O   LIG    1       26.272  43.110  88.806  0.00  0.00    -0.387 OA
ATOM     31  H   LIG    1       26.486  43.656  88.030  0.00  0.00    +0.210 HD
ENDBRANCH  28  30
BRANCH  27  32
ATOM     32  O   LIG    1       26.124  41.194  86.816  0.00  0.00    -0.386 OA
ATOM     33  H   LIG    1       25.474  41.139  87.537  0.00  0.00    +0.210 HD
ENDBRANCH  27  32
BRANCH  26  34
ATOM     34  O   LIG    1       29.595  40.583  87.772  0.00  0.00    -0.384 OA
ATOM     35  H   LIG    1       30.197  40.172  87.130  0.00  0.00    +0.210 HD
ENDBRANCH  26  34
ENDBRANCH  24  25
ENDBRANCH  23  24
ENDBRANCH  22  23
TORSDOF 13
ENDMDL
MODEL 9
REMARK VINA RESULT:      -8.9     28.351     32.394
REMARK  Name = 9823887
REMARK                            x       y       z     vdW  Elec       q    Type
REMARK                         _______ _______ _______ _____ _____    ______ ____
ROOT
ATOM      1  O   LIG    1       32.995  21.805  90.847  0.00  0.00    -0.341 OA
ATOM      2  C   LIG    1       33.085  21.840  92.269  0.00  0.00    +0.282 C 
ATOM      3  C   LIG    1       33.978  22.997  92.721  0.00  0.00    +0.201 C 
ATOM      4  C   LIG    1       33.513  24.325  92.124  0.00  0.00    +0.179 C 
ATOM      5  C   LIG    1       33.275  24.203  90.620  0.00  0.00    +0.177 C 
ATOM     22  C   LIG    1       32.401  22.986  90.305  0.00  0.00    +0.178 C 
ENDROOT
BRANCH   5   6
ATOM      6  O   LIG    1       32.629  25.382  90.147  0.00  0.00    -0.386 OA
ATOM      7  H   LIG    1       33.046  25.634  89.305  0.00  0.00    +0.210 HD
ENDBRANCH   5   6
BRANCH   4   8
ATOM      8  O   LIG    1       34.519  25.317  92.333  0.00  0.00    -0.386 OA
ATOM      9  H   LIG    1       35.309  25.041  91.837  0.00  0.00    +0.210 HD
ENDBRANCH   4   8
BRANCH   3  10
ATOM     10  O   LIG    1       33.925  23.072  94.145  0.00  0.00    -0.384 OA
ATOM     11  H   LIG    1       33.698  23.985  94.391  0.00  0.00    +0.210 HD
ENDBRANCH   3  10
BRANCH   2  12
ATOM     12  O   LIG    1       33.661  20.626  92.746  0.00  0.00    -0.345 OA
BRANCH  12  13
ATOM     13  C   LIG    1       32.750  19.544  92.639  0.00  0.00    +0.190 C 
BRANCH  13  14
ATOM     14  C   LIG    1       33.371  18.329  93.249  0.00  0.00    +0.001 C 
ATOM     15  C   LIG    1       32.689  17.201  93.503  0.00  0.00    +0.006 C 
BRANCH  15  16
ATOM     16  C   LIG    1       33.261  15.977  94.089  0.00  0.00    -0.025 A 
ATOM     17  C   LIG    1       34.629  15.897  94.296  0.00  0.00    +0.008 A 
ATOM     18  C   LIG    1       35.170  14.738  94.850  0.00  0.00    +0.001 A 
ATOM     19  C   LIG    1       34.336  13.672  95.190  0.00  0.00    +0.000 A 
ATOM     20  C   LIG    1       32.962  13.766  94.977  0.00  0.00    +0.001 A 
ATOM     21  C   LIG    1       32.421  14.927  94.422  0.00  0.00    +0.008 A 
ENDBRANCH  15  16
ENDBRANCH  13  14
ENDBRANCH  12  13
ENDBRANCH   2  12
BRANCH  22  23
ATOM     23  C   LIG    1       32.245  22.776  88.802  0.00  0.00    +0.197 C 
BRANCH  23  24
ATOM     24  O   LIG    1       31.556  21.557  88.587  0.00  0.00    -0.346 OA
BRANCH  24  25
ATOM     25  C   LIG    1       30.265  21.567  89.187  0.00  0.00    +0.281 C 
ATOM     26  C   LIG    1       29.187  21.363  88.112  0.00  0.00    +0.201 C 
ATOM     27  C   LIG    1       29.132  19.913  87.619  0.00  0.00    +0.178 C 
ATOM     28  C   LIG    1       29.085  18.953  88.809  0.00  0.00    +0.171 C 
ATOM     29  C   LIG    1       30.220  19.249  89.781  0.00  0.00    +0.197 C 
ATOM     36  O   LIG    1       30.153  20.598  90.236  0.00  0.00    -0.346 OA
BRANCH  28  30
ATOM     30  O   LIG    1       29.163  17.611  88.349  0.00  0.00    -0.387 OA
ATOM     31  H   LIG    1       30.042  17.486  87.953  0.00  0.00    +0.210 HD
ENDBRANCH  28  30
BRANCH  27  32
ATOM     32  O   LIG    1       30.288  19.632  86.832  0.00  0.00    -0.386 OA
ATOM     33  H   LIG    1       30.998  20.224  87.133  0.00  0.00    +0.210 HD
ENDBRANCH  27  32
BRANCH  26  34
ATOM     34  O   LIG    1       27.927  21.717  88.678  0.00  0.00    -0.384 OA
ATOM     35  H   LIG    1       27.239  21.582  88.006  0.00  0.00    +0.210 HD
ENDBRANCH  26  34
ENDBRANCH  24  25
ENDBRANCH  23  24
ENDBRANCH  22  23
TORSDOF 13
ENDMDL
