MODEL 1
REMARK VINA RESULT:      -5.8      0.000      0.000
REMARK  4 active torsions:
REMARK  status: ('A' for Active; 'I' for Inactive)
REMARK    1  A    between atoms: O_1  and  C_10 
REMARK    2  A    between atoms: O_1  and  C_11 
REMARK    3  A    between atoms: N_3  and  C_7 
REMARK    4  A    between atoms: C_4  and  C_10 
ROOT
HETATM    1  O   UNK     0     170.940 174.054 168.779  0.00  0.00    -0.318 OA
ENDROOT
BRANCH   1   2
HETATM    2  C   UNK     0     170.398 173.146 167.911  0.00  0.00     0.293 C 
HETATM    3  O   UNK     0     169.225 172.754 167.962  0.00  0.00    -0.259 OA
BRANCH   2   4
HETATM    4  C   UNK     0     171.372 172.702 166.926  0.00  0.00     0.039 A 
HETATM    5  C   UNK     0     171.861 173.599 165.976  0.00  0.00     0.020 A 
HETATM    6  C   UNK     0     172.795 173.172 165.031  0.00  0.00     0.030 A 
HETATM    7  C   UNK     0     173.239 171.850 165.036  0.00  0.00     0.025 A 
HETATM    8  C   UNK     0     172.750 170.954 165.986  0.00  0.00     0.030 A 
HETATM    9  C   UNK     0     171.816 171.379 166.930  0.00  0.00     0.020 A 
BRANCH   7  10
HETATM   10  N   UNK     0     174.182 171.419 164.080  0.00  0.00    -0.399 N 
HETATM   11  H   UNK     0     174.573 170.488 164.138  0.00  0.00     0.156 HD
HETATM   12  H   UNK     0     174.471 172.042 163.337  0.00  0.00     0.156 HD
ENDBRANCH   7  10
ENDBRANCH   2   4
ENDBRANCH   1   2
BRANCH   1  13
HETATM   13  C   UNK     0     171.613 173.528 169.929  0.00  0.00     0.174 C 
HETATM   14  C   UNK     0     173.037 174.039 169.943  0.00  0.00     0.034 C 
ENDBRANCH   1  13
TORSDOF 4
ENDMDL
MODEL 2
REMARK VINA RESULT:      -5.7      0.109      1.399
REMARK  4 active torsions:
REMARK  status: ('A' for Active; 'I' for Inactive)
REMARK    1  A    between atoms: O_1  and  C_10 
REMARK    2  A    between atoms: O_1  and  C_11 
REMARK    3  A    between atoms: N_3  and  C_7 
REMARK    4  A    between atoms: C_4  and  C_10 
ROOT
HETATM    1  O   UNK     0     170.918 174.186 168.684  0.00  0.00    -0.318 OA
ENDROOT
BRANCH   1   2
HETATM    2  C   UNK     0     170.406 173.178 167.913  0.00  0.00     0.293 C 
HETATM    3  O   UNK     0     169.263 172.721 168.040  0.00  0.00    -0.259 OA
BRANCH   2   4
HETATM    4  C   UNK     0     171.373 172.713 166.931  0.00  0.00     0.039 A 
HETATM    5  C   UNK     0     171.809 171.388 166.954  0.00  0.00     0.020 A 
HETATM    6  C   UNK     0     172.737 170.943 166.013  0.00  0.00     0.030 A 
HETATM    7  C   UNK     0     173.229 171.822 165.048  0.00  0.00     0.025 A 
HETATM    8  C   UNK     0     172.793 173.146 165.025  0.00  0.00     0.030 A 
HETATM    9  C   UNK     0     171.866 173.593 165.966  0.00  0.00     0.020 A 
BRANCH   7  10
HETATM   10  N   UNK     0     174.167 171.371 164.097  0.00  0.00    -0.399 N 
HETATM   11  H   UNK     0     173.944 170.589 163.496  0.00  0.00     0.156 HD
HETATM   12  H   UNK     0     175.066 171.829 164.016  0.00  0.00     0.156 HD
ENDBRANCH   7  10
ENDBRANCH   2   4
ENDBRANCH   1   2
BRANCH   1  13
HETATM   13  C   UNK     0     171.505 173.809 169.934  0.00  0.00     0.174 C 
HETATM   14  C   UNK     0     173.002 174.015 169.857  0.00  0.00     0.034 C 
ENDBRANCH   1  13
TORSDOF 4
ENDMDL
MODEL 3
REMARK VINA RESULT:      -5.7      1.294      2.370
REMARK  4 active torsions:
REMARK  status: ('A' for Active; 'I' for Inactive)
REMARK    1  A    between atoms: O_1  and  C_10 
REMARK    2  A    between atoms: O_1  and  C_11 
REMARK    3  A    between atoms: N_3  and  C_7 
REMARK    4  A    between atoms: C_4  and  C_10 
ROOT
HETATM    1  O   UNK     0     170.462 174.224 168.515  0.00  0.00    -0.318 OA
ENDROOT
BRANCH   1   2
HETATM    2  C   UNK     0     171.500 173.397 168.848  0.00  0.00     0.293 C 
HETATM    3  O   UNK     0     171.810 173.109 170.012  0.00  0.00    -0.259 OA
BRANCH   2   4
HETATM    4  C   UNK     0     172.189 172.902 167.667  0.00  0.00     0.039 A 
HETATM    5  C   UNK     0     173.257 172.015 167.804  0.00  0.00     0.020 A 
HETATM    6  C   UNK     0     173.919 171.541 166.670  0.00  0.00     0.030 A 
HETATM    7  C   UNK     0     173.512 171.953 165.401  0.00  0.00     0.025 A 
HETATM    8  C   UNK     0     172.444 172.839 165.265  0.00  0.00     0.030 A 
HETATM    9  C   UNK     0     171.783 173.314 166.398  0.00  0.00     0.020 A 
BRANCH   7  10
HETATM   10  N   UNK     0     174.181 171.474 164.256  0.00  0.00    -0.399 N 
HETATM   11  H   UNK     0     174.256 172.056 163.433  0.00  0.00     0.156 HD
HETATM   12  H   UNK     0     174.586 170.546 164.257  0.00  0.00     0.156 HD
ENDBRANCH   7  10
ENDBRANCH   2   4
ENDBRANCH   1   2
BRANCH   1  13
HETATM   13  C   UNK     0     169.225 174.021 169.206  0.00  0.00     0.174 C 
HETATM   14  C   UNK     0     168.552 172.781 168.658  0.00  0.00     0.034 C 
ENDBRANCH   1  13
TORSDOF 4
ENDMDL
MODEL 4
REMARK VINA RESULT:      -5.7      1.317      2.111
REMARK  4 active torsions:
REMARK  status: ('A' for Active; 'I' for Inactive)
REMARK    1  A    between atoms: O_1  and  C_10 
REMARK    2  A    between atoms: O_1  and  C_11 
REMARK    3  A    between atoms: N_3  and  C_7 
REMARK    4  A    between atoms: C_4  and  C_10 
ROOT
HETATM    1  O   UNK     0     170.753 174.485 168.446  0.00  0.00    -0.318 OA
ENDROOT
BRANCH   1   2
HETATM    2  C   UNK     0     171.595 173.457 168.772  0.00  0.00     0.293 C 
HETATM    3  O   UNK     0     171.758 173.034 169.924  0.00  0.00    -0.259 OA
BRANCH   2   4
HETATM    4  C   UNK     0     172.271 172.928 167.598  0.00  0.00     0.039 A 
HETATM    5  C   UNK     0     171.883 173.342 166.324  0.00  0.00     0.020 A 
HETATM    6  C   UNK     0     172.531 172.833 165.198  0.00  0.00     0.030 A 
HETATM    7  C   UNK     0     173.569 171.912 165.346  0.00  0.00     0.025 A 
HETATM    8  C   UNK     0     173.957 171.499 166.620  0.00  0.00     0.030 A 
HETATM    9  C   UNK     0     173.308 172.006 167.747  0.00  0.00     0.020 A 
BRANCH   7  10
HETATM   10  N   UNK     0     174.223 171.399 164.208  0.00  0.00    -0.399 N 
HETATM   11  H   UNK     0     175.002 171.901 163.803  0.00  0.00     0.156 HD
HETATM   12  H   UNK     0     173.914 170.528 163.796  0.00  0.00     0.156 HD
ENDBRANCH   7  10
ENDBRANCH   2   4
ENDBRANCH   1   2
BRANCH   1  13
HETATM   13  C   UNK     0     169.377 174.335 168.812  0.00  0.00     0.174 C 
HETATM   14  C   UNK     0     168.518 174.500 167.577  0.00  0.00     0.034 C 
ENDBRANCH   1  13
TORSDOF 4
ENDMDL
MODEL 5
REMARK VINA RESULT:      -5.2      2.208      3.150
REMARK  4 active torsions:
REMARK  status: ('A' for Active; 'I' for Inactive)
REMARK    1  A    between atoms: O_1  and  C_10 
REMARK    2  A    between atoms: O_1  and  C_11 
REMARK    3  A    between atoms: N_3  and  C_7 
REMARK    4  A    between atoms: C_4  and  C_10 
ROOT
HETATM    1  O   UNK     0     169.373 174.866 168.183  0.00  0.00    -0.318 OA
ENDROOT
BRANCH   1   2
HETATM    2  C   UNK     0     170.235 174.791 167.123  0.00  0.00     0.293 C 
HETATM    3  O   UNK     0     170.175 175.525 166.128  0.00  0.00    -0.259 OA
BRANCH   2   4
HETATM    4  C   UNK     0     171.226 173.743 167.313  0.00  0.00     0.039 A 
HETATM    5  C   UNK     0     171.411 172.772 166.328  0.00  0.00     0.020 A 
HETATM    6  C   UNK     0     172.360 171.766 166.511  0.00  0.00     0.030 A 
HETATM    7  C   UNK     0     173.125 171.732 167.677  0.00  0.00     0.025 A 
HETATM    8  C   UNK     0     172.940 172.703 168.661  0.00  0.00     0.030 A 
HETATM    9  C   UNK     0     171.990 173.708 168.479  0.00  0.00     0.020 A 
BRANCH   7  10
HETATM   10  N   UNK     0     174.085 170.716 167.861  0.00  0.00    -0.399 N 
HETATM   11  H   UNK     0     175.004 170.945 168.215  0.00  0.00     0.156 HD
HETATM   12  H   UNK     0     173.855 169.756 167.638  0.00  0.00     0.156 HD
ENDBRANCH   7  10
ENDBRANCH   2   4
ENDBRANCH   1   2
BRANCH   1  13
HETATM   13  C   UNK     0     168.387 173.833 168.289  0.00  0.00     0.174 C 
HETATM   14  C   UNK     0     167.130 174.278 167.573  0.00  0.00     0.034 C 
ENDBRANCH   1  13
TORSDOF 4
ENDMDL
MODEL 6
REMARK VINA RESULT:      -5.1      3.277      5.031
REMARK  4 active torsions:
REMARK  status: ('A' for Active; 'I' for Inactive)
REMARK    1  A    between atoms: O_1  and  C_10 
REMARK    2  A    between atoms: O_1  and  C_11 
REMARK    3  A    between atoms: N_3  and  C_7 
REMARK    4  A    between atoms: C_4  and  C_10 
ROOT
HETATM    1  O   UNK     0     173.171 172.626 166.099  0.00  0.00    -0.318 OA
ENDROOT
BRANCH   1   2
HETATM    2  C   UNK     0     173.162 172.230 167.409  0.00  0.00     0.293 C 
HETATM    3  O   UNK     0     173.577 171.132 167.803  0.00  0.00    -0.259 OA
BRANCH   2   4
HETATM    4  C   UNK     0     172.605 173.258 168.274  0.00  0.00     0.039 A 
HETATM    5  C   UNK     0     173.232 173.569 169.480  0.00  0.00     0.020 A 
HETATM    6  C   UNK     0     172.697 174.555 170.310  0.00  0.00     0.030 A 
HETATM    7  C   UNK     0     171.535 175.230 169.934  0.00  0.00     0.025 A 
HETATM    8  C   UNK     0     170.909 174.918 168.728  0.00  0.00     0.030 A 
HETATM    9  C   UNK     0     171.443 173.932 167.898  0.00  0.00     0.020 A 
BRANCH   7  10
HETATM   10  N   UNK     0     170.995 176.225 170.773  0.00  0.00    -0.399 N 
HETATM   11  H   UNK     0     171.078 177.201 170.519  0.00  0.00     0.156 HD
HETATM   12  H   UNK     0     170.525 175.965 171.630  0.00  0.00     0.156 HD
ENDBRANCH   7  10
ENDBRANCH   2   4
ENDBRANCH   1   2
BRANCH   1  13
HETATM   13  C   UNK     0     172.847 171.632 165.121  0.00  0.00     0.174 C 
HETATM   14  C   UNK     0     171.358 171.363 165.166  0.00  0.00     0.034 C 
ENDBRANCH   1  13
TORSDOF 4
ENDMDL
MODEL 7
REMARK VINA RESULT:      -5.1      1.921      2.801
REMARK  4 active torsions:
REMARK  status: ('A' for Active; 'I' for Inactive)
REMARK    1  A    between atoms: O_1  and  C_10 
REMARK    2  A    between atoms: O_1  and  C_11 
REMARK    3  A    between atoms: N_3  and  C_7 
REMARK    4  A    between atoms: C_4  and  C_10 
ROOT
HETATM    1  O   UNK     0     171.545 173.514 170.556  0.00  0.00    -0.318 OA
ENDROOT
BRANCH   1   2
HETATM    2  C   UNK     0     172.563 173.466 169.643  0.00  0.00     0.293 C 
HETATM    3  O   UNK     0     173.695 173.925 169.844  0.00  0.00    -0.259 OA
BRANCH   2   4
HETATM    4  C   UNK     0     172.147 172.813 168.412  0.00  0.00     0.039 A 
HETATM    5  C   UNK     0     172.917 171.780 167.876  0.00  0.00     0.020 A 
HETATM    6  C   UNK     0     172.517 171.154 166.695  0.00  0.00     0.030 A 
HETATM    7  C   UNK     0     171.349 171.560 166.050  0.00  0.00     0.025 A 
HETATM    8  C   UNK     0     170.580 172.593 166.586  0.00  0.00     0.030 A 
HETATM    9  C   UNK     0     170.979 173.220 167.766  0.00  0.00     0.020 A 
BRANCH   7  10
HETATM   10  N   UNK     0     170.946 170.927 164.856  0.00  0.00    -0.399 N 
HETATM   11  H   UNK     0     170.041 171.133 164.455  0.00  0.00     0.156 HD
HETATM   12  H   UNK     0     171.562 170.266 164.401  0.00  0.00     0.156 HD
ENDBRANCH   7  10
ENDBRANCH   2   4
ENDBRANCH   1   2
BRANCH   1  13
HETATM   13  C   UNK     0     171.479 174.675 171.391  0.00  0.00     0.174 C 
HETATM   14  C   UNK     0     170.978 175.844 170.570  0.00  0.00     0.034 C 
ENDBRANCH   1  13
TORSDOF 4
ENDMDL
MODEL 8
REMARK VINA RESULT:      -5.1      3.076      4.919
REMARK  4 active torsions:
REMARK  status: ('A' for Active; 'I' for Inactive)
REMARK    1  A    between atoms: O_1  and  C_10 
REMARK    2  A    between atoms: O_1  and  C_11 
REMARK    3  A    between atoms: N_3  and  C_7 
REMARK    4  A    between atoms: C_4  and  C_10 
ROOT
HETATM    1  O   UNK     0     172.170 173.210 165.905  0.00  0.00    -0.318 OA
ENDROOT
BRANCH   1   2
HETATM    2  C   UNK     0     171.034 173.744 166.452  0.00  0.00     0.293 C 
HETATM    3  O   UNK     0     169.999 173.972 165.812  0.00  0.00    -0.259 OA
BRANCH   2   4
HETATM    4  C   UNK     0     171.198 174.008 167.872  0.00  0.00     0.039 A 
HETATM    5  C   UNK     0     171.751 173.034 168.704  0.00  0.00     0.020 A 
HETATM    6  C   UNK     0     171.907 173.287 170.067  0.00  0.00     0.030 A 
HETATM    7  C   UNK     0     171.512 174.515 170.598  0.00  0.00     0.025 A 
HETATM    8  C   UNK     0     170.960 175.489 169.767  0.00  0.00     0.030 A 
HETATM    9  C   UNK     0     170.803 175.236 168.404  0.00  0.00     0.020 A 
BRANCH   7  10
HETATM   10  N   UNK     0     171.671 174.771 171.975  0.00  0.00    -0.399 N 
HETATM   11  H   UNK     0     172.461 174.384 172.474  0.00  0.00     0.156 HD
HETATM   12  H   UNK     0     170.993 175.340 172.466  0.00  0.00     0.156 HD
ENDBRANCH   7  10
ENDBRANCH   2   4
ENDBRANCH   1   2
BRANCH   1  13
HETATM   13  C   UNK     0     172.052 171.915 165.307  0.00  0.00     0.174 C 
HETATM   14  C   UNK     0     173.426 171.440 164.886  0.00  0.00     0.034 C 
ENDBRANCH   1  13
TORSDOF 4
ENDMDL
MODEL 9
REMARK VINA RESULT:      -4.9     14.537     16.370
REMARK  4 active torsions:
REMARK  status: ('A' for Active; 'I' for Inactive)
REMARK    1  A    between atoms: O_1  and  C_10 
REMARK    2  A    between atoms: O_1  and  C_11 
REMARK    3  A    between atoms: N_3  and  C_7 
REMARK    4  A    between atoms: C_4  and  C_10 
ROOT
HETATM    1  O   UNK     0     163.265 179.397 174.730  0.00  0.00    -0.318 OA
ENDROOT
BRANCH   1   2
HETATM    2  C   UNK     0     162.662 180.623 174.656  0.00  0.00     0.293 C 
HETATM    3  O   UNK     0     162.866 181.441 173.750  0.00  0.00    -0.259 OA
BRANCH   2   4
HETATM    4  C   UNK     0     161.755 180.840 175.771  0.00  0.00     0.039 A 
HETATM    5  C   UNK     0     162.090 181.750 176.775  0.00  0.00     0.020 A 
HETATM    6  C   UNK     0     161.220 181.957 177.846  0.00  0.00     0.030 A 
HETATM    7  C   UNK     0     160.015 181.257 177.913  0.00  0.00     0.025 A 
HETATM    8  C   UNK     0     159.681 180.349 176.909  0.00  0.00     0.030 A 
HETATM    9  C   UNK     0     160.550 180.140 175.839  0.00  0.00     0.020 A 
BRANCH   7  10
HETATM   10  N   UNK     0     159.136 181.468 178.995  0.00  0.00    -0.399 N 
HETATM   11  H   UNK     0     159.383 181.139 179.919  0.00  0.00     0.156 HD
HETATM   12  H   UNK     0     158.257 181.947 178.848  0.00  0.00     0.156 HD
ENDBRANCH   7  10
ENDBRANCH   2   4
ENDBRANCH   1   2
BRANCH   1  13
HETATM   13  C   UNK     0     164.124 179.167 175.853  0.00  0.00     0.174 C 
HETATM   14  C   UNK     0     165.366 180.018 175.705  0.00  0.00     0.034 C 
ENDBRANCH   1  13
TORSDOF 4
ENDMDL
MODEL 10
REMARK VINA RESULT:      -4.9      2.221      3.072
REMARK  4 active torsions:
REMARK  status: ('A' for Active; 'I' for Inactive)
REMARK    1  A    between atoms: O_1  and  C_10 
REMARK    2  A    between atoms: O_1  and  C_11 
REMARK    3  A    between atoms: N_3  and  C_7 
REMARK    4  A    between atoms: C_4  and  C_10 
ROOT
HETATM    1  O   UNK     0     171.894 174.357 171.283  0.00  0.00    -0.318 OA
ENDROOT
BRANCH   1   2
HETATM    2  C   UNK     0     172.212 174.823 170.036  0.00  0.00     0.293 C 
HETATM    3  O   UNK     0     172.475 176.006 169.785  0.00  0.00    -0.259 OA
BRANCH   2   4
HETATM    4  C   UNK     0     172.200 173.756 169.048  0.00  0.00     0.039 A 
HETATM    5  C   UNK     0     171.078 173.566 168.241  0.00  0.00     0.020 A 
HETATM    6  C   UNK     0     171.066 172.541 167.294  0.00  0.00     0.030 A 
HETATM    7  C   UNK     0     172.175 171.707 167.154  0.00  0.00     0.025 A 
HETATM    8  C   UNK     0     173.296 171.898 167.961  0.00  0.00     0.030 A 
HETATM    9  C   UNK     0     173.309 172.921 168.909  0.00  0.00     0.020 A 
BRANCH   7  10
HETATM   10  N   UNK     0     172.162 170.673 166.197  0.00  0.00    -0.399 N 
HETATM   11  H   UNK     0     171.691 170.806 165.312  0.00  0.00     0.156 HD
HETATM   12  H   UNK     0     172.624 169.794 166.395  0.00  0.00     0.156 HD
ENDBRANCH   7  10
ENDBRANCH   2   4
ENDBRANCH   1   2
BRANCH   1  13
HETATM   13  C   UNK     0     170.794 174.987 171.948  0.00  0.00     0.174 C 
HETATM   14  C   UNK     0     169.515 174.272 171.569  0.00  0.00     0.034 C 
ENDBRANCH   1  13
TORSDOF 4
ENDMDL
