MODEL 1
REMARK VINA RESULT:      -7.2      0.000      0.000
REMARK  8 active torsions:
REMARK  status: ('A' for Active; 'I' for Inactive)
REMARK    1  A    between atoms: C_2  and  O_3 
REMARK    2  A    between atoms: C_15  and  O_16 
REMARK    3  A    between atoms: C_28  and  C_29 
REMARK    4  A    between atoms: C_33  and  C_34 
REMARK    5  A    between atoms: O_3  and  C_4 
REMARK    6  A    between atoms: C_4  and  C_6 
REMARK    7  A    between atoms: O_16  and  C_17 
REMARK    8  A    between atoms: C_17  and  C_19 
ROOT
ATOM      1  O   LIG     1     172.760 174.317 171.133  0.00  0.00    -0.315 OA
ATOM      2  C   LIG     1     173.769 174.359 170.097  0.00  0.00     0.332 C 
ATOM      3  C   LIG     1     173.268 175.014 168.778  0.00  0.00     0.244 C 
ATOM      4  C   LIG     1     171.876 174.468 168.319  0.00  0.00     0.112 C 
ATOM      5  C   LIG     1     170.873 174.405 169.516  0.00  0.00     0.188 C 
ATOM      6  O   LIG     1     170.464 175.738 169.837  0.00  0.00    -0.220 OA
ATOM      7  C   LIG     1     171.466 173.761 170.808  0.00  0.00     0.182 C 
ENDROOT
BRANCH   2   8
ATOM      8  O   LIG     1     174.412 173.105 169.816  0.00  0.00    -0.418 OA
BRANCH   8   9
ATOM      9  C   LIG     1     175.632 172.922 169.226  0.00  0.00     0.343 C 
ATOM     10  O   LIG     1     175.680 172.465 168.058  0.00  0.00    -0.245 OA
BRANCH   9  11
ATOM     11  C   LIG     1     176.826 173.213 169.942  0.00  0.00     0.082 A 
ATOM     12  C   LIG     1     176.802 173.380 171.350  0.00  0.00     0.052 A 
ATOM     13  C   LIG     1     177.993 173.537 172.088  0.00  0.00     0.238 A 
ATOM     14  C   LIG     1     179.230 173.569 171.418  0.00  0.00     0.273 A 
ATOM     15  O   LIG     1     177.961 173.648 173.442  0.00  0.00    -0.283 OA
ATOM     16  O   LIG     1     180.371 173.696 172.143  0.00  0.00    -0.280 OA
ATOM     17  C   LIG     1     179.272 173.470 170.011  0.00  0.00     0.238 A 
ATOM     18  C   LIG     1     178.079 173.282 169.285  0.00  0.00     0.052 A 
ATOM     19  O   LIG     1     180.463 173.546 169.362  0.00  0.00    -0.283 OA
ENDBRANCH   9  11
ENDBRANCH   8   9
ENDBRANCH   2   8
BRANCH   3  20
ATOM     20  O   LIG     1     173.230 176.441 168.992  0.00  0.00    -0.442 OA
BRANCH  20  21
ATOM     21  C   LIG     1     174.259 177.333 168.867  0.00  0.00     0.341 C 
ATOM     22  O   LIG     1     174.029 178.294 168.099  0.00  0.00    -0.245 OA
BRANCH  21  23
ATOM     23  C   LIG     1     175.475 177.270 169.608  0.00  0.00     0.082 A 
ATOM     24  C   LIG     1     176.718 177.102 168.947  0.00  0.00     0.052 A 
ATOM     25  C   LIG     1     177.925 177.002 169.669  0.00  0.00     0.238 A 
ATOM     26  O   LIG     1     179.093 176.810 169.004  0.00  0.00    -0.283 OA
ATOM     27  C   LIG     1     177.911 177.089 171.077  0.00  0.00     0.273 A 
ATOM     28  O   LIG     1     179.056 177.002 171.807  0.00  0.00    -0.280 OA
ATOM     29  C   LIG     1     176.688 177.268 171.751  0.00  0.00     0.238 A 
ATOM     30  O   LIG     1     176.671 177.335 173.107  0.00  0.00    -0.283 OA
ATOM     31  C   LIG     1     175.487 177.374 171.020  0.00  0.00     0.052 A 
ENDBRANCH  21  23
ENDBRANCH  20  21
ENDBRANCH   3  20
BRANCH   7  32
ATOM     32  C   LIG     1     171.450 172.209 170.878  0.00  0.00     0.214 C 
ATOM     33  O   LIG     1     170.143 171.697 170.635  0.00  0.00    -0.218 OA
ENDBRANCH   7  32
BRANCH   4  34
ATOM     34  C   LIG     1     171.971 173.139 167.507  0.00  0.00     0.189 C 
ATOM     35  O   LIG     1     170.715 172.468 167.479  0.00  0.00    -0.220 OA
ENDBRANCH   4  34
TORSDOF 8
ENDMDL
MODEL 2
REMARK VINA RESULT:      -7.2      0.444      1.478
REMARK  8 active torsions:
REMARK  status: ('A' for Active; 'I' for Inactive)
REMARK    1  A    between atoms: C_2  and  O_3 
REMARK    2  A    between atoms: C_15  and  O_16 
REMARK    3  A    between atoms: C_28  and  C_29 
REMARK    4  A    between atoms: C_33  and  C_34 
REMARK    5  A    between atoms: O_3  and  C_4 
REMARK    6  A    between atoms: C_4  and  C_6 
REMARK    7  A    between atoms: O_16  and  C_17 
REMARK    8  A    between atoms: C_17  and  C_19 
ROOT
ATOM      1  O   LIG     1     172.858 174.303 171.109  0.00  0.00    -0.315 OA
ATOM      2  C   LIG     1     173.797 174.353 170.010  0.00  0.00     0.332 C 
ATOM      3  C   LIG     1     173.219 175.035 168.737  0.00  0.00     0.244 C 
ATOM      4  C   LIG     1     171.794 174.511 168.361  0.00  0.00     0.112 C 
ATOM      5  C   LIG     1     170.871 174.439 169.621  0.00  0.00     0.188 C 
ATOM      6  O   LIG     1     170.499 175.771 169.989  0.00  0.00    -0.220 OA
ATOM      7  C   LIG     1     171.539 173.767 170.861  0.00  0.00     0.182 C 
ENDROOT
BRANCH   2   8
ATOM      8  O   LIG     1     174.405 173.097 169.667  0.00  0.00    -0.418 OA
BRANCH   8   9
ATOM      9  C   LIG     1     175.651 172.905 169.134  0.00  0.00     0.343 C 
ATOM     10  O   LIG     1     175.749 172.443 167.971  0.00  0.00    -0.245 OA
BRANCH   9  11
ATOM     11  C   LIG     1     176.812 173.195 169.902  0.00  0.00     0.082 A 
ATOM     12  C   LIG     1     176.724 173.385 171.304  0.00  0.00     0.052 A 
ATOM     13  C   LIG     1     177.879 173.541 172.095  0.00  0.00     0.238 A 
ATOM     14  C   LIG     1     179.148 173.549 171.485  0.00  0.00     0.273 A 
ATOM     15  O   LIG     1     177.785 173.674 173.445  0.00  0.00    -0.283 OA
ATOM     16  O   LIG     1     180.253 173.675 172.262  0.00  0.00    -0.280 OA
ATOM     17  C   LIG     1     179.255 173.427 170.084  0.00  0.00     0.238 A 
ATOM     18  C   LIG     1     178.096 173.240 169.304  0.00  0.00     0.052 A 
ATOM     19  O   LIG     1     180.476 173.479 169.492  0.00  0.00    -0.283 OA
ENDBRANCH   9  11
ENDBRANCH   8   9
ENDBRANCH   2   8
BRANCH   3  20
ATOM     20  O   LIG     1     173.212 176.458 168.977  0.00  0.00    -0.442 OA
BRANCH  20  21
ATOM     21  C   LIG     1     174.260 177.330 168.868  0.00  0.00     0.341 C 
ATOM     22  O   LIG     1     174.052 178.308 168.115  0.00  0.00    -0.245 OA
BRANCH  21  23
ATOM     23  C   LIG     1     175.473 177.228 169.609  0.00  0.00     0.082 A 
ATOM     24  C   LIG     1     175.473 177.356 171.021  0.00  0.00     0.052 A 
ATOM     25  C   LIG     1     176.670 177.295 171.763  0.00  0.00     0.238 A 
ATOM     26  O   LIG     1     176.635 177.454 173.111  0.00  0.00    -0.283 OA
ATOM     27  C   LIG     1     177.898 177.082 171.101  0.00  0.00     0.273 A 
ATOM     28  O   LIG     1     179.072 177.011 171.784  0.00  0.00    -0.280 OA
ATOM     29  C   LIG     1     177.917 176.939 169.701  0.00  0.00     0.238 A 
ATOM     30  O   LIG     1     179.100 176.752 169.061  0.00  0.00    -0.283 OA
ATOM     31  C   LIG     1     176.714 176.996 168.968  0.00  0.00     0.052 A 
ENDBRANCH  21  23
ENDBRANCH  20  21
ENDBRANCH   3  20
BRANCH   7  32
ATOM     32  C   LIG     1     171.509 172.214 170.906  0.00  0.00     0.214 C 
ATOM     33  O   LIG     1     172.327 171.714 171.960  0.00  0.00    -0.218 OA
ENDBRANCH   7  32
BRANCH   4  34
ATOM     34  C   LIG     1     171.821 173.196 167.523  0.00  0.00     0.189 C 
ATOM     35  O   LIG     1     170.554 172.545 167.556  0.00  0.00    -0.220 OA
ENDBRANCH   4  34
TORSDOF 8
ENDMDL
MODEL 3
REMARK VINA RESULT:      -7.2      2.637      4.630
REMARK  8 active torsions:
REMARK  status: ('A' for Active; 'I' for Inactive)
REMARK    1  A    between atoms: C_2  and  O_3 
REMARK    2  A    between atoms: C_15  and  O_16 
REMARK    3  A    between atoms: C_28  and  C_29 
REMARK    4  A    between atoms: C_33  and  C_34 
REMARK    5  A    between atoms: O_3  and  C_4 
REMARK    6  A    between atoms: C_4  and  C_6 
REMARK    7  A    between atoms: O_16  and  C_17 
REMARK    8  A    between atoms: C_17  and  C_19 
ROOT
ATOM      1  O   LIG     1     174.589 176.355 170.319  0.00  0.00    -0.315 OA
ATOM      2  C   LIG     1     175.963 175.903 170.289  0.00  0.00     0.332 C 
ATOM      3  C   LIG     1     176.994 177.063 170.404  0.00  0.00     0.244 C 
ATOM      4  C   LIG     1     176.674 178.258 169.447  0.00  0.00     0.112 C 
ATOM      5  C   LIG     1     175.159 178.635 169.505  0.00  0.00     0.188 C 
ATOM      6  O   LIG     1     174.904 179.303 170.745  0.00  0.00    -0.220 OA
ATOM      7  C   LIG     1     174.195 177.411 169.414  0.00  0.00     0.182 C 
ENDROOT
BRANCH   2   8
ATOM      8  O   LIG     1     176.303 175.045 169.188  0.00  0.00    -0.418 OA
BRANCH   8   9
ATOM      9  C   LIG     1     177.030 173.888 169.241  0.00  0.00     0.343 C 
ATOM     10  O   LIG     1     176.465 172.802 168.960  0.00  0.00    -0.245 OA
BRANCH   9  11
ATOM     11  C   LIG     1     178.394 173.915 169.642  0.00  0.00     0.082 A 
ATOM     12  C   LIG     1     178.807 173.293 170.847  0.00  0.00     0.052 A 
ATOM     13  C   LIG     1     180.170 173.197 171.191  0.00  0.00     0.238 A 
ATOM     14  C   LIG     1     181.145 173.762 170.348  0.00  0.00     0.273 A 
ATOM     15  O   LIG     1     180.557 172.554 172.325  0.00  0.00    -0.283 OA
ATOM     16  O   LIG     1     182.455 173.640 170.678  0.00  0.00    -0.280 OA
ATOM     17  C   LIG     1     180.751 174.443 169.177  0.00  0.00     0.238 A 
ATOM     18  C   LIG     1     179.389 174.507 168.825  0.00  0.00     0.052 A 
ATOM     19  O   LIG     1     181.689 175.027 168.386  0.00  0.00    -0.283 OA
ENDBRANCH   9  11
ENDBRANCH   8   9
ENDBRANCH   2   8
BRANCH   3  20
ATOM     20  O   LIG     1     177.017 177.483 171.784  0.00  0.00    -0.442 OA
BRANCH  20  21
ATOM     21  C   LIG     1     177.870 178.377 172.372  0.00  0.00     0.341 C 
ATOM     22  O   LIG     1     177.316 179.217 173.116  0.00  0.00    -0.245 OA
BRANCH  21  23
ATOM     23  C   LIG     1     179.289 178.332 172.258  0.00  0.00     0.082 A 
ATOM     24  C   LIG     1     180.005 177.153 172.584  0.00  0.00     0.052 A 
ATOM     25  C   LIG     1     181.413 177.106 172.510  0.00  0.00     0.238 A 
ATOM     26  O   LIG     1     182.067 175.968 172.860  0.00  0.00    -0.283 OA
ATOM     27  C   LIG     1     182.133 178.241 172.085  0.00  0.00     0.273 A 
ATOM     28  O   LIG     1     183.490 178.231 171.996  0.00  0.00    -0.280 OA
ATOM     29  C   LIG     1     181.439 179.418 171.745  0.00  0.00     0.238 A 
ATOM     30  O   LIG     1     182.132 180.517 171.353  0.00  0.00    -0.283 OA
ATOM     31  C   LIG     1     180.031 179.453 171.815  0.00  0.00     0.052 A 
ENDBRANCH  21  23
ENDBRANCH  20  21
ENDBRANCH   3  20
BRANCH   7  32
ATOM     32  C   LIG     1     173.878 176.885 167.986  0.00  0.00     0.214 C 
ATOM     33  O   LIG     1     173.101 175.692 168.038  0.00  0.00    -0.218 OA
ENDBRANCH   7  32
BRANCH   4  34
ATOM     34  C   LIG     1     177.217 178.051 167.999  0.00  0.00     0.189 C 
ATOM     35  O   LIG     1     178.620 177.805 168.012  0.00  0.00    -0.220 OA
ENDBRANCH   4  34
TORSDOF 8
ENDMDL
MODEL 4
REMARK VINA RESULT:      -7.2      1.739      6.040
REMARK  8 active torsions:
REMARK  status: ('A' for Active; 'I' for Inactive)
REMARK    1  A    between atoms: C_2  and  O_3 
REMARK    2  A    between atoms: C_15  and  O_16 
REMARK    3  A    between atoms: C_28  and  C_29 
REMARK    4  A    between atoms: C_33  and  C_34 
REMARK    5  A    between atoms: O_3  and  C_4 
REMARK    6  A    between atoms: C_4  and  C_6 
REMARK    7  A    between atoms: O_16  and  C_17 
REMARK    8  A    between atoms: C_17  and  C_19 
ROOT
ATOM      1  O   LIG     1     176.524 177.141 168.581  0.00  0.00    -0.315 OA
ATOM      2  C   LIG     1     175.782 176.160 169.341  0.00  0.00     0.332 C 
ATOM      3  C   LIG     1     174.730 176.791 170.298  0.00  0.00     0.244 C 
ATOM      4  C   LIG     1     175.309 177.975 171.141  0.00  0.00     0.112 C 
ATOM      5  C   LIG     1     176.142 178.948 170.246  0.00  0.00     0.188 C 
ATOM      6  O   LIG     1     175.238 179.707 169.436  0.00  0.00    -0.220 OA
ATOM      7  C   LIG     1     177.150 178.231 169.294  0.00  0.00     0.182 C 
ENDROOT
BRANCH   2   8
ATOM      8  O   LIG     1     176.581 175.198 170.047  0.00  0.00    -0.418 OA
BRANCH   8   9
ATOM      9  C   LIG     1     177.254 174.135 169.510  0.00  0.00     0.343 C 
ATOM     10  O   LIG     1     176.630 173.327 168.781  0.00  0.00    -0.245 OA
BRANCH   9  11
ATOM     11  C   LIG     1     178.632 173.935 169.804  0.00  0.00     0.082 A 
ATOM     12  C   LIG     1     179.636 174.496 168.975  0.00  0.00     0.052 A 
ATOM     13  C   LIG     1     180.999 174.419 169.325  0.00  0.00     0.238 A 
ATOM     14  C   LIG     1     181.382 173.740 170.497  0.00  0.00     0.273 A 
ATOM     15  O   LIG     1     181.950 175.003 168.548  0.00  0.00    -0.283 OA
ATOM     16  O   LIG     1     182.696 173.695 170.835  0.00  0.00    -0.280 OA
ATOM     17  C   LIG     1     180.404 173.118 171.301  0.00  0.00     0.238 A 
ATOM     18  C   LIG     1     179.042 173.228 170.961  0.00  0.00     0.052 A 
ATOM     19  O   LIG     1     180.779 172.426 172.408  0.00  0.00    -0.283 OA
ENDBRANCH   9  11
ENDBRANCH   8   9
ENDBRANCH   2   8
BRANCH   3  20
ATOM     20  O   LIG     1     173.612 177.215 169.490  0.00  0.00    -0.442 OA
BRANCH  20  21
ATOM     21  C   LIG     1     172.900 176.470 168.591  0.00  0.00     0.341 C 
ATOM     22  O   LIG     1     173.220 176.647 167.394  0.00  0.00    -0.245 OA
BRANCH  21  23
ATOM     23  C   LIG     1     171.932 175.486 168.947  0.00  0.00     0.082 A 
ATOM     24  C   LIG     1     171.649 174.402 168.078  0.00  0.00     0.052 A 
ATOM     25  C   LIG     1     170.668 173.442 168.400  0.00  0.00     0.238 A 
ATOM     26  O   LIG     1     170.401 172.435 167.528  0.00  0.00    -0.283 OA
ATOM     27  C   LIG     1     169.962 173.538 169.617  0.00  0.00     0.273 A 
ATOM     28  O   LIG     1     169.013 172.627 169.964  0.00  0.00    -0.280 OA
ATOM     29  C   LIG     1     170.238 174.600 170.499  0.00  0.00     0.238 A 
ATOM     30  O   LIG     1     169.547 174.704 171.663  0.00  0.00    -0.283 OA
ATOM     31  C   LIG     1     171.226 175.552 170.172  0.00  0.00     0.052 A 
ENDBRANCH  21  23
ENDBRANCH  20  21
ENDBRANCH   3  20
BRANCH   7  32
ATOM     32  C   LIG     1     178.519 177.831 169.912  0.00  0.00     0.214 C 
ATOM     33  O   LIG     1     179.124 178.933 170.579  0.00  0.00    -0.218 OA
ENDBRANCH   7  32
BRANCH   4  34
ATOM     34  C   LIG     1     176.056 177.508 172.429  0.00  0.00     0.189 C 
ATOM     35  O   LIG     1     176.762 178.591 173.027  0.00  0.00    -0.220 OA
ENDBRANCH   4  34
TORSDOF 8
ENDMDL
MODEL 5
REMARK VINA RESULT:      -7.2      1.469      1.661
REMARK  8 active torsions:
REMARK  status: ('A' for Active; 'I' for Inactive)
REMARK    1  A    between atoms: C_2  and  O_3 
REMARK    2  A    between atoms: C_15  and  O_16 
REMARK    3  A    between atoms: C_28  and  C_29 
REMARK    4  A    between atoms: C_33  and  C_34 
REMARK    5  A    between atoms: O_3  and  C_4 
REMARK    6  A    between atoms: C_4  and  C_6 
REMARK    7  A    between atoms: O_16  and  C_17 
REMARK    8  A    between atoms: C_17  and  C_19 
ROOT
ATOM      1  O   LIG     1     171.875 174.171 171.136  0.00  0.00    -0.315 OA
ATOM      2  C   LIG     1     173.124 174.138 170.407  0.00  0.00     0.332 C 
ATOM      3  C   LIG     1     173.042 174.828 169.014  0.00  0.00     0.244 C 
ATOM      4  C   LIG     1     171.788 174.385 168.191  0.00  0.00     0.112 C 
ATOM      5  C   LIG     1     170.500 174.397 169.076  0.00  0.00     0.188 C 
ATOM      6  O   LIG     1     170.116 175.757 169.302  0.00  0.00    -0.220 OA
ATOM      7  C   LIG     1     170.679 173.712 170.468  0.00  0.00     0.182 C 
ENDROOT
BRANCH   2   8
ATOM      8  O   LIG     1     173.728 172.840 170.283  0.00  0.00    -0.418 OA
BRANCH   8   9
ATOM      9  C   LIG     1     175.029 172.511 170.545  0.00  0.00     0.343 C 
ATOM     10  O   LIG     1     175.360 171.300 170.546  0.00  0.00    -0.245 OA
BRANCH   9  11
ATOM     11  C   LIG     1     175.980 173.525 170.843  0.00  0.00     0.082 A 
ATOM     12  C   LIG     1     176.316 173.829 172.187  0.00  0.00     0.052 A 
ATOM     13  C   LIG     1     177.350 174.736 172.494  0.00  0.00     0.238 A 
ATOM     14  C   LIG     1     178.041 175.387 171.455  0.00  0.00     0.273 A 
ATOM     15  O   LIG     1     177.696 174.983 173.786  0.00  0.00    -0.283 OA
ATOM     16  O   LIG     1     179.051 176.239 171.765  0.00  0.00    -0.280 OA
ATOM     17  C   LIG     1     177.678 175.148 170.113  0.00  0.00     0.238 A 
ATOM     18  C   LIG     1     176.665 174.216 169.813  0.00  0.00     0.052 A 
ATOM     19  O   LIG     1     178.316 175.810 169.112  0.00  0.00    -0.283 OA
ENDBRANCH   9  11
ENDBRANCH   8   9
ENDBRANCH   2   8
BRANCH   3  20
ATOM     20  O   LIG     1     173.050 176.253 169.238  0.00  0.00    -0.442 OA
BRANCH  20  21
ATOM     21  C   LIG     1     173.923 177.175 168.729  0.00  0.00     0.341 C 
ATOM     22  O   LIG     1     173.694 177.515 167.547  0.00  0.00    -0.245 OA
BRANCH  21  23
ATOM     23  C   LIG     1     174.962 177.799 169.477  0.00  0.00     0.082 A 
ATOM     24  C   LIG     1     175.977 178.544 168.824  0.00  0.00     0.052 A 
ATOM     25  C   LIG     1     177.032 179.136 169.547  0.00  0.00     0.238 A 
ATOM     26  O   LIG     1     178.004 179.816 168.885  0.00  0.00    -0.283 OA
ATOM     27  C   LIG     1     177.079 179.012 170.952  0.00  0.00     0.273 A 
ATOM     28  O   LIG     1     178.078 179.575 171.683  0.00  0.00    -0.280 OA
ATOM     29  C   LIG     1     176.074 178.287 171.620  0.00  0.00     0.238 A 
ATOM     30  O   LIG     1     176.127 178.151 172.969  0.00  0.00    -0.283 OA
ATOM     31  C   LIG     1     175.019 177.704 170.888  0.00  0.00     0.052 A 
ENDBRANCH  21  23
ENDBRANCH  20  21
ENDBRANCH   3  20
BRANCH   7  32
ATOM     32  C   LIG     1     170.534 172.165 170.501  0.00  0.00     0.214 C 
ATOM     33  O   LIG     1     169.532 171.722 169.590  0.00  0.00    -0.218 OA
ENDBRANCH   7  32
BRANCH   4  34
ATOM     34  C   LIG     1     172.002 173.052 167.408  0.00  0.00     0.189 C 
ATOM     35  O   LIG     1     173.339 172.955 166.927  0.00  0.00    -0.220 OA
ENDBRANCH   4  34
TORSDOF 8
ENDMDL
MODEL 6
REMARK VINA RESULT:      -7.2      1.993      6.712
REMARK  8 active torsions:
REMARK  status: ('A' for Active; 'I' for Inactive)
REMARK    1  A    between atoms: C_2  and  O_3 
REMARK    2  A    between atoms: C_15  and  O_16 
REMARK    3  A    between atoms: C_28  and  C_29 
REMARK    4  A    between atoms: C_33  and  C_34 
REMARK    5  A    between atoms: O_3  and  C_4 
REMARK    6  A    between atoms: C_4  and  C_6 
REMARK    7  A    between atoms: O_16  and  C_17 
REMARK    8  A    between atoms: C_17  and  C_19 
ROOT
ATOM      1  O   LIG     1     180.370 176.494 170.268  0.00  0.00    -0.315 OA
ATOM      2  C   LIG     1     179.175 175.795 170.689  0.00  0.00     0.332 C 
ATOM      3  C   LIG     1     178.607 176.309 172.043  0.00  0.00     0.244 C 
ATOM      4  C   LIG     1     179.706 176.454 173.146  0.00  0.00     0.112 C 
ATOM      5  C   LIG     1     180.978 177.168 172.583  0.00  0.00     0.188 C 
ATOM      6  O   LIG     1     180.682 178.558 172.416  0.00  0.00    -0.220 OA
ATOM      7  C   LIG     1     181.461 176.611 171.207  0.00  0.00     0.182 C 
ENDROOT
BRANCH   2   8
ATOM      8  O   LIG     1     179.276 174.362 170.704  0.00  0.00    -0.418 OA
BRANCH   8   9
ATOM      9  C   LIG     1     178.664 173.485 169.851  0.00  0.00     0.343 C 
ATOM     10  O   LIG     1     179.322 173.009 168.894  0.00  0.00    -0.245 OA
BRANCH   9  11
ATOM     11  C   LIG     1     177.294 173.148 170.030  0.00  0.00     0.082 A 
ATOM     12  C   LIG     1     176.805 172.759 171.303  0.00  0.00     0.052 A 
ATOM     13  C   LIG     1     175.429 172.551 171.525  0.00  0.00     0.238 A 
ATOM     14  C   LIG     1     174.520 172.690 170.459  0.00  0.00     0.273 A 
ATOM     15  O   LIG     1     174.966 172.226 172.762  0.00  0.00    -0.283 OA
ATOM     16  O   LIG     1     173.196 172.510 170.693  0.00  0.00    -0.280 OA
ATOM     17  C   LIG     1     174.993 173.011 169.170  0.00  0.00     0.238 A 
ATOM     18  C   LIG     1     176.366 173.250 168.964  0.00  0.00     0.052 A 
ATOM     19  O   LIG     1     174.120 173.102 168.133  0.00  0.00    -0.283 OA
ENDBRANCH   9  11
ENDBRANCH   8   9
ENDBRANCH   2   8
BRANCH   3  20
ATOM     20  O   LIG     1     177.948 177.566 171.785  0.00  0.00    -0.442 OA
BRANCH  20  21
ATOM     21  C   LIG     1     176.604 177.820 171.774  0.00  0.00     0.341 C 
ATOM     22  O   LIG     1     176.187 178.476 172.754  0.00  0.00    -0.245 OA
BRANCH  21  23
ATOM     23  C   LIG     1     175.727 177.472 170.706  0.00  0.00     0.082 A 
ATOM     24  C   LIG     1     175.996 177.896 169.381  0.00  0.00     0.052 A 
ATOM     25  C   LIG     1     175.117 177.591 168.321  0.00  0.00     0.238 A 
ATOM     26  O   LIG     1     175.391 178.040 167.069  0.00  0.00    -0.283 OA
ATOM     27  C   LIG     1     173.954 176.831 168.568  0.00  0.00     0.273 A 
ATOM     28  O   LIG     1     173.087 176.512 167.570  0.00  0.00    -0.280 OA
ATOM     29  C   LIG     1     173.676 176.390 169.876  0.00  0.00     0.238 A 
ATOM     30  O   LIG     1     172.549 175.675 170.118  0.00  0.00    -0.283 OA
ATOM     31  C   LIG     1     174.564 176.695 170.928  0.00  0.00     0.052 A 
ENDBRANCH  21  23
ENDBRANCH  20  21
ENDBRANCH   3  20
BRANCH   7  32
ATOM     32  C   LIG     1     182.351 175.337 171.250  0.00  0.00     0.214 C 
ATOM     33  O   LIG     1     182.599 174.839 169.940  0.00  0.00    -0.218 OA
ENDBRANCH   7  32
BRANCH   4  34
ATOM     34  C   LIG     1     180.011 175.119 173.894  0.00  0.00     0.189 C 
ATOM     35  O   LIG     1     180.689 175.367 175.121  0.00  0.00    -0.220 OA
ENDBRANCH   4  34
TORSDOF 8
ENDMDL
MODEL 7
REMARK VINA RESULT:      -7.2      1.997      6.954
REMARK  8 active torsions:
REMARK  status: ('A' for Active; 'I' for Inactive)
REMARK    1  A    between atoms: C_2  and  O_3 
REMARK    2  A    between atoms: C_15  and  O_16 
REMARK    3  A    between atoms: C_28  and  C_29 
REMARK    4  A    between atoms: C_33  and  C_34 
REMARK    5  A    between atoms: O_3  and  C_4 
REMARK    6  A    between atoms: C_4  and  C_6 
REMARK    7  A    between atoms: O_16  and  C_17 
REMARK    8  A    between atoms: C_17  and  C_19 
ROOT
ATOM      1  O   LIG     1     180.404 176.631 170.193  0.00  0.00    -0.315 OA
ATOM      2  C   LIG     1     179.223 175.909 170.615  0.00  0.00     0.332 C 
ATOM      3  C   LIG     1     178.663 176.393 171.984  0.00  0.00     0.244 C 
ATOM      4  C   LIG     1     179.772 176.537 173.077  0.00  0.00     0.112 C 
ATOM      5  C   LIG     1     181.027 177.277 172.512  0.00  0.00     0.188 C 
ATOM      6  O   LIG     1     180.710 178.666 172.370  0.00  0.00    -0.220 OA
ATOM      7  C   LIG     1     181.504 176.750 171.123  0.00  0.00     0.182 C 
ENDROOT
BRANCH   2   8
ATOM      8  O   LIG     1     179.345 174.477 170.607  0.00  0.00    -0.418 OA
BRANCH   8   9
ATOM      9  C   LIG     1     178.643 173.597 169.830  0.00  0.00     0.343 C 
ATOM     10  O   LIG     1     179.237 173.002 168.898  0.00  0.00    -0.245 OA
BRANCH   9  11
ATOM     11  C   LIG     1     177.254 173.388 170.058  0.00  0.00     0.082 A 
ATOM     12  C   LIG     1     176.334 173.404 168.980  0.00  0.00     0.052 A 
ATOM     13  C   LIG     1     174.979 173.069 169.170  0.00  0.00     0.238 A 
ATOM     14  C   LIG     1     174.513 172.749 170.460  0.00  0.00     0.273 A 
ATOM     15  O   LIG     1     174.116 173.040 168.120  0.00  0.00    -0.283 OA
ATOM     16  O   LIG     1     173.211 172.403 170.624  0.00  0.00    -0.280 OA
ATOM     17  C   LIG     1     175.398 172.791 171.557  0.00  0.00     0.238 A 
ATOM     18  C   LIG     1     176.758 173.096 171.352  0.00  0.00     0.052 A 
ATOM     19  O   LIG     1     174.938 172.524 172.807  0.00  0.00    -0.283 OA
ENDBRANCH   9  11
ENDBRANCH   8   9
ENDBRANCH   2   8
BRANCH   3  20
ATOM     20  O   LIG     1     177.984 177.645 171.753  0.00  0.00    -0.442 OA
BRANCH  20  21
ATOM     21  C   LIG     1     176.637 177.884 171.783  0.00  0.00     0.341 C 
ATOM     22  O   LIG     1     176.240 178.513 172.790  0.00  0.00    -0.245 OA
BRANCH  21  23
ATOM     23  C   LIG     1     175.736 177.552 170.731  0.00  0.00     0.082 A 
ATOM     24  C   LIG     1     174.576 176.779 170.988  0.00  0.00     0.052 A 
ATOM     25  C   LIG     1     173.694 176.412 169.951  0.00  0.00     0.238 A 
ATOM     26  O   LIG     1     172.609 175.644 170.230  0.00  0.00    -0.283 OA
ATOM     27  C   LIG     1     173.948 176.835 168.629  0.00  0.00     0.273 A 
ATOM     28  O   LIG     1     173.117 176.506 167.604  0.00  0.00    -0.280 OA
ATOM     29  C   LIG     1     175.088 177.615 168.356  0.00  0.00     0.238 A 
ATOM     30  O   LIG     1     175.344 178.007 167.082  0.00  0.00    -0.283 OA
ATOM     31  C   LIG     1     175.961 177.982 169.401  0.00  0.00     0.052 A 
ENDBRANCH  21  23
ENDBRANCH  20  21
ENDBRANCH   3  20
BRANCH   7  32
ATOM     32  C   LIG     1     182.411 175.488 171.136  0.00  0.00     0.214 C 
ATOM     33  O   LIG     1     182.612 174.984 169.819  0.00  0.00    -0.218 OA
ENDBRANCH   7  32
BRANCH   4  34
ATOM     34  C   LIG     1     180.104 175.195 173.800  0.00  0.00     0.189 C 
ATOM     35  O   LIG     1     180.641 175.435 175.097  0.00  0.00    -0.220 OA
ENDBRANCH   4  34
TORSDOF 8
ENDMDL
MODEL 8
REMARK VINA RESULT:      -7.1      9.600     13.352
REMARK  8 active torsions:
REMARK  status: ('A' for Active; 'I' for Inactive)
REMARK    1  A    between atoms: C_2  and  O_3 
REMARK    2  A    between atoms: C_15  and  O_16 
REMARK    3  A    between atoms: C_28  and  C_29 
REMARK    4  A    between atoms: C_33  and  C_34 
REMARK    5  A    between atoms: O_3  and  C_4 
REMARK    6  A    between atoms: C_4  and  C_6 
REMARK    7  A    between atoms: O_16  and  C_17 
REMARK    8  A    between atoms: C_17  and  C_19 
ROOT
ATOM      1  O   LIG     1     183.649 180.835 171.602  0.00  0.00    -0.315 OA
ATOM      2  C   LIG     1     183.367 182.133 172.176  0.00  0.00     0.332 C 
ATOM      3  C   LIG     1     182.147 182.127 173.141  0.00  0.00     0.244 C 
ATOM      4  C   LIG     1     180.904 181.389 172.543  0.00  0.00     0.112 C 
ATOM      5  C   LIG     1     181.316 180.027 171.896  0.00  0.00     0.188 C 
ATOM      6  O   LIG     1     181.611 179.097 172.943  0.00  0.00    -0.220 OA
ATOM      7  C   LIG     1     182.567 180.117 170.967  0.00  0.00     0.182 C 
ENDROOT
BRANCH   2   8
ATOM      8  O   LIG     1     183.248 183.209 171.231  0.00  0.00    -0.418 OA
BRANCH   8   9
ATOM      9  C   LIG     1     183.655 184.503 171.403  0.00  0.00     0.343 C 
ATOM     10  O   LIG     1     182.842 185.339 171.867  0.00  0.00    -0.245 OA
BRANCH   9  11
ATOM     11  C   LIG     1     184.970 184.897 171.029  0.00  0.00     0.082 A 
ATOM     12  C   LIG     1     185.364 186.257 171.097  0.00  0.00     0.052 A 
ATOM     13  C   LIG     1     186.698 186.644 170.858  0.00  0.00     0.238 A 
ATOM     14  C   LIG     1     187.655 185.674 170.506  0.00  0.00     0.273 A 
ATOM     15  O   LIG     1     187.075 187.946 170.974  0.00  0.00    -0.283 OA
ATOM     16  O   LIG     1     188.941 186.057 170.303  0.00  0.00    -0.280 OA
ATOM     17  C   LIG     1     187.269 184.324 170.369  0.00  0.00     0.238 A 
ATOM     18  C   LIG     1     185.941 183.941 170.641  0.00  0.00     0.052 A 
ATOM     19  O   LIG     1     188.184 183.395 169.986  0.00  0.00    -0.283 OA
ENDBRANCH   9  11
ENDBRANCH   8   9
ENDBRANCH   2   8
BRANCH   3  20
ATOM     20  O   LIG     1     182.578 181.519 174.377  0.00  0.00    -0.442 OA
BRANCH  20  21
ATOM     21  C   LIG     1     183.391 182.059 175.335  0.00  0.00     0.341 C 
ATOM     22  O   LIG     1     183.304 181.518 176.461  0.00  0.00    -0.245 OA
BRANCH  21  23
ATOM     23  C   LIG     1     184.348 183.086 175.095  0.00  0.00     0.082 A 
ATOM     24  C   LIG     1     183.974 184.453 175.154  0.00  0.00     0.052 A 
ATOM     25  C   LIG     1     184.902 185.479 174.883  0.00  0.00     0.238 A 
ATOM     26  O   LIG     1     184.501 186.776 174.919  0.00  0.00    -0.283 OA
ATOM     27  C   LIG     1     186.238 185.154 174.565  0.00  0.00     0.273 A 
ATOM     28  O   LIG     1     187.162 186.117 174.303  0.00  0.00    -0.280 OA
ATOM     29  C   LIG     1     186.632 183.803 174.514  0.00  0.00     0.238 A 
ATOM     30  O   LIG     1     187.912 183.489 174.190  0.00  0.00    -0.283 OA
ATOM     31  C   LIG     1     185.698 182.784 174.793  0.00  0.00     0.052 A 
ENDBRANCH  21  23
ENDBRANCH  20  21
ENDBRANCH   3  20
BRANCH   7  32
ATOM     32  C   LIG     1     182.313 180.589 169.509  0.00  0.00     0.214 C 
ATOM     33  O   LIG     1     183.539 180.779 168.809  0.00  0.00    -0.218 OA
ENDBRANCH   7  32
BRANCH   4  34
ATOM     34  C   LIG     1     180.038 182.293 171.612  0.00  0.00     0.189 C 
ATOM     35  O   LIG     1     179.098 181.514 170.878  0.00  0.00    -0.220 OA
ENDBRANCH   4  34
TORSDOF 8
ENDMDL
MODEL 9
REMARK VINA RESULT:      -7.1      2.276      7.170
REMARK  8 active torsions:
REMARK  status: ('A' for Active; 'I' for Inactive)
REMARK    1  A    between atoms: C_2  and  O_3 
REMARK    2  A    between atoms: C_15  and  O_16 
REMARK    3  A    between atoms: C_28  and  C_29 
REMARK    4  A    between atoms: C_33  and  C_34 
REMARK    5  A    between atoms: O_3  and  C_4 
REMARK    6  A    between atoms: C_4  and  C_6 
REMARK    7  A    between atoms: O_16  and  C_17 
REMARK    8  A    between atoms: C_17  and  C_19 
ROOT
ATOM      1  O   LIG     1     180.921 178.027 170.052  0.00  0.00    -0.315 OA
ATOM      2  C   LIG     1     179.969 176.982 170.360  0.00  0.00     0.332 C 
ATOM      3  C   LIG     1     179.316 177.140 171.763  0.00  0.00     0.244 C 
ATOM      4  C   LIG     1     180.361 177.430 172.890  0.00  0.00     0.112 C 
ATOM      5  C   LIG     1     181.379 178.529 172.444  0.00  0.00     0.188 C 
ATOM      6  O   LIG     1     180.716 179.797 172.459  0.00  0.00    -0.220 OA
ATOM      7  C   LIG     1     181.963 178.310 171.012  0.00  0.00     0.182 C 
ENDROOT
BRANCH   2   8
ATOM      8  O   LIG     1     180.454 175.640 170.186  0.00  0.00    -0.418 OA
BRANCH   8   9
ATOM      9  C   LIG     1     179.837 174.625 169.507  0.00  0.00     0.343 C 
ATOM     10  O   LIG     1     180.285 174.285 168.385  0.00  0.00    -0.245 OA
BRANCH   9  11
ATOM     11  C   LIG     1     178.687 173.991 170.053  0.00  0.00     0.082 A 
ATOM     12  C   LIG     1     177.587 173.651 169.226  0.00  0.00     0.052 A 
ATOM     13  C   LIG     1     176.500 172.906 169.725  0.00  0.00     0.238 A 
ATOM     14  C   LIG     1     176.479 172.522 171.079  0.00  0.00     0.273 A 
ATOM     15  O   LIG     1     175.474 172.543 168.910  0.00  0.00    -0.283 OA
ATOM     16  O   LIG     1     175.438 171.783 171.540  0.00  0.00    -0.280 OA
ATOM     17  C   LIG     1     177.532 172.907 171.935  0.00  0.00     0.238 A 
ATOM     18  C   LIG     1     178.630 173.624 171.421  0.00  0.00     0.052 A 
ATOM     19  O   LIG     1     177.490 172.573 173.252  0.00  0.00    -0.283 OA
ENDBRANCH   9  11
ENDBRANCH   8   9
ENDBRANCH   2   8
BRANCH   3  20
ATOM     20  O   LIG     1     178.337 178.195 171.666  0.00  0.00    -0.442 OA
BRANCH  20  21
ATOM     21  C   LIG     1     177.003 178.128 171.963  0.00  0.00     0.341 C 
ATOM     22  O   LIG     1     176.690 178.611 173.075  0.00  0.00    -0.245 OA
BRANCH  21  23
ATOM     23  C   LIG     1     176.001 177.649 171.072  0.00  0.00     0.082 A 
ATOM     24  C   LIG     1     175.611 178.411 169.942  0.00  0.00     0.052 A 
ATOM     25  C   LIG     1     174.595 177.966 169.072  0.00  0.00     0.238 A 
ATOM     26  O   LIG     1     174.226 178.739 168.017  0.00  0.00    -0.283 OA
ATOM     27  C   LIG     1     173.960 176.729 169.306  0.00  0.00     0.273 A 
ATOM     28  O   LIG     1     172.980 176.264 168.485  0.00  0.00    -0.280 OA
ATOM     29  C   LIG     1     174.342 175.950 170.415  0.00  0.00     0.238 A 
ATOM     30  O   LIG     1     173.720 174.768 170.653  0.00  0.00    -0.283 OA
ATOM     31  C   LIG     1     175.364 176.401 171.277  0.00  0.00     0.052 A 
ENDBRANCH  21  23
ENDBRANCH  20  21
ENDBRANCH   3  20
BRANCH   7  32
ATOM     32  C   LIG     1     183.163 177.330 170.897  0.00  0.00     0.214 C 
ATOM     33  O   LIG     1     184.351 177.906 171.433  0.00  0.00    -0.218 OA
ENDBRANCH   7  32
BRANCH   4  34
ATOM     34  C   LIG     1     181.032 176.142 173.457  0.00  0.00     0.189 C 
ATOM     35  O   LIG     1     180.367 175.697 174.635  0.00  0.00    -0.220 OA
ENDBRANCH   4  34
TORSDOF 8
ENDMDL
MODEL 10
REMARK VINA RESULT:      -7.1      2.672      8.115
REMARK  8 active torsions:
REMARK  status: ('A' for Active; 'I' for Inactive)
REMARK    1  A    between atoms: C_2  and  O_3 
REMARK    2  A    between atoms: C_15  and  O_16 
REMARK    3  A    between atoms: C_28  and  C_29 
REMARK    4  A    between atoms: C_33  and  C_34 
REMARK    5  A    between atoms: O_3  and  C_4 
REMARK    6  A    between atoms: C_4  and  C_6 
REMARK    7  A    between atoms: O_16  and  C_17 
REMARK    8  A    between atoms: C_17  and  C_19 
ROOT
ATOM      1  O   LIG     1     181.364 177.685 172.973  0.00  0.00    -0.315 OA
ATOM      2  C   LIG     1     180.165 177.052 172.468  0.00  0.00     0.332 C 
ATOM      3  C   LIG     1     180.260 176.669 170.963  0.00  0.00     0.244 C 
ATOM      4  C   LIG     1     180.814 177.831 170.075  0.00  0.00     0.112 C 
ATOM      5  C   LIG     1     182.071 178.490 170.729  0.00  0.00     0.188 C 
ATOM      6  O   LIG     1     183.178 177.593 170.592  0.00  0.00    -0.220 OA
ATOM      7  C   LIG     1     181.902 178.812 172.247  0.00  0.00     0.182 C 
ENDROOT
BRANCH   2   8
ATOM      8  O   LIG     1     178.942 177.761 172.724  0.00  0.00    -0.418 OA
BRANCH   8   9
ATOM      9  C   LIG     1     177.703 177.218 172.924  0.00  0.00     0.343 C 
ATOM     10  O   LIG     1     177.484 176.578 173.981  0.00  0.00    -0.245 OA
BRANCH   9  11
ATOM     11  C   LIG     1     176.693 177.350 171.931  0.00  0.00     0.082 A 
ATOM     12  C   LIG     1     176.478 178.591 171.280  0.00  0.00     0.052 A 
ATOM     13  C   LIG     1     175.574 178.705 170.204  0.00  0.00     0.238 A 
ATOM     14  C   LIG     1     174.838 177.580 169.788  0.00  0.00     0.273 A 
ATOM     15  O   LIG     1     175.412 179.889 169.556  0.00  0.00    -0.283 OA
ATOM     16  O   LIG     1     173.991 177.698 168.735  0.00  0.00    -0.280 OA
ATOM     17  C   LIG     1     174.989 176.351 170.465  0.00  0.00     0.238 A 
ATOM     18  C   LIG     1     175.918 176.239 171.518  0.00  0.00     0.052 A 
ATOM     19  O   LIG     1     174.246 175.278 170.090  0.00  0.00    -0.283 OA
ENDBRANCH   9  11
ENDBRANCH   8   9
ENDBRANCH   2   8
BRANCH   3  20
ATOM     20  O   LIG     1     181.089 175.491 170.869  0.00  0.00    -0.442 OA
BRANCH  20  21
ATOM     21  C   LIG     1     180.722 174.191 171.083  0.00  0.00     0.341 C 
ATOM     22  O   LIG     1     181.666 173.420 171.367  0.00  0.00    -0.245 OA
BRANCH  21  23
ATOM     23  C   LIG     1     179.375 173.724 171.091  0.00  0.00     0.082 A 
ATOM     24  C   LIG     1     178.749 173.343 172.304  0.00  0.00     0.052 A 
ATOM     25  C   LIG     1     177.430 172.845 172.323  0.00  0.00     0.238 A 
ATOM     26  O   LIG     1     176.873 172.460 173.500  0.00  0.00    -0.283 OA
ATOM     27  C   LIG     1     176.701 172.738 171.120  0.00  0.00     0.273 A 
ATOM     28  O   LIG     1     175.425 172.268 171.100  0.00  0.00    -0.280 OA
ATOM     29  C   LIG     1     177.302 173.124 169.906  0.00  0.00     0.238 A 
ATOM     30  O   LIG     1     176.608 173.004 168.746  0.00  0.00    -0.283 OA
ATOM     31  C   LIG     1     178.619 173.627 169.899  0.00  0.00     0.052 A 
ENDBRANCH  21  23
ENDBRANCH  20  21
ENDBRANCH   3  20
BRANCH   7  32
ATOM     32  C   LIG     1     181.180 180.144 172.595  0.00  0.00     0.214 C 
ATOM     33  O   LIG     1     182.111 181.141 173.006  0.00  0.00    -0.218 OA
ENDBRANCH   7  32
BRANCH   4  34
ATOM     34  C   LIG     1     179.718 178.855 169.644  0.00  0.00     0.189 C 
ATOM     35  O   LIG     1     179.024 178.400 168.486  0.00  0.00    -0.220 OA
ENDBRANCH   4  34
TORSDOF 8
ENDMDL
