MODEL 1
REMARK VINA RESULT:      -8.2      0.000      0.000
REMARK  Name = 5320623
REMARK  11 active torsions:
REMARK  status: ('A' for Active; 'I' for Inactive)
REMARK    1  A    between atoms: O_2  and  C_16
REMARK    2  A    between atoms: O_2  and  C_18
REMARK    3  A    between atoms: O_3  and  C_12
REMARK    4  A    between atoms: O_4  and  C_13
REMARK    5  A    between atoms: O_5  and  C_14
REMARK    6  A    between atoms: O_6  and  C_17
REMARK    7  A    between atoms: O_8  and  C_20
REMARK    8  A    between atoms: O_9  and  C_23
REMARK    9  A    between atoms: O_11  and  C_32
REMARK   10  A    between atoms: C_15  and  C_17
REMARK   11  A    between atoms: C_25  and  C_27
REMARK                            x       y       z     vdW  Elec       q    Type
REMARK                         _______ _______ _______ _____ _____    ______ ____
ROOT
ATOM      7  O   UNL     1     189.203 182.424 168.694  0.00  0.00    +0.000 OA
ATOM     10  O   UNL     1     190.170 185.385 166.068  0.00  0.00    +0.000 OA
ATOM     18  C   UNL     1     187.305 185.150 170.194  0.00  0.00    +0.000 A 
ATOM     19  C   UNL     1     187.854 183.888 169.964  0.00  0.00    +0.000 A 
ATOM     20  C   UNL     1     187.595 186.208 169.330  0.00  0.00    +0.000 A 
ATOM     21  C   UNL     1     188.694 183.686 168.869  0.00  0.00    +0.000 A 
ATOM     22  C   UNL     1     188.983 184.744 168.007  0.00  0.00    +0.000 A 
ATOM     23  C   UNL     1     188.436 186.009 168.234  0.00  0.00    +0.000 A 
ATOM     24  C   UNL     1     189.872 184.503 166.861  0.00  0.00    +0.000 A 
ATOM     25  C   UNL     1     190.035 182.192 167.609  0.00  0.00    +0.000 A 
ATOM     26  C   UNL     1     190.391 183.128 166.716  0.00  0.00    +0.000 A 
ENDROOT
BRANCH  25  27
ATOM     27  C   UNL     1     190.531 180.804 167.520  0.00  0.00    +0.000 A 
ATOM     28  C   UNL     1     191.583 180.488 166.658  0.00  0.00    +0.000 A 
ATOM     29  C   UNL     1     189.947 179.799 168.297  0.00  0.00    +0.000 A 
ATOM     30  C   UNL     1     192.051 179.177 166.574  0.00  0.00    +0.000 A 
ATOM     31  C   UNL     1     190.415 178.488 168.213  0.00  0.00    +0.000 A 
ATOM     32  C   UNL     1     191.466 178.176 167.350  0.00  0.00    +0.000 A 
BRANCH  32  11
ATOM     11  O   UNL     1     191.923 176.896 167.268  0.00  0.00    +0.000 OA
ATOM     39  H   UNL     1     192.490 176.814 166.483  0.00  0.00    +0.000 HD
ENDBRANCH  32  11
ENDBRANCH  25  27
BRANCH  20   8
ATOM      8  O   UNL     1     187.055 187.439 169.563  0.00  0.00    +0.000 OA
ATOM     37  H   UNL     1     186.584 187.724 168.761  0.00  0.00    +0.000 HD
ENDBRANCH  20   8
BRANCH  23   9
ATOM      9  O   UNL     1     188.694 187.066 167.414  0.00  0.00    +0.000 OA
ATOM     38  H   UNL     1     188.163 187.010 166.604  0.00  0.00    +0.000 HD
ENDBRANCH  23   9
BRANCH  18   2
ATOM      2  O   UNL     1     186.484 185.337 171.268  0.00  0.00    +0.000 OA
BRANCH   2  16
ATOM      1  O   UNL     1     185.121 183.913 172.518  0.00  0.00    +0.000 OA
ATOM     12  C   UNL     1     187.030 183.833 174.664  0.00  0.00    +0.000 C 
ATOM     13  C   UNL     1     185.597 183.323 174.821  0.00  0.00    +0.000 C 
ATOM     14  C   UNL     1     187.138 184.833 173.511  0.00  0.00    +0.000 C 
ATOM     15  C   UNL     1     185.036 182.856 173.475  0.00  0.00    +0.000 C 
ATOM     16  C   UNL     1     186.467 184.298 172.246  0.00  0.00    +0.000 C 
BRANCH  12   3
ATOM      3  O   UNL     1     187.407 184.471 175.885  0.00  0.00    +0.000 OA
ATOM     33  H   UNL     1     187.767 183.785 176.472  0.00  0.00    +0.000 HD
ENDBRANCH  12   3
BRANCH  13   4
ATOM      4  O   UNL     1     185.582 182.234 175.740  0.00  0.00    +0.000 OA
ATOM     34  H   UNL     1     186.436 181.773 175.674  0.00  0.00    +0.000 HD
ENDBRANCH  13   4
BRANCH  14   5
ATOM      5  O   UNL     1     188.514 185.072 173.221  0.00  0.00    +0.000 OA
ATOM     35  H   UNL     1     189.023 184.948 174.040  0.00  0.00    +0.000 HD
ENDBRANCH  14   5
BRANCH  15  17
ATOM     17  C   UNL     1     183.569 182.452 173.583  0.00  0.00    +0.000 C 
BRANCH  17   6
ATOM      6  O   UNL     1     183.502 181.089 173.958  0.00  0.00    +0.000 OA
ATOM     36  H   UNL     1     183.989 180.576 173.290  0.00  0.00    +0.000 HD
ENDBRANCH  17   6
ENDBRANCH  15  17
ENDBRANCH   2  16
ENDBRANCH  18   2
TORSDOF 11
ENDMDL
MODEL 2
REMARK VINA RESULT:      -8.1      5.452     10.562
REMARK  Name = 5320623
REMARK  11 active torsions:
REMARK  status: ('A' for Active; 'I' for Inactive)
REMARK    1  A    between atoms: O_2  and  C_16
REMARK    2  A    between atoms: O_2  and  C_18
REMARK    3  A    between atoms: O_3  and  C_12
REMARK    4  A    between atoms: O_4  and  C_13
REMARK    5  A    between atoms: O_5  and  C_14
REMARK    6  A    between atoms: O_6  and  C_17
REMARK    7  A    between atoms: O_8  and  C_20
REMARK    8  A    between atoms: O_9  and  C_23
REMARK    9  A    between atoms: O_11  and  C_32
REMARK   10  A    between atoms: C_15  and  C_17
REMARK   11  A    between atoms: C_25  and  C_27
REMARK                            x       y       z     vdW  Elec       q    Type
REMARK                         _______ _______ _______ _____ _____    ______ ____
ROOT
ATOM      7  O   UNL     1     180.361 186.426 171.989  0.00  0.00    +0.000 OA
ATOM     10  O   UNL     1     178.786 183.697 169.405  0.00  0.00    +0.000 OA
ATOM     18  C   UNL     1     182.760 183.728 172.486  0.00  0.00    +0.000 A 
ATOM     19  C   UNL     1     182.105 184.954 172.597  0.00  0.00    +0.000 A 
ATOM     20  C   UNL     1     182.272 182.750 171.618  0.00  0.00    +0.000 A 
ATOM     21  C   UNL     1     180.962 185.202 171.837  0.00  0.00    +0.000 A 
ATOM     22  C   UNL     1     180.476 184.223 170.970  0.00  0.00    +0.000 A 
ATOM     23  C   UNL     1     181.129 182.994 170.857  0.00  0.00    +0.000 A 
ATOM     24  C   UNL     1     179.268 184.510 170.182  0.00  0.00    +0.000 A 
ATOM     25  C   UNL     1     179.227 186.702 171.240  0.00  0.00    +0.000 A 
ATOM     26  C   UNL     1     178.662 185.842 170.379  0.00  0.00    +0.000 A 
ENDROOT
BRANCH  25  27
ATOM     27  C   UNL     1     178.660 188.044 171.485  0.00  0.00    +0.000 A 
ATOM     28  C   UNL     1     178.348 188.448 172.785  0.00  0.00    +0.000 A 
ATOM     29  C   UNL     1     178.429 188.913 170.416  0.00  0.00    +0.000 A 
ATOM     30  C   UNL     1     177.811 189.714 173.015  0.00  0.00    +0.000 A 
ATOM     31  C   UNL     1     177.892 190.180 170.646  0.00  0.00    +0.000 A 
ATOM     32  C   UNL     1     177.583 190.580 171.946  0.00  0.00    +0.000 A 
BRANCH  32  11
ATOM     11  O   UNL     1     177.059 191.816 172.171  0.00  0.00    +0.000 OA
ATOM     39  H   UNL     1     176.438 192.031 171.454  0.00  0.00    +0.000 HD
ENDBRANCH  32  11
ENDBRANCH  25  27
BRANCH  20   8
ATOM      8  O   UNL     1     182.919 181.552 171.517  0.00  0.00    +0.000 OA
ATOM     37  H   UNL     1     182.981 181.316 170.574  0.00  0.00    +0.000 HD
ENDBRANCH  20   8
BRANCH  23   9
ATOM      9  O   UNL     1     180.685 182.014 170.020  0.00  0.00    +0.000 OA
ATOM     38  H   UNL     1     180.648 181.160 170.478  0.00  0.00    +0.000 HD
ENDBRANCH  23   9
BRANCH  18   2
ATOM      2  O   UNL     1     183.878 183.496 173.234  0.00  0.00    +0.000 OA
BRANCH   2  16
ATOM      1  O   UNL     1     185.487 184.977 172.417  0.00  0.00    +0.000 OA
ATOM     12  C   UNL     1     186.571 185.381 175.047  0.00  0.00    +0.000 C 
ATOM     13  C   UNL     1     187.299 185.834 173.781  0.00  0.00    +0.000 C 
ATOM     14  C   UNL     1     185.566 184.270 174.740  0.00  0.00    +0.000 C 
ATOM     15  C   UNL     1     186.303 186.125 172.656  0.00  0.00    +0.000 C 
ATOM     16  C   UNL     1     184.684 184.632 173.544  0.00  0.00    +0.000 C 
BRANCH  12   3
ATOM      3  O   UNL     1     187.548 184.897 175.969  0.00  0.00    +0.000 OA
ATOM     33  H   UNL     1     187.276 184.003 176.239  0.00  0.00    +0.000 HD
ENDBRANCH  12   3
BRANCH  13   4
ATOM      4  O   UNL     1     188.048 187.012 174.063  0.00  0.00    +0.000 OA
ATOM     34  H   UNL     1     188.992 186.793 173.989  0.00  0.00    +0.000 HD
ENDBRANCH  13   4
BRANCH  14   5
ATOM      5  O   UNL     1     184.722 184.069 175.873  0.00  0.00    +0.000 OA
ATOM     35  H   UNL     1     184.629 184.919 176.335  0.00  0.00    +0.000 HD
ENDBRANCH  14   5
BRANCH  15  17
ATOM     17  C   UNL     1     187.010 186.465 171.348  0.00  0.00    +0.000 C 
BRANCH  17   6
ATOM      6  O   UNL     1     187.443 187.811 171.405  0.00  0.00    +0.000 OA
ATOM     36  H   UNL     1     186.814 188.345 170.890  0.00  0.00    +0.000 HD
ENDBRANCH  17   6
ENDBRANCH  15  17
ENDBRANCH   2  16
ENDBRANCH  18   2
TORSDOF 11
ENDMDL
MODEL 3
REMARK VINA RESULT:      -8.1      3.548      4.646
REMARK  Name = 5320623
REMARK  11 active torsions:
REMARK  status: ('A' for Active; 'I' for Inactive)
REMARK    1  A    between atoms: O_2  and  C_16
REMARK    2  A    between atoms: O_2  and  C_18
REMARK    3  A    between atoms: O_3  and  C_12
REMARK    4  A    between atoms: O_4  and  C_13
REMARK    5  A    between atoms: O_5  and  C_14
REMARK    6  A    between atoms: O_6  and  C_17
REMARK    7  A    between atoms: O_8  and  C_20
REMARK    8  A    between atoms: O_9  and  C_23
REMARK    9  A    between atoms: O_11  and  C_32
REMARK   10  A    between atoms: C_15  and  C_17
REMARK   11  A    between atoms: C_25  and  C_27
REMARK                            x       y       z     vdW  Elec       q    Type
REMARK                         _______ _______ _______ _____ _____    ______ ____
ROOT
ATOM      7  O   UNL     1     185.923 184.364 166.809  0.00  0.00    +0.000 OA
ATOM     10  O   UNL     1     189.855 184.911 165.892  0.00  0.00    +0.000 OA
ATOM     18  C   UNL     1     187.116 185.467 170.071  0.00  0.00    +0.000 A 
ATOM     19  C   UNL     1     186.276 185.027 169.048  0.00  0.00    +0.000 A 
ATOM     20  C   UNL     1     188.473 185.676 169.823  0.00  0.00    +0.000 A 
ATOM     21  C   UNL     1     186.797 184.796 167.775  0.00  0.00    +0.000 A 
ATOM     22  C   UNL     1     188.154 185.005 167.528  0.00  0.00    +0.000 A 
ATOM     23  C   UNL     1     188.997 185.444 168.550  0.00  0.00    +0.000 A 
ATOM     24  C   UNL     1     188.676 184.752 166.177  0.00  0.00    +0.000 A 
ATOM     25  C   UNL     1     186.411 184.134 165.532  0.00  0.00    +0.000 A 
ATOM     26  C   UNL     1     187.695 184.292 165.174  0.00  0.00    +0.000 A 
ENDROOT
BRANCH  25  27
ATOM     27  C   UNL     1     185.389 183.667 164.574  0.00  0.00    +0.000 A 
ATOM     28  C   UNL     1     184.233 183.032 165.035  0.00  0.00    +0.000 A 
ATOM     29  C   UNL     1     185.574 183.857 163.202  0.00  0.00    +0.000 A 
ATOM     30  C   UNL     1     183.268 182.591 164.130  0.00  0.00    +0.000 A 
ATOM     31  C   UNL     1     184.609 183.416 162.297  0.00  0.00    +0.000 A 
ATOM     32  C   UNL     1     183.456 182.782 162.761  0.00  0.00    +0.000 A 
BRANCH  32  11
ATOM     11  O   UNL     1     182.514 182.351 161.877  0.00  0.00    +0.000 OA
ATOM     39  H   UNL     1     181.675 182.222 162.351  0.00  0.00    +0.000 HD
ENDBRANCH  32  11
ENDBRANCH  25  27
BRANCH  20   8
ATOM      8  O   UNL     1     189.288 186.105 170.830  0.00  0.00    +0.000 OA
ATOM     37  H   UNL     1     188.798 186.756 171.364  0.00  0.00    +0.000 HD
ENDBRANCH  20   8
BRANCH  23   9
ATOM      9  O   UNL     1     190.327 185.661 168.347  0.00  0.00    +0.000 OA
ATOM     38  H   UNL     1     190.535 185.664 167.400  0.00  0.00    +0.000 HD
ENDBRANCH  23   9
BRANCH  18   2
ATOM      2  O   UNL     1     186.596 185.691 171.313  0.00  0.00    +0.000 OA
BRANCH   2  16
ATOM      1  O   UNL     1     185.270 184.108 172.401  0.00  0.00    +0.000 OA
ATOM     12  C   UNL     1     187.092 183.982 174.618  0.00  0.00    +0.000 C 
ATOM     13  C   UNL     1     185.687 183.383 174.676  0.00  0.00    +0.000 C 
ATOM     14  C   UNL     1     187.188 185.066 173.543  0.00  0.00    +0.000 C 
ATOM     15  C   UNL     1     185.209 182.982 173.279  0.00  0.00    +0.000 C 
ATOM     16  C   UNL     1     186.601 184.585 172.216  0.00  0.00    +0.000 C 
BRANCH  12   3
ATOM      3  O   UNL     1     187.383 184.552 175.896  0.00  0.00    +0.000 OA
ATOM     33  H   UNL     1     188.036 185.259 175.757  0.00  0.00    +0.000 HD
ENDBRANCH  12   3
BRANCH  13   4
ATOM      4  O   UNL     1     185.700 182.232 175.517  0.00  0.00    +0.000 OA
ATOM     34  H   UNL     1     185.771 182.535 176.439  0.00  0.00    +0.000 HD
ENDBRANCH  13   4
BRANCH  14   5
ATOM      5  O   UNL     1     188.558 185.402 173.331  0.00  0.00    +0.000 OA
ATOM     35  H   UNL     1     188.618 185.928 172.516  0.00  0.00    +0.000 HD
ENDBRANCH  14   5
BRANCH  15  17
ATOM     17  C   UNL     1     183.765 182.491 173.294  0.00  0.00    +0.000 C 
BRANCH  17   6
ATOM      6  O   UNL     1     183.757 181.125 173.665  0.00  0.00    +0.000 OA
ATOM     36  H   UNL     1     183.146 180.661 173.067  0.00  0.00    +0.000 HD
ENDBRANCH  17   6
ENDBRANCH  15  17
ENDBRANCH   2  16
ENDBRANCH  18   2
TORSDOF 11
ENDMDL
MODEL 4
REMARK VINA RESULT:      -8.0      4.273      8.154
REMARK  Name = 5320623
REMARK  11 active torsions:
REMARK  status: ('A' for Active; 'I' for Inactive)
REMARK    1  A    between atoms: O_2  and  C_16
REMARK    2  A    between atoms: O_2  and  C_18
REMARK    3  A    between atoms: O_3  and  C_12
REMARK    4  A    between atoms: O_4  and  C_13
REMARK    5  A    between atoms: O_5  and  C_14
REMARK    6  A    between atoms: O_6  and  C_17
REMARK    7  A    between atoms: O_8  and  C_20
REMARK    8  A    between atoms: O_9  and  C_23
REMARK    9  A    between atoms: O_11  and  C_32
REMARK   10  A    between atoms: C_15  and  C_17
REMARK   11  A    between atoms: C_25  and  C_27
REMARK                            x       y       z     vdW  Elec       q    Type
REMARK                         _______ _______ _______ _____ _____    ______ ____
ROOT
ATOM      7  O   UNL     1     182.778 179.221 172.375  0.00  0.00    +0.000 OA
ATOM     10  O   UNL     1     179.049 180.862 172.344  0.00  0.00    +0.000 OA
ATOM     18  C   UNL     1     183.617 182.552 173.589  0.00  0.00    +0.000 A 
ATOM     19  C   UNL     1     183.735 181.226 173.174  0.00  0.00    +0.000 A 
ATOM     20  C   UNL     1     182.368 183.173 173.604  0.00  0.00    +0.000 A 
ATOM     21  C   UNL     1     182.600 180.521 172.772  0.00  0.00    +0.000 A 
ATOM     22  C   UNL     1     181.352 181.144 172.788  0.00  0.00    +0.000 A 
ATOM     23  C   UNL     1     181.230 182.472 173.203  0.00  0.00    +0.000 A 
ATOM     24  C   UNL     1     180.173 180.378 172.359  0.00  0.00    +0.000 A 
ATOM     25  C   UNL     1     181.666 178.493 171.978  0.00  0.00    +0.000 A 
ATOM     26  C   UNL     1     180.416 178.982 171.943  0.00  0.00    +0.000 A 
ENDROOT
BRANCH  25  27
ATOM     27  C   UNL     1     181.971 177.109 171.565  0.00  0.00    +0.000 A 
ATOM     28  C   UNL     1     182.991 176.860 170.643  0.00  0.00    +0.000 A 
ATOM     29  C   UNL     1     181.239 176.042 172.092  0.00  0.00    +0.000 A 
ATOM     30  C   UNL     1     183.278 175.552 170.253  0.00  0.00    +0.000 A 
ATOM     31  C   UNL     1     181.526 174.734 171.701  0.00  0.00    +0.000 A 
ATOM     32  C   UNL     1     182.545 174.489 170.781  0.00  0.00    +0.000 A 
BRANCH  32  11
ATOM     11  O   UNL     1     182.826 173.213 170.400  0.00  0.00    +0.000 OA
ATOM     39  H   UNL     1     183.767 173.034 170.567  0.00  0.00    +0.000 HD
ENDBRANCH  32  11
ENDBRANCH  25  27
BRANCH  20   8
ATOM      8  O   UNL     1     182.262 184.472 174.011  0.00  0.00    +0.000 OA
ATOM     37  H   UNL     1     182.949 184.640 174.679  0.00  0.00    +0.000 HD
ENDBRANCH  20   8
BRANCH  23   9
ATOM      9  O   UNL     1     180.028 183.112 173.232  0.00  0.00    +0.000 OA
ATOM     38  H   UNL     1     179.335 182.528 173.578  0.00  0.00    +0.000 HD
ENDBRANCH  23   9
BRANCH  18   2
ATOM      2  O   UNL     1     184.735 183.232 173.980  0.00  0.00    +0.000 OA
BRANCH   2  16
ATOM      1  O   UNL     1     186.074 183.886 172.184  0.00  0.00    +0.000 OA
ATOM     12  C   UNL     1     186.352 186.540 173.250  0.00  0.00    +0.000 C 
ATOM     13  C   UNL     1     187.230 186.017 172.113  0.00  0.00    +0.000 C 
ATOM     14  C   UNL     1     185.759 185.390 174.066  0.00  0.00    +0.000 C 
ATOM     15  C   UNL     1     186.497 184.936 171.313  0.00  0.00    +0.000 C 
ATOM     16  C   UNL     1     185.133 184.330 173.160  0.00  0.00    +0.000 C 
BRANCH  12   3
ATOM      3  O   UNL     1     187.164 187.355 174.096  0.00  0.00    +0.000 OA
ATOM     33  H   UNL     1     186.766 187.341 174.983  0.00  0.00    +0.000 HD
ENDBRANCH  12   3
BRANCH  13   4
ATOM      4  O   UNL     1     187.571 187.095 171.246  0.00  0.00    +0.000 OA
ATOM     34  H   UNL     1     188.147 187.705 171.738  0.00  0.00    +0.000 HD
ENDBRANCH  13   4
BRANCH  14   5
ATOM      5  O   UNL     1     184.743 185.898 174.929  0.00  0.00    +0.000 OA
ATOM     35  H   UNL     1     184.782 185.405 175.766  0.00  0.00    +0.000 HD
ENDBRANCH  14   5
BRANCH  15  17
ATOM     17  C   UNL     1     187.394 184.316 170.247  0.00  0.00    +0.000 C 
BRANCH  17   6
ATOM      6  O   UNL     1     188.736 184.668 170.524  0.00  0.00    +0.000 OA
ATOM     36  H   UNL     1     188.971 184.278 171.383  0.00  0.00    +0.000 HD
ENDBRANCH  17   6
ENDBRANCH  15  17
ENDBRANCH   2  16
ENDBRANCH  18   2
TORSDOF 11
ENDMDL
MODEL 5
REMARK VINA RESULT:      -7.9      5.617      9.121
REMARK  Name = 5320623
REMARK  11 active torsions:
REMARK  status: ('A' for Active; 'I' for Inactive)
REMARK    1  A    between atoms: O_2  and  C_16
REMARK    2  A    between atoms: O_2  and  C_18
REMARK    3  A    between atoms: O_3  and  C_12
REMARK    4  A    between atoms: O_4  and  C_13
REMARK    5  A    between atoms: O_5  and  C_14
REMARK    6  A    between atoms: O_6  and  C_17
REMARK    7  A    between atoms: O_8  and  C_20
REMARK    8  A    between atoms: O_9  and  C_23
REMARK    9  A    between atoms: O_11  and  C_32
REMARK   10  A    between atoms: C_15  and  C_17
REMARK   11  A    between atoms: C_25  and  C_27
REMARK                            x       y       z     vdW  Elec       q    Type
REMARK                         _______ _______ _______ _____ _____    ______ ____
ROOT
ATOM      7  O   UNL     1     181.745 187.792 169.470  0.00  0.00    +0.000 OA
ATOM     10  O   UNL     1     183.502 191.376 168.654  0.00  0.00    +0.000 OA
ATOM     18  C   UNL     1     185.068 187.108 170.804  0.00  0.00    +0.000 A 
ATOM     19  C   UNL     1     183.732 186.952 170.433  0.00  0.00    +0.000 A 
ATOM     20  C   UNL     1     185.728 188.312 170.554  0.00  0.00    +0.000 A 
ATOM     21  C   UNL     1     183.057 188.003 169.811  0.00  0.00    +0.000 A 
ATOM     22  C   UNL     1     183.719 189.206 169.563  0.00  0.00    +0.000 A 
ATOM     23  C   UNL     1     185.056 189.365 169.932  0.00  0.00    +0.000 A 
ATOM     24  C   UNL     1     182.984 190.296 168.905  0.00  0.00    +0.000 A 
ATOM     25  C   UNL     1     181.047 188.821 168.858  0.00  0.00    +0.000 A 
ATOM     26  C   UNL     1     181.575 190.019 168.560  0.00  0.00    +0.000 A 
ENDROOT
BRANCH  25  27
ATOM     27  C   UNL     1     179.648 188.484 168.529  0.00  0.00    +0.000 A 
ATOM     28  C   UNL     1     178.629 189.410 168.765  0.00  0.00    +0.000 A 
ATOM     29  C   UNL     1     179.337 187.237 167.982  0.00  0.00    +0.000 A 
ATOM     30  C   UNL     1     177.307 189.091 168.454  0.00  0.00    +0.000 A 
ATOM     31  C   UNL     1     178.015 186.918 167.671  0.00  0.00    +0.000 A 
ATOM     32  C   UNL     1     177.000 187.845 167.908  0.00  0.00    +0.000 A 
BRANCH  32  11
ATOM     11  O   UNL     1     175.710 187.533 167.604  0.00  0.00    +0.000 OA
ATOM     39  H   UNL     1     175.323 188.262 167.090  0.00  0.00    +0.000 HD
ENDBRANCH  32  11
ENDBRANCH  25  27
BRANCH  20   8
ATOM      8  O   UNL     1     187.035 188.456 170.919  0.00  0.00    +0.000 OA
ATOM     37  H   UNL     1     187.254 189.404 170.907  0.00  0.00    +0.000 HD
ENDBRANCH  20   8
BRANCH  23   9
ATOM      9  O   UNL     1     185.735 190.525 169.706  0.00  0.00    +0.000 OA
ATOM     38  H   UNL     1     185.889 191.001 170.537  0.00  0.00    +0.000 HD
ENDBRANCH  23   9
BRANCH  18   2
ATOM      2  O   UNL     1     185.718 186.074 171.412  0.00  0.00    +0.000 OA
BRANCH   2  16
ATOM      1  O   UNL     1     185.352 186.101 173.717  0.00  0.00    +0.000 OA
ATOM     12  C   UNL     1     184.920 183.261 173.765  0.00  0.00    +0.000 C 
ATOM     13  C   UNL     1     185.138 184.079 175.038  0.00  0.00    +0.000 C 
ATOM     14  C   UNL     1     185.488 183.979 172.541  0.00  0.00    +0.000 C 
ATOM     15  C   UNL     1     184.681 185.526 174.839  0.00  0.00    +0.000 C 
ATOM     16  C   UNL     1     185.037 185.439 172.493  0.00  0.00    +0.000 C 
BRANCH  12   3
ATOM      3  O   UNL     1     185.580 182.005 173.929  0.00  0.00    +0.000 OA
ATOM     33  H   UNL     1     184.927 181.307 173.750  0.00  0.00    +0.000 HD
ENDBRANCH  12   3
BRANCH  13   4
ATOM      4  O   UNL     1     184.400 183.495 176.107  0.00  0.00    +0.000 OA
ATOM     34  H   UNL     1     184.901 183.634 176.930  0.00  0.00    +0.000 HD
ENDBRANCH  13   4
BRANCH  14   5
ATOM      5  O   UNL     1     185.029 183.330 171.356  0.00  0.00    +0.000 OA
ATOM     35  H   UNL     1     184.467 182.582 171.619  0.00  0.00    +0.000 HD
ENDBRANCH  14   5
BRANCH  15  17
ATOM     17  C   UNL     1     184.996 186.392 176.055  0.00  0.00    +0.000 C 
BRANCH  17   6
ATOM      6  O   UNL     1     186.188 185.917 176.651  0.00  0.00    +0.000 OA
ATOM     36  H   UNL     1     186.912 186.503 176.369  0.00  0.00    +0.000 HD
ENDBRANCH  17   6
ENDBRANCH  15  17
ENDBRANCH   2  16
ENDBRANCH  18   2
TORSDOF 11
ENDMDL
MODEL 6
REMARK VINA RESULT:      -7.8      1.907      2.472
REMARK  Name = 5320623
REMARK  11 active torsions:
REMARK  status: ('A' for Active; 'I' for Inactive)
REMARK    1  A    between atoms: O_2  and  C_16
REMARK    2  A    between atoms: O_2  and  C_18
REMARK    3  A    between atoms: O_3  and  C_12
REMARK    4  A    between atoms: O_4  and  C_13
REMARK    5  A    between atoms: O_5  and  C_14
REMARK    6  A    between atoms: O_6  and  C_17
REMARK    7  A    between atoms: O_8  and  C_20
REMARK    8  A    between atoms: O_9  and  C_23
REMARK    9  A    between atoms: O_11  and  C_32
REMARK   10  A    between atoms: C_15  and  C_17
REMARK   11  A    between atoms: C_25  and  C_27
REMARK                            x       y       z     vdW  Elec       q    Type
REMARK                         _______ _______ _______ _____ _____    ______ ____
ROOT
ATOM      7  O   UNL     1     187.807 184.439 169.011  0.00  0.00    +0.000 OA
ATOM     10  O   UNL     1     188.300 187.598 166.486  0.00  0.00    +0.000 OA
ATOM     18  C   UNL     1     186.060 186.986 170.946  0.00  0.00    +0.000 A 
ATOM     19  C   UNL     1     186.608 185.764 170.555  0.00  0.00    +0.000 A 
ATOM     20  C   UNL     1     186.192 188.107 170.125  0.00  0.00    +0.000 A 
ATOM     21  C   UNL     1     187.290 185.666 169.342  0.00  0.00    +0.000 A 
ATOM     22  C   UNL     1     187.421 186.787 168.523  0.00  0.00    +0.000 A 
ATOM     23  C   UNL     1     186.874 188.012 168.912  0.00  0.00    +0.000 A 
ATOM     24  C   UNL     1     188.145 186.656 167.250  0.00  0.00    +0.000 A 
ATOM     25  C   UNL     1     188.482 184.310 167.807  0.00  0.00    +0.000 A 
ATOM     26  C   UNL     1     188.680 185.315 166.939  0.00  0.00    +0.000 A 
ENDROOT
BRANCH  25  27
ATOM     27  C   UNL     1     189.002 182.951 167.554  0.00  0.00    +0.000 A 
ATOM     28  C   UNL     1     188.876 182.375 166.287  0.00  0.00    +0.000 A 
ATOM     29  C   UNL     1     189.621 182.234 168.581  0.00  0.00    +0.000 A 
ATOM     30  C   UNL     1     189.367 181.092 166.049  0.00  0.00    +0.000 A 
ATOM     31  C   UNL     1     190.112 180.950 168.343  0.00  0.00    +0.000 A 
ATOM     32  C   UNL     1     189.984 180.379 167.077  0.00  0.00    +0.000 A 
BRANCH  32  11
ATOM     11  O   UNL     1     190.463 179.126 166.844  0.00  0.00    +0.000 OA
ATOM     39  H   UNL     1     190.912 178.806 167.645  0.00  0.00    +0.000 HD
ENDBRANCH  32  11
ENDBRANCH  25  27
BRANCH  20   8
ATOM      8  O   UNL     1     185.654 189.299 170.516  0.00  0.00    +0.000 OA
ATOM     37  H   UNL     1     185.821 189.955 169.817  0.00  0.00    +0.000 HD
ENDBRANCH  20   8
BRANCH  23   9
ATOM      9  O   UNL     1     186.981 189.129 168.138  0.00  0.00    +0.000 OA
ATOM     38  H   UNL     1     187.895 189.453 168.126  0.00  0.00    +0.000 HD
ENDBRANCH  23   9
BRANCH  18   2
ATOM      2  O   UNL     1     185.395 187.070 172.135  0.00  0.00    +0.000 OA
BRANCH   2  16
ATOM      1  O   UNL     1     184.230 185.231 172.976  0.00  0.00    +0.000 OA
ATOM     12  C   UNL     1     185.745 185.284 175.417  0.00  0.00    +0.000 C 
ATOM     13  C   UNL     1     184.468 184.458 175.262  0.00  0.00    +0.000 C 
ATOM     14  C   UNL     1     185.792 186.427 174.403  0.00  0.00    +0.000 C 
ATOM     15  C   UNL     1     184.249 184.064 173.799  0.00  0.00    +0.000 C 
ATOM     16  C   UNL     1     185.472 185.932 172.992  0.00  0.00    +0.000 C 
BRANCH  12   3
ATOM      3  O   UNL     1     185.766 185.820 176.741  0.00  0.00    +0.000 OA
ATOM     33  H   UNL     1     186.177 185.154 177.318  0.00  0.00    +0.000 HD
ENDBRANCH  12   3
BRANCH  13   4
ATOM      4  O   UNL     1     184.568 183.280 176.057  0.00  0.00    +0.000 OA
ATOM     34  H   UNL     1     184.138 182.553 175.573  0.00  0.00    +0.000 HD
ENDBRANCH  13   4
BRANCH  14   5
ATOM      5  O   UNL     1     187.100 186.996 174.391  0.00  0.00    +0.000 OA
ATOM     35  H   UNL     1     187.696 186.376 173.939  0.00  0.00    +0.000 HD
ENDBRANCH  14   5
BRANCH  15  17
ATOM     17  C   UNL     1     182.922 183.340 173.600  0.00  0.00    +0.000 C 
BRANCH  17   6
ATOM      6  O   UNL     1     182.042 183.715 174.643  0.00  0.00    +0.000 OA
ATOM     36  H   UNL     1     182.575 184.128 175.344  0.00  0.00    +0.000 HD
ENDBRANCH  17   6
ENDBRANCH  15  17
ENDBRANCH   2  16
ENDBRANCH  18   2
TORSDOF 11
ENDMDL
MODEL 7
REMARK VINA RESULT:      -7.8      5.305      8.217
REMARK  Name = 5320623
REMARK  11 active torsions:
REMARK  status: ('A' for Active; 'I' for Inactive)
REMARK    1  A    between atoms: O_2  and  C_16
REMARK    2  A    between atoms: O_2  and  C_18
REMARK    3  A    between atoms: O_3  and  C_12
REMARK    4  A    between atoms: O_4  and  C_13
REMARK    5  A    between atoms: O_5  and  C_14
REMARK    6  A    between atoms: O_6  and  C_17
REMARK    7  A    between atoms: O_8  and  C_20
REMARK    8  A    between atoms: O_9  and  C_23
REMARK    9  A    between atoms: O_11  and  C_32
REMARK   10  A    between atoms: C_15  and  C_17
REMARK   11  A    between atoms: C_25  and  C_27
REMARK                            x       y       z     vdW  Elec       q    Type
REMARK                         _______ _______ _______ _____ _____    ______ ____
ROOT
ATOM      7  O   UNL     1     182.174 187.452 169.600  0.00  0.00    +0.000 OA
ATOM     10  O   UNL     1     184.699 189.234 166.945  0.00  0.00    +0.000 OA
ATOM     18  C   UNL     1     185.237 187.338 171.571  0.00  0.00    +0.000 A 
ATOM     19  C   UNL     1     183.906 187.183 171.182  0.00  0.00    +0.000 A 
ATOM     20  C   UNL     1     186.153 187.942 170.709  0.00  0.00    +0.000 A 
ATOM     21  C   UNL     1     183.494 187.632 169.927  0.00  0.00    +0.000 A 
ATOM     22  C   UNL     1     184.411 188.235 169.067  0.00  0.00    +0.000 A 
ATOM     23  C   UNL     1     185.744 188.393 169.453  0.00  0.00    +0.000 A 
ATOM     24  C   UNL     1     183.949 188.699 167.750  0.00  0.00    +0.000 A 
ATOM     25  C   UNL     1     181.734 187.896 168.362  0.00  0.00    +0.000 A 
ATOM     26  C   UNL     1     182.520 188.484 167.447  0.00  0.00    +0.000 A 
ENDROOT
BRANCH  25  27
ATOM     27  C   UNL     1     180.300 187.647 168.111  0.00  0.00    +0.000 A 
ATOM     28  C   UNL     1     179.768 187.835 166.833  0.00  0.00    +0.000 A 
ATOM     29  C   UNL     1     179.468 187.224 169.151  0.00  0.00    +0.000 A 
ATOM     30  C   UNL     1     178.414 187.599 166.596  0.00  0.00    +0.000 A 
ATOM     31  C   UNL     1     178.114 186.988 168.914  0.00  0.00    +0.000 A 
ATOM     32  C   UNL     1     177.587 187.177 167.637  0.00  0.00    +0.000 A 
BRANCH  32  11
ATOM     11  O   UNL     1     176.265 186.947 167.406  0.00  0.00    +0.000 OA
ATOM     39  H   UNL     1     176.170 186.487 166.555  0.00  0.00    +0.000 HD
ENDBRANCH  32  11
ENDBRANCH  25  27
BRANCH  20   8
ATOM      8  O   UNL     1     187.453 188.090 171.098  0.00  0.00    +0.000 OA
ATOM     37  H   UNL     1     188.013 187.566 170.499  0.00  0.00    +0.000 HD
ENDBRANCH  20   8
BRANCH  23   9
ATOM      9  O   UNL     1     186.667 188.978 168.641  0.00  0.00    +0.000 OA
ATOM     38  H   UNL     1     186.321 189.075 167.740  0.00  0.00    +0.000 HD
ENDBRANCH  23   9
BRANCH  18   2
ATOM      2  O   UNL     1     185.630 186.895 172.801  0.00  0.00    +0.000 OA
BRANCH   2  16
ATOM      1  O   UNL     1     184.693 185.058 173.894  0.00  0.00    +0.000 OA
ATOM     12  C   UNL     1     187.204 183.662 173.875  0.00  0.00    +0.000 C 
ATOM     13  C   UNL     1     186.020 183.208 174.728  0.00  0.00    +0.000 C 
ATOM     14  C   UNL     1     187.091 185.144 173.515  0.00  0.00    +0.000 C 
ATOM     15  C   UNL     1     184.695 183.644 174.096  0.00  0.00    +0.000 C 
ATOM     16  C   UNL     1     185.700 185.481 172.977  0.00  0.00    +0.000 C 
BRANCH  12   3
ATOM      3  O   UNL     1     188.399 183.444 174.627  0.00  0.00    +0.000 OA
ATOM     33  H   UNL     1     188.247 183.794 175.522  0.00  0.00    +0.000 HD
ENDBRANCH  12   3
BRANCH  13   4
ATOM      4  O   UNL     1     186.040 181.788 174.847  0.00  0.00    +0.000 OA
ATOM     34  H   UNL     1     186.760 181.548 175.456  0.00  0.00    +0.000 HD
ENDBRANCH  13   4
BRANCH  14   5
ATOM      5  O   UNL     1     188.050 185.460 172.506  0.00  0.00    +0.000 OA
ATOM     35  H   UNL     1     188.783 185.941 172.925  0.00  0.00    +0.000 HD
ENDBRANCH  14   5
BRANCH  15  17
ATOM     17  C   UNL     1     183.505 183.305 174.987  0.00  0.00    +0.000 C 
BRANCH  17   6
ATOM      6  O   UNL     1     183.989 182.862 176.241  0.00  0.00    +0.000 OA
ATOM     36  H   UNL     1     184.832 182.402 176.084  0.00  0.00    +0.000 HD
ENDBRANCH  17   6
ENDBRANCH  15  17
ENDBRANCH   2  16
ENDBRANCH  18   2
TORSDOF 11
ENDMDL
MODEL 8
REMARK VINA RESULT:      -7.8      4.815      8.313
REMARK  Name = 5320623
REMARK  11 active torsions:
REMARK  status: ('A' for Active; 'I' for Inactive)
REMARK    1  A    between atoms: O_2  and  C_16
REMARK    2  A    between atoms: O_2  and  C_18
REMARK    3  A    between atoms: O_3  and  C_12
REMARK    4  A    between atoms: O_4  and  C_13
REMARK    5  A    between atoms: O_5  and  C_14
REMARK    6  A    between atoms: O_6  and  C_17
REMARK    7  A    between atoms: O_8  and  C_20
REMARK    8  A    between atoms: O_9  and  C_23
REMARK    9  A    between atoms: O_11  and  C_32
REMARK   10  A    between atoms: C_15  and  C_17
REMARK   11  A    between atoms: C_25  and  C_27
REMARK                            x       y       z     vdW  Elec       q    Type
REMARK                         _______ _______ _______ _____ _____    ______ ____
ROOT
ATOM      7  O   UNL     1     181.371 182.912 169.785  0.00  0.00    +0.000 OA
ATOM     10  O   UNL     1     182.225 178.981 170.435  0.00  0.00    +0.000 OA
ATOM     18  C   UNL     1     182.702 183.175 173.167  0.00  0.00    +0.000 A 
ATOM     19  C   UNL     1     182.150 183.513 171.931  0.00  0.00    +0.000 A 
ATOM     20  C   UNL     1     183.019 181.847 173.453  0.00  0.00    +0.000 A 
ATOM     21  C   UNL     1     181.915 182.519 170.981  0.00  0.00    +0.000 A 
ATOM     22  C   UNL     1     182.233 181.192 171.269  0.00  0.00    +0.000 A 
ATOM     23  C   UNL     1     182.785 180.850 172.505  0.00  0.00    +0.000 A 
ATOM     24  C   UNL     1     181.974 180.164 170.250  0.00  0.00    +0.000 A 
ATOM     25  C   UNL     1     181.134 181.946 168.819  0.00  0.00    +0.000 A 
ATOM     26  C   UNL     1     181.390 180.638 168.979  0.00  0.00    +0.000 A 
ENDROOT
BRANCH  25  27
ATOM     27  C   UNL     1     180.541 182.476 167.574  0.00  0.00    +0.000 A 
ATOM     28  C   UNL     1     180.418 183.854 167.386  0.00  0.00    +0.000 A 
ATOM     29  C   UNL     1     180.100 181.600 166.579  0.00  0.00    +0.000 A 
ATOM     30  C   UNL     1     179.858 184.354 166.211  0.00  0.00    +0.000 A 
ATOM     31  C   UNL     1     179.540 182.099 165.404  0.00  0.00    +0.000 A 
ATOM     32  C   UNL     1     179.418 183.476 165.220  0.00  0.00    +0.000 A 
BRANCH  32  11
ATOM     11  O   UNL     1     178.871 183.964 164.072  0.00  0.00    +0.000 OA
ATOM     39  H   UNL     1     179.479 183.788 163.334  0.00  0.00    +0.000 HD
ENDBRANCH  32  11
ENDBRANCH  25  27
BRANCH  20   8
ATOM      8  O   UNL     1     183.559 181.525 174.665  0.00  0.00    +0.000 OA
ATOM     37  H   UNL     1     183.674 180.560 174.702  0.00  0.00    +0.000 HD
ENDBRANCH  20   8
BRANCH  23   9
ATOM      9  O   UNL     1     183.109 179.565 172.821  0.00  0.00    +0.000 OA
ATOM     38  H   UNL     1     182.311 179.025 172.928  0.00  0.00    +0.000 HD
ENDBRANCH  23   9
BRANCH  18   2
ATOM      2  O   UNL     1     182.928 184.156 174.089  0.00  0.00    +0.000 OA
BRANCH   2  16
ATOM      1  O   UNL     1     185.076 184.197 173.177  0.00  0.00    +0.000 OA
ATOM     12  C   UNL     1     185.988 186.028 175.195  0.00  0.00    +0.000 C 
ATOM     13  C   UNL     1     186.950 185.278 174.273  0.00  0.00    +0.000 C 
ATOM     14  C   UNL     1     184.642 185.310 175.292  0.00  0.00    +0.000 C 
ATOM     15  C   UNL     1     186.274 184.939 172.942  0.00  0.00    +0.000 C 
ATOM     16  C   UNL     1     184.105 184.943 173.908  0.00  0.00    +0.000 C 
BRANCH  12   3
ATOM      3  O   UNL     1     186.585 186.100 176.491  0.00  0.00    +0.000 OA
ATOM     33  H   UNL     1     185.884 186.338 177.121  0.00  0.00    +0.000 HD
ENDBRANCH  12   3
BRANCH  13   4
ATOM      4  O   UNL     1     188.096 186.088 174.026  0.00  0.00    +0.000 OA
ATOM     34  H   UNL     1     187.917 186.977 174.379  0.00  0.00    +0.000 HD
ENDBRANCH  13   4
BRANCH  14   5
ATOM      5  O   UNL     1     183.694 186.167 175.927  0.00  0.00    +0.000 OA
ATOM     35  H   UNL     1     184.099 187.044 176.028  0.00  0.00    +0.000 HD
ENDBRANCH  14   5
BRANCH  15  17
ATOM     17  C   UNL     1     187.173 184.089 172.051  0.00  0.00    +0.000 C 
BRANCH  17   6
ATOM      6  O   UNL     1     188.173 184.921 171.492  0.00  0.00    +0.000 OA
ATOM     36  H   UNL     1     188.120 184.836 170.525  0.00  0.00    +0.000 HD
ENDBRANCH  17   6
ENDBRANCH  15  17
ENDBRANCH   2  16
ENDBRANCH  18   2
TORSDOF 11
ENDMDL
MODEL 9
REMARK VINA RESULT:      -7.8      6.677     10.686
REMARK  Name = 5320623
REMARK  11 active torsions:
REMARK  status: ('A' for Active; 'I' for Inactive)
REMARK    1  A    between atoms: O_2  and  C_16
REMARK    2  A    between atoms: O_2  and  C_18
REMARK    3  A    between atoms: O_3  and  C_12
REMARK    4  A    between atoms: O_4  and  C_13
REMARK    5  A    between atoms: O_5  and  C_14
REMARK    6  A    between atoms: O_6  and  C_17
REMARK    7  A    between atoms: O_8  and  C_20
REMARK    8  A    between atoms: O_9  and  C_23
REMARK    9  A    between atoms: O_11  and  C_32
REMARK   10  A    between atoms: C_15  and  C_17
REMARK   11  A    between atoms: C_25  and  C_27
REMARK                            x       y       z     vdW  Elec       q    Type
REMARK                         _______ _______ _______ _____ _____    ______ ____
ROOT
ATOM      7  O   UNL     1     179.711 188.121 170.352  0.00  0.00    +0.000 OA
ATOM     10  O   UNL     1     182.069 189.286 167.239  0.00  0.00    +0.000 OA
ATOM     18  C   UNL     1     182.475 185.796 170.836  0.00  0.00    +0.000 A 
ATOM     19  C   UNL     1     181.266 186.469 171.008  0.00  0.00    +0.000 A 
ATOM     20  C   UNL     1     183.330 186.147 169.789  0.00  0.00    +0.000 A 
ATOM     21  C   UNL     1     180.912 187.495 170.132  0.00  0.00    +0.000 A 
ATOM     22  C   UNL     1     181.767 187.845 169.087  0.00  0.00    +0.000 A 
ATOM     23  C   UNL     1     182.978 187.173 168.911  0.00  0.00    +0.000 A 
ATOM     24  C   UNL     1     181.369 188.930 168.178  0.00  0.00    +0.000 A 
ATOM     25  C   UNL     1     179.338 189.151 169.501  0.00  0.00    +0.000 A 
ATOM     26  C   UNL     1     180.070 189.573 168.458  0.00  0.00    +0.000 A 
ENDROOT
BRANCH  25  27
ATOM     27  C   UNL     1     178.027 189.749 169.824  0.00  0.00    +0.000 A 
ATOM     28  C   UNL     1     177.813 190.341 171.071  0.00  0.00    +0.000 A 
ATOM     29  C   UNL     1     176.993 189.723 168.884  0.00  0.00    +0.000 A 
ATOM     30  C   UNL     1     176.574 190.906 171.375  0.00  0.00    +0.000 A 
ATOM     31  C   UNL     1     175.755 190.288 169.188  0.00  0.00    +0.000 A 
ATOM     32  C   UNL     1     175.545 190.878 170.434  0.00  0.00    +0.000 A 
BRANCH  32  11
ATOM     11  O   UNL     1     174.336 191.429 170.731  0.00  0.00    +0.000 OA
ATOM     39  H   UNL     1     174.328 192.353 170.427  0.00  0.00    +0.000 HD
ENDBRANCH  32  11
ENDBRANCH  25  27
BRANCH  20   8
ATOM      8  O   UNL     1     184.510 185.482 169.628  0.00  0.00    +0.000 OA
ATOM     37  H   UNL     1     184.878 185.291 170.508  0.00  0.00    +0.000 HD
ENDBRANCH  20   8
BRANCH  23   9
ATOM      9  O   UNL     1     183.840 187.487 167.903  0.00  0.00    +0.000 OA
ATOM     38  H   UNL     1     184.753 187.276 168.152  0.00  0.00    +0.000 HD
ENDBRANCH  23   9
BRANCH  18   2
ATOM      2  O   UNL     1     182.811 184.793 171.699  0.00  0.00    +0.000 OA
BRANCH   2  16
ATOM      1  O   UNL     1     184.842 185.428 172.659  0.00  0.00    +0.000 OA
ATOM     12  C   UNL     1     184.083 184.321 175.199  0.00  0.00    +0.000 C 
ATOM     13  C   UNL     1     185.520 184.736 174.881  0.00  0.00    +0.000 C 
ATOM     14  C   UNL     1     183.290 184.050 173.920  0.00  0.00    +0.000 C 
ATOM     15  C   UNL     1     185.545 185.848 173.829  0.00  0.00    +0.000 C 
ATOM     16  C   UNL     1     183.459 185.184 172.909  0.00  0.00    +0.000 C 
BRANCH  12   3
ATOM      3  O   UNL     1     184.131 183.133 175.990  0.00  0.00    +0.000 OA
ATOM     33  H   UNL     1     183.358 183.145 176.580  0.00  0.00    +0.000 HD
ENDBRANCH  12   3
BRANCH  13   4
ATOM      4  O   UNL     1     186.152 185.199 176.071  0.00  0.00    +0.000 OA
ATOM     34  H   UNL     1     186.818 184.540 176.334  0.00  0.00    +0.000 HD
ENDBRANCH  13   4
BRANCH  14   5
ATOM      5  O   UNL     1     181.903 183.939 174.239  0.00  0.00    +0.000 OA
ATOM     35  H   UNL     1     181.703 183.001 174.396  0.00  0.00    +0.000 HD
ENDBRANCH  14   5
BRANCH  15  17
ATOM     17  C   UNL     1     186.969 186.197 173.409  0.00  0.00    +0.000 C 
BRANCH  17   6
ATOM      6  O   UNL     1     187.437 187.251 174.230  0.00  0.00    +0.000 OA
ATOM     36  H   UNL     1     187.850 186.851 175.015  0.00  0.00    +0.000 HD
ENDBRANCH  17   6
ENDBRANCH  15  17
ENDBRANCH   2  16
ENDBRANCH  18   2
TORSDOF 11
ENDMDL
MODEL 10
REMARK VINA RESULT:      -7.7      7.656     12.024
REMARK  Name = 5320623
REMARK  11 active torsions:
REMARK  status: ('A' for Active; 'I' for Inactive)
REMARK    1  A    between atoms: O_2  and  C_16
REMARK    2  A    between atoms: O_2  and  C_18
REMARK    3  A    between atoms: O_3  and  C_12
REMARK    4  A    between atoms: O_4  and  C_13
REMARK    5  A    between atoms: O_5  and  C_14
REMARK    6  A    between atoms: O_6  and  C_17
REMARK    7  A    between atoms: O_8  and  C_20
REMARK    8  A    between atoms: O_9  and  C_23
REMARK    9  A    between atoms: O_11  and  C_32
REMARK   10  A    between atoms: C_15  and  C_17
REMARK   11  A    between atoms: C_25  and  C_27
REMARK                            x       y       z     vdW  Elec       q    Type
REMARK                         _______ _______ _______ _____ _____    ______ ____
ROOT
ATOM      7  O   UNL     1     178.727 175.927 172.407  0.00  0.00    +0.000 OA
ATOM     10  O   UNL     1     175.020 177.180 171.272  0.00  0.00    +0.000 OA
ATOM     18  C   UNL     1     179.578 179.301 171.325  0.00  0.00    +0.000 A 
ATOM     19  C   UNL     1     179.690 178.002 171.821  0.00  0.00    +0.000 A 
ATOM     20  C   UNL     1     178.336 179.792 170.920  0.00  0.00    +0.000 A 
ATOM     21  C   UNL     1     178.556 177.195 171.911  0.00  0.00    +0.000 A 
ATOM     22  C   UNL     1     177.316 177.687 171.506  0.00  0.00    +0.000 A 
ATOM     23  C   UNL     1     177.200 178.987 171.008  0.00  0.00    +0.000 A 
ATOM     24  C   UNL     1     176.137 176.814 171.611  0.00  0.00    +0.000 A 
ATOM     25  C   UNL     1     177.616 175.105 172.516  0.00  0.00    +0.000 A 
ATOM     26  C   UNL     1     176.374 175.461 172.153  0.00  0.00    +0.000 A 
ENDROOT
BRANCH  25  27
ATOM     27  C   UNL     1     177.914 173.762 173.054  0.00  0.00    +0.000 A 
ATOM     28  C   UNL     1     179.237 173.332 173.174  0.00  0.00    +0.000 A 
ATOM     29  C   UNL     1     176.873 172.916 173.444  0.00  0.00    +0.000 A 
ATOM     30  C   UNL     1     179.518 172.063 173.682  0.00  0.00    +0.000 A 
ATOM     31  C   UNL     1     177.153 171.648 173.953  0.00  0.00    +0.000 A 
ATOM     32  C   UNL     1     178.476 171.221 174.071  0.00  0.00    +0.000 A 
BRANCH  32  11
ATOM     11  O   UNL     1     178.750 169.983 174.567  0.00  0.00    +0.000 OA
ATOM     39  H   UNL     1     179.245 170.080 175.398  0.00  0.00    +0.000 HD
ENDBRANCH  32  11
ENDBRANCH  25  27
BRANCH  20   8
ATOM      8  O   UNL     1     178.237 181.064 170.435  0.00  0.00    +0.000 OA
ATOM     37  H   UNL     1     178.170 181.018 169.465  0.00  0.00    +0.000 HD
ENDBRANCH  20   8
BRANCH  23   9
ATOM      9  O   UNL     1     176.006 179.503 170.604  0.00  0.00    +0.000 OA
ATOM     38  H   UNL     1     175.506 179.847 171.361  0.00  0.00    +0.000 HD
ENDBRANCH  23   9
BRANCH  18   2
ATOM      2  O   UNL     1     180.694 180.083 171.241  0.00  0.00    +0.000 OA
BRANCH   2  16
ATOM      1  O   UNL     1     180.583 182.222 172.168  0.00  0.00    +0.000 OA
ATOM     12  C   UNL     1     182.956 181.762 173.722  0.00  0.00    +0.000 C 
ATOM     13  C   UNL     1     182.353 183.155 173.538  0.00  0.00    +0.000 C 
ATOM     14  C   UNL     1     182.516 180.817 172.603  0.00  0.00    +0.000 C 
ATOM     15  C   UNL     1     180.845 183.067 173.290  0.00  0.00    +0.000 C 
ATOM     16  C   UNL     1     181.004 180.877 172.385  0.00  0.00    +0.000 C 
BRANCH  12   3
ATOM      3  O   UNL     1     184.378 181.891 173.705  0.00  0.00    +0.000 OA
ATOM     33  H   UNL     1     184.588 182.824 173.881  0.00  0.00    +0.000 HD
ENDBRANCH  12   3
BRANCH  13   4
ATOM      4  O   UNL     1     182.593 183.932 174.708  0.00  0.00    +0.000 OA
ATOM     34  H   UNL     1     183.130 183.397 175.318  0.00  0.00    +0.000 HD
ENDBRANCH  13   4
BRANCH  14   5
ATOM      5  O   UNL     1     182.865 179.478 172.951  0.00  0.00    +0.000 OA
ATOM     35  H   UNL     1     183.600 179.512 173.586  0.00  0.00    +0.000 HD
ENDBRANCH  14   5
BRANCH  15  17
ATOM     17  C   UNL     1     180.240 184.433 172.987  0.00  0.00    +0.000 C 
BRANCH  17   6
ATOM      6  O   UNL     1     179.173 184.665 173.887  0.00  0.00    +0.000 OA
ATOM     36  H   UNL     1     179.534 185.142 174.655  0.00  0.00    +0.000 HD
ENDBRANCH  17   6
ENDBRANCH  15  17
ENDBRANCH   2  16
ENDBRANCH  18   2
TORSDOF 11
ENDMDL
