MODEL 1
REMARK VINA RESULT:      -8.3      0.000      0.000
REMARK  10 active torsions:
REMARK  status: ('A' for Active; 'I' for Inactive)
REMARK    1  A    between atoms: O_2  and  C_12 
REMARK    2  A    between atoms: O_2  and  C_14 
REMARK    3  A    between atoms: O_3  and  C_8 
REMARK    4  A    between atoms: O_4  and  C_9 
REMARK    5  A    between atoms: O_5  and  C_10 
REMARK    6  A    between atoms: O_6  and  C_13 
REMARK    7  A    between atoms: O_7  and  C_21 
REMARK    8  A    between atoms: C_11  and  C_13 
REMARK    9  A    between atoms: C_14  and  C_15 
REMARK   10  A    between atoms: C_15  and  C_16 
ROOT
HETATM    1  O   UNK     0       6.483  29.501  24.307  0.00  0.00    -0.348 OA
HETATM    2  C   UNK     0       4.123  30.858  23.389  0.00  0.00     0.183 C 
HETATM    3  C   UNK     0       4.093  29.421  23.912  0.00  0.00     0.180 C 
HETATM    4  C   UNK     0       5.525  31.243  22.913  0.00  0.00     0.204 C 
HETATM    5  C   UNK     0       5.227  29.182  24.910  0.00  0.00     0.179 C 
HETATM    6  C   UNK     0       6.585  30.878  23.952  0.00  0.00     0.291 C 
ENDROOT
BRANCH   5   7
HETATM    7  C   UNK     0       5.290  27.725  25.356  0.00  0.00     0.198 C 
BRANCH   7   8
HETATM    8  O   UNK     0       4.370  27.537  26.415  0.00  0.00    -0.398 OA
HETATM    9  H   UNK     0       3.723  28.262  26.376  0.00  0.00     0.209 HD
ENDBRANCH   7   8
ENDBRANCH   5   7
BRANCH   6  10
HETATM   10  O   UNK     0       7.866  31.135  23.380  0.00  0.00    -0.358 OA
BRANCH  10  11
HETATM   11  C   UNK     0       8.538  32.181  24.065  0.00  0.00     0.175 C 
BRANCH  11  12
HETATM   12  C   UNK     0      10.038  32.083  23.812  0.00  0.00     0.065 C 
BRANCH  12  13
HETATM   13  C   UNK     0      10.509  30.653  23.701  0.00  0.00    -0.056 A 
HETATM   14  C   UNK     0      10.176  29.913  22.580  0.00  0.00     0.010 A 
HETATM   15  C   UNK     0      10.611  28.592  22.478  0.00  0.00     0.037 A 
HETATM   16  C   UNK     0      11.375  28.029  23.501  0.00  0.00     0.065 A 
HETATM   17  C   UNK     0      11.704  28.787  24.624  0.00  0.00     0.037 A 
HETATM   18  C   UNK     0      11.268  30.108  24.725  0.00  0.00     0.010 A 
BRANCH  16  19
HETATM   19  O   UNK     0      11.801  26.739  23.401  0.00  0.00    -0.361 OA
HETATM   20  H   UNK     0      11.026  26.151  23.405  0.00  0.00     0.217 HD
ENDBRANCH  16  19
ENDBRANCH  12  13
ENDBRANCH  11  12
ENDBRANCH  10  11
ENDBRANCH   6  10
BRANCH   3  21
HETATM   21  O   UNK     0       2.843  29.180  24.553  0.00  0.00    -0.390 OA
HETATM   22  H   UNK     0       2.486  30.035  24.847  0.00  0.00     0.210 HD
ENDBRANCH   3  21
BRANCH   4  23
HETATM   23  O   UNK     0       5.579  32.653  22.695  0.00  0.00    -0.388 OA
HETATM   24  H   UNK     0       5.579  33.093  23.563  0.00  0.00     0.210 HD
ENDBRANCH   4  23
BRANCH   2  25
HETATM   25  O   UNK     0       3.208  30.950  22.297  0.00  0.00    -0.390 OA
HETATM   26  H   UNK     0       2.318  31.066  22.672  0.00  0.00     0.210 HD
ENDBRANCH   2  25
TORSDOF 10
ENDMDL
MODEL 2
REMARK VINA RESULT:      -7.3      1.667      4.466
REMARK  10 active torsions:
REMARK  status: ('A' for Active; 'I' for Inactive)
REMARK    1  A    between atoms: O_2  and  C_12 
REMARK    2  A    between atoms: O_2  and  C_14 
REMARK    3  A    between atoms: O_3  and  C_8 
REMARK    4  A    between atoms: O_4  and  C_9 
REMARK    5  A    between atoms: O_5  and  C_10 
REMARK    6  A    between atoms: O_6  and  C_13 
REMARK    7  A    between atoms: O_7  and  C_21 
REMARK    8  A    between atoms: C_11  and  C_13 
REMARK    9  A    between atoms: C_14  and  C_15 
REMARK   10  A    between atoms: C_15  and  C_16 
ROOT
HETATM    1  O   UNK     0       6.391  29.811  24.036  0.00  0.00    -0.348 OA
HETATM    2  C   UNK     0       4.897  27.720  25.318  0.00  0.00     0.183 C 
HETATM    3  C   UNK     0       4.289  29.086  24.998  0.00  0.00     0.180 C 
HETATM    4  C   UNK     0       6.422  27.798  25.394  0.00  0.00     0.204 C 
HETATM    5  C   UNK     0       4.986  29.723  23.794  0.00  0.00     0.179 C 
HETATM    6  C   UNK     0       7.003  28.531  24.185  0.00  0.00     0.291 C 
ENDROOT
BRANCH   5   7
HETATM    7  C   UNK     0       4.477  31.135  23.528  0.00  0.00     0.198 C 
BRANCH   7   8
HETATM    8  O   UNK     0       3.601  31.098  22.417  0.00  0.00    -0.398 OA
HETATM    9  H   UNK     0       3.151  31.958  22.368  0.00  0.00     0.209 HD
ENDBRANCH   7   8
ENDBRANCH   5   7
BRANCH   6  10
HETATM   10  O   UNK     0       8.404  28.688  24.398  0.00  0.00    -0.358 OA
BRANCH  10  11
HETATM   11  C   UNK     0       9.012  29.402  23.332  0.00  0.00     0.175 C 
BRANCH  11  12
HETATM   12  C   UNK     0       9.977  30.441  23.891  0.00  0.00     0.065 C 
BRANCH  12  13
HETATM   13  C   UNK     0       9.506  31.854  23.643  0.00  0.00    -0.056 A 
HETATM   14  C   UNK     0       8.167  32.163  23.809  0.00  0.00     0.010 A 
HETATM   15  C   UNK     0       7.732  33.468  23.580  0.00  0.00     0.037 A 
HETATM   16  C   UNK     0       8.645  34.447  23.185  0.00  0.00     0.065 A 
HETATM   17  C   UNK     0       9.990  34.121  23.021  0.00  0.00     0.037 A 
HETATM   18  C   UNK     0      10.424  32.816  23.251  0.00  0.00     0.010 A 
BRANCH  16  19
HETATM   19  O   UNK     0       8.220  35.721  22.961  0.00  0.00    -0.361 OA
HETATM   20  H   UNK     0       8.390  35.951  22.031  0.00  0.00     0.217 HD
ENDBRANCH  16  19
ENDBRANCH  12  13
ENDBRANCH  11  12
ENDBRANCH  10  11
ENDBRANCH   6  10
BRANCH   3  21
HETATM   21  O   UNK     0       2.902  28.928  24.709  0.00  0.00    -0.390 OA
HETATM   22  H   UNK     0       2.521  28.333  25.377  0.00  0.00     0.210 HD
ENDBRANCH   3  21
BRANCH   4  23
HETATM   23  O   UNK     0       6.963  26.477  25.418  0.00  0.00    -0.388 OA
HETATM   24  H   UNK     0       6.755  26.081  26.282  0.00  0.00     0.210 HD
ENDBRANCH   4  23
BRANCH   2  25
HETATM   25  O   UNK     0       4.379  27.290  26.577  0.00  0.00    -0.390 OA
HETATM   26  H   UNK     0       3.979  28.064  27.008  0.00  0.00     0.210 HD
ENDBRANCH   2  25
TORSDOF 10
ENDMDL
MODEL 3
REMARK VINA RESULT:      -6.9     27.143     29.401
REMARK  10 active torsions:
REMARK  status: ('A' for Active; 'I' for Inactive)
REMARK    1  A    between atoms: O_2  and  C_12 
REMARK    2  A    between atoms: O_2  and  C_14 
REMARK    3  A    between atoms: O_3  and  C_8 
REMARK    4  A    between atoms: O_4  and  C_9 
REMARK    5  A    between atoms: O_5  and  C_10 
REMARK    6  A    between atoms: O_6  and  C_13 
REMARK    7  A    between atoms: O_7  and  C_21 
REMARK    8  A    between atoms: C_11  and  C_13 
REMARK    9  A    between atoms: C_14  and  C_15 
REMARK   10  A    between atoms: C_15  and  C_16 
ROOT
HETATM    1  O   UNK     0     -13.164  47.978  33.309  0.00  0.00    -0.348 OA
HETATM    2  C   UNK     0     -14.302  47.356  35.872  0.00  0.00     0.183 C 
HETATM    3  C   UNK     0     -13.649  48.705  35.570  0.00  0.00     0.180 C 
HETATM    4  C   UNK     0     -13.801  46.273  34.916  0.00  0.00     0.204 C 
HETATM    5  C   UNK     0     -13.744  49.033  34.078  0.00  0.00     0.179 C 
HETATM    6  C   UNK     0     -13.859  46.742  33.463  0.00  0.00     0.291 C 
ENDROOT
BRANCH   5   7
HETATM    7  C   UNK     0     -12.997  50.317  33.733  0.00  0.00     0.198 C 
BRANCH   7   8
HETATM    8  O   UNK     0     -11.908  49.993  32.889  0.00  0.00    -0.398 OA
HETATM    9  H   UNK     0     -11.216  49.593  33.441  0.00  0.00     0.209 HD
ENDBRANCH   7   8
ENDBRANCH   5   7
BRANCH   6  10
HETATM   10  O   UNK     0     -13.246  45.741  32.653  0.00  0.00    -0.358 OA
BRANCH  10  11
HETATM   11  C   UNK     0     -13.822  45.702  31.356  0.00  0.00     0.175 C 
BRANCH  11  12
HETATM   12  C   UNK     0     -13.721  44.291  30.789  0.00  0.00     0.065 C 
BRANCH  12  13
HETATM   13  C   UNK     0     -15.058  43.590  30.754  0.00  0.00    -0.056 A 
HETATM   14  C   UNK     0     -15.653  43.204  31.943  0.00  0.00     0.010 A 
HETATM   15  C   UNK     0     -16.888  42.556  31.912  0.00  0.00     0.037 A 
HETATM   16  C   UNK     0     -17.510  42.302  30.689  0.00  0.00     0.065 A 
HETATM   17  C   UNK     0     -16.899  42.697  29.500  0.00  0.00     0.037 A 
HETATM   18  C   UNK     0     -15.664  43.345  29.532  0.00  0.00     0.010 A 
BRANCH  16  19
HETATM   19  O   UNK     0     -18.716  41.670  30.658  0.00  0.00    -0.361 OA
HETATM   20  H   UNK     0     -18.568  40.715  30.553  0.00  0.00     0.217 HD
ENDBRANCH  16  19
ENDBRANCH  12  13
ENDBRANCH  11  12
ENDBRANCH  10  11
ENDBRANCH   6  10
BRANCH   3  21
HETATM   21  O   UNK     0     -14.305  49.725  36.319  0.00  0.00    -0.390 OA
HETATM   22  H   UNK     0     -14.282  50.544  35.796  0.00  0.00     0.210 HD
ENDBRANCH   3  21
BRANCH   4  23
HETATM   23  O   UNK     0     -14.622  45.112  35.044  0.00  0.00    -0.388 OA
HETATM   24  H   UNK     0     -15.277  45.281  35.743  0.00  0.00     0.210 HD
ENDBRANCH   4  23
BRANCH   2  25
HETATM   25  O   UNK     0     -13.972  46.996  37.214  0.00  0.00    -0.390 OA
HETATM   26  H   UNK     0     -14.769  47.129  37.756  0.00  0.00     0.210 HD
ENDBRANCH   2  25
TORSDOF 10
ENDMDL
MODEL 4
REMARK VINA RESULT:      -6.8     24.078     25.568
REMARK  10 active torsions:
REMARK  status: ('A' for Active; 'I' for Inactive)
REMARK    1  A    between atoms: O_2  and  C_12 
REMARK    2  A    between atoms: O_2  and  C_14 
REMARK    3  A    between atoms: O_3  and  C_8 
REMARK    4  A    between atoms: O_4  and  C_9 
REMARK    5  A    between atoms: O_5  and  C_10 
REMARK    6  A    between atoms: O_6  and  C_13 
REMARK    7  A    between atoms: O_7  and  C_21 
REMARK    8  A    between atoms: C_11  and  C_13 
REMARK    9  A    between atoms: C_14  and  C_15 
REMARK   10  A    between atoms: C_15  and  C_16 
ROOT
HETATM    1  O   UNK     0     -11.772  42.023  10.997  0.00  0.00    -0.348 OA
HETATM    2  C   UNK     0      -9.303  43.485  11.122  0.00  0.00     0.183 C 
HETATM    3  C   UNK     0     -10.668  44.172  11.176  0.00  0.00     0.180 C 
HETATM    4  C   UNK     0      -9.404  42.107  10.467  0.00  0.00     0.204 C 
HETATM    5  C   UNK     0     -11.727  43.232  11.755  0.00  0.00     0.179 C 
HETATM    6  C   UNK     0     -10.550  41.290  11.062  0.00  0.00     0.291 C 
ENDROOT
BRANCH   5   7
HETATM    7  C   UNK     0     -13.119  43.854  11.710  0.00  0.00     0.198 C 
BRANCH   7   8
HETATM    8  O   UNK     0     -13.298  44.645  12.870  0.00  0.00    -0.398 OA
HETATM    9  H   UNK     0     -13.439  44.042  13.619  0.00  0.00     0.209 HD
ENDBRANCH   7   8
ENDBRANCH   5   7
BRANCH   6  10
HETATM   10  O   UNK     0     -10.669  40.086  10.307  0.00  0.00    -0.358 OA
BRANCH  10  11
HETATM   11  C   UNK     0     -10.638  38.943  11.149  0.00  0.00     0.175 C 
BRANCH  11  12
HETATM   12  C   UNK     0     -12.003  38.265  11.149  0.00  0.00     0.065 C 
BRANCH  12  13
HETATM   13  C   UNK     0     -11.973  36.914  10.475  0.00  0.00    -0.056 A 
HETATM   14  C   UNK     0     -10.819  36.503   9.828  0.00  0.00     0.010 A 
HETATM   15  C   UNK     0     -10.792  35.255   9.206  0.00  0.00     0.037 A 
HETATM   16  C   UNK     0     -11.920  34.435   9.238  0.00  0.00     0.065 A 
HETATM   17  C   UNK     0     -13.074  34.862   9.893  0.00  0.00     0.037 A 
HETATM   18  C   UNK     0     -13.101  36.110  10.516  0.00  0.00     0.010 A 
BRANCH  16  19
HETATM   19  O   UNK     0     -11.892  33.217   8.631  0.00  0.00    -0.361 OA
HETATM   20  H   UNK     0     -11.257  32.647   9.097  0.00  0.00     0.217 HD
ENDBRANCH  16  19
ENDBRANCH  12  13
ENDBRANCH  11  12
ENDBRANCH  10  11
ENDBRANCH   6  10
BRANCH   3  21
HETATM   21  O   UNK     0     -10.576  45.338  11.992  0.00  0.00    -0.390 OA
HETATM   22  H   UNK     0     -10.427  46.102  11.409  0.00  0.00     0.210 HD
ENDBRANCH   3  21
BRANCH   4  23
HETATM   23  O   UNK     0      -8.187  41.391  10.679  0.00  0.00    -0.388 OA
HETATM   24  H   UNK     0      -7.494  41.808  10.139  0.00  0.00     0.210 HD
ENDBRANCH   4  23
BRANCH   2  25
HETATM   25  O   UNK     0      -8.422  44.311  10.360  0.00  0.00    -0.390 OA
HETATM   26  H   UNK     0      -8.245  43.852   9.521  0.00  0.00     0.210 HD
ENDBRANCH   2  25
TORSDOF 10
ENDMDL
MODEL 5
REMARK VINA RESULT:      -6.8     25.611     27.531
REMARK  10 active torsions:
REMARK  status: ('A' for Active; 'I' for Inactive)
REMARK    1  A    between atoms: O_2  and  C_12 
REMARK    2  A    between atoms: O_2  and  C_14 
REMARK    3  A    between atoms: O_3  and  C_8 
REMARK    4  A    between atoms: O_4  and  C_9 
REMARK    5  A    between atoms: O_5  and  C_10 
REMARK    6  A    between atoms: O_6  and  C_13 
REMARK    7  A    between atoms: O_7  and  C_21 
REMARK    8  A    between atoms: C_11  and  C_13 
REMARK    9  A    between atoms: C_14  and  C_15 
REMARK   10  A    between atoms: C_15  and  C_16 
ROOT
HETATM    1  O   UNK     0     -12.046  45.729  33.542  0.00  0.00    -0.348 OA
HETATM    2  C   UNK     0     -13.396  47.970  34.726  0.00  0.00     0.183 C 
HETATM    3  C   UNK     0     -13.781  47.410  33.356  0.00  0.00     0.180 C 
HETATM    4  C   UNK     0     -11.959  47.595  35.092  0.00  0.00     0.204 C 
HETATM    5  C   UNK     0     -13.433  45.924  33.260  0.00  0.00     0.179 C 
HETATM    6  C   UNK     0     -11.700  46.105  34.873  0.00  0.00     0.291 C 
ENDROOT
BRANCH   5   7
HETATM    7  C   UNK     0     -13.699  45.371  31.864  0.00  0.00     0.198 C 
BRANCH   7   8
HETATM    8  O   UNK     0     -15.089  45.141  31.727  0.00  0.00    -0.398 OA
HETATM    9  H   UNK     0     -15.543  45.667  32.407  0.00  0.00     0.209 HD
ENDBRANCH   7   8
ENDBRANCH   5   7
BRANCH   6  10
HETATM   10  O   UNK     0     -10.312  45.864  35.097  0.00  0.00    -0.358 OA
BRANCH  10  11
HETATM   11  C   UNK     0     -10.086  45.298  36.379  0.00  0.00     0.175 C 
BRANCH  11  12
HETATM   12  C   UNK     0      -9.410  43.940  36.231  0.00  0.00     0.065 C 
BRANCH  12  13
HETATM   13  C   UNK     0      -9.844  42.963  37.297  0.00  0.00    -0.056 A 
HETATM   14  C   UNK     0     -10.015  43.408  38.597  0.00  0.00     0.010 A 
HETATM   15  C   UNK     0     -10.417  42.505  39.582  0.00  0.00     0.037 A 
HETATM   16  C   UNK     0     -10.642  41.168  39.252  0.00  0.00     0.065 A 
HETATM   17  C   UNK     0     -10.467  40.735  37.938  0.00  0.00     0.037 A 
HETATM   18  C   UNK     0     -10.065  41.638  36.954  0.00  0.00     0.010 A 
BRANCH  16  19
HETATM   19  O   UNK     0     -11.035  40.288  40.213  0.00  0.00    -0.361 OA
HETATM   20  H   UNK     0     -10.762  40.628  41.082  0.00  0.00     0.217 HD
ENDBRANCH  16  19
ENDBRANCH  12  13
ENDBRANCH  11  12
ENDBRANCH  10  11
ENDBRANCH   6  10
BRANCH   3  21
HETATM   21  O   UNK     0     -15.182  47.580  33.156  0.00  0.00    -0.390 OA
HETATM   22  H   UNK     0     -15.622  47.495  34.019  0.00  0.00     0.210 HD
ENDBRANCH   3  21
BRANCH   4  23
HETATM   23  O   UNK     0     -11.729  47.891  36.470  0.00  0.00    -0.388 OA
HETATM   24  H   UNK     0     -10.785  47.748  36.656  0.00  0.00     0.210 HD
ENDBRANCH   4  23
BRANCH   2  25
HETATM   25  O   UNK     0     -13.518  49.392  34.672  0.00  0.00    -0.390 OA
HETATM   26  H   UNK     0     -13.254  49.673  33.779  0.00  0.00     0.210 HD
ENDBRANCH   2  25
TORSDOF 10
ENDMDL
MODEL 6
REMARK VINA RESULT:      -6.8     24.089     25.538
REMARK  10 active torsions:
REMARK  status: ('A' for Active; 'I' for Inactive)
REMARK    1  A    between atoms: O_2  and  C_12 
REMARK    2  A    between atoms: O_2  and  C_14 
REMARK    3  A    between atoms: O_3  and  C_8 
REMARK    4  A    between atoms: O_4  and  C_9 
REMARK    5  A    between atoms: O_5  and  C_10 
REMARK    6  A    between atoms: O_6  and  C_13 
REMARK    7  A    between atoms: O_7  and  C_21 
REMARK    8  A    between atoms: C_11  and  C_13 
REMARK    9  A    between atoms: C_14  and  C_15 
REMARK   10  A    between atoms: C_15  and  C_16 
ROOT
HETATM    1  O   UNK     0     -11.821  42.139  11.921  0.00  0.00    -0.348 OA
HETATM    2  C   UNK     0      -9.313  41.337  10.773  0.00  0.00     0.183 C 
HETATM    3  C   UNK     0      -9.876  42.749  10.610  0.00  0.00     0.180 C 
HETATM    4  C   UNK     0     -10.421  40.334  11.097  0.00  0.00     0.204 C 
HETATM    5  C   UNK     0     -10.783  43.112  11.787  0.00  0.00     0.179 C 
HETATM    6  C   UNK     0     -11.317  40.840  12.227  0.00  0.00     0.291 C 
ENDROOT
BRANCH   5   7
HETATM    7  C   UNK     0     -11.449  44.469  11.589  0.00  0.00     0.198 C 
BRANCH   7   8
HETATM    8  O   UNK     0     -10.565  45.477  12.042  0.00  0.00    -0.398 OA
HETATM    9  H   UNK     0     -10.348  45.283  12.970  0.00  0.00     0.209 HD
ENDBRANCH   7   8
ENDBRANCH   5   7
BRANCH   6  10
HETATM   10  O   UNK     0     -12.402  39.924  12.371  0.00  0.00    -0.358 OA
BRANCH  10  11
HETATM   11  C   UNK     0     -12.965  39.589  11.111  0.00  0.00     0.175 C 
BRANCH  11  12
HETATM   12  C   UNK     0     -13.643  38.226  11.197  0.00  0.00     0.065 C 
BRANCH  12  13
HETATM   13  C   UNK     0     -12.915  37.172  10.399  0.00  0.00    -0.056 A 
HETATM   14  C   UNK     0     -12.103  37.557   9.346  0.00  0.00     0.010 A 
HETATM   15  C   UNK     0     -11.430  36.582   8.608  0.00  0.00     0.037 A 
HETATM   16  C   UNK     0     -11.581  35.234   8.935  0.00  0.00     0.065 A 
HETATM   17  C   UNK     0     -12.402  34.861   9.998  0.00  0.00     0.037 A 
HETATM   18  C   UNK     0     -13.074  35.836  10.735  0.00  0.00     0.010 A 
BRANCH  16  19
HETATM   19  O   UNK     0     -10.924  34.283   8.215  0.00  0.00    -0.361 OA
HETATM   20  H   UNK     0     -10.317  34.721   7.594  0.00  0.00     0.217 HD
ENDBRANCH  16  19
ENDBRANCH  12  13
ENDBRANCH  11  12
ENDBRANCH  10  11
ENDBRANCH   6  10
BRANCH   3  21
HETATM   21  O   UNK     0      -8.799  43.680  10.541  0.00  0.00    -0.390 OA
HETATM   22  H   UNK     0      -9.041  44.373   9.903  0.00  0.00     0.210 HD
ENDBRANCH   3  21
BRANCH   4  23
HETATM   23  O   UNK     0      -9.836  39.098  11.509  0.00  0.00    -0.388 OA
HETATM   24  H   UNK     0      -9.005  39.299  11.974  0.00  0.00     0.210 HD
ENDBRANCH   4  23
BRANCH   2  25
HETATM   25  O   UNK     0      -8.681  40.968   9.547  0.00  0.00    -0.390 OA
HETATM   26  H   UNK     0      -9.377  40.895   8.871  0.00  0.00     0.210 HD
ENDBRANCH   2  25
TORSDOF 10
ENDMDL
MODEL 7
REMARK VINA RESULT:      -6.7     27.071     28.735
REMARK  10 active torsions:
REMARK  status: ('A' for Active; 'I' for Inactive)
REMARK    1  A    between atoms: O_2  and  C_12 
REMARK    2  A    between atoms: O_2  and  C_14 
REMARK    3  A    between atoms: O_3  and  C_8 
REMARK    4  A    between atoms: O_4  and  C_9 
REMARK    5  A    between atoms: O_5  and  C_10 
REMARK    6  A    between atoms: O_6  and  C_13 
REMARK    7  A    between atoms: O_7  and  C_21 
REMARK    8  A    between atoms: C_11  and  C_13 
REMARK    9  A    between atoms: C_14  and  C_15 
REMARK   10  A    between atoms: C_15  and  C_16 
ROOT
HETATM    1  O   UNK     0     -12.372  46.020  33.843  0.00  0.00    -0.348 OA
HETATM    2  C   UNK     0     -12.984  48.495  35.164  0.00  0.00     0.183 C 
HETATM    3  C   UNK     0     -12.262  47.346  35.868  0.00  0.00     0.180 C 
HETATM    4  C   UNK     0     -13.783  47.992  33.961  0.00  0.00     0.204 C 
HETATM    5  C   UNK     0     -11.489  46.492  34.861  0.00  0.00     0.179 C 
HETATM    6  C   UNK     0     -12.937  47.080  33.074  0.00  0.00     0.291 C 
ENDROOT
BRANCH   5   7
HETATM    7  C   UNK     0     -10.857  45.272  35.523  0.00  0.00     0.198 C 
BRANCH   7   8
HETATM    8  O   UNK     0     -11.599  44.953  36.685  0.00  0.00    -0.398 OA
HETATM    9  H   UNK     0     -11.289  44.089  37.005  0.00  0.00     0.209 HD
ENDBRANCH   7   8
ENDBRANCH   5   7
BRANCH   6  10
HETATM   10  O   UNK     0     -13.787  46.541  32.062  0.00  0.00    -0.358 OA
BRANCH  10  11
HETATM   11  C   UNK     0     -13.774  45.121  32.079  0.00  0.00     0.175 C 
BRANCH  11  12
HETATM   12  C   UNK     0     -13.798  44.589  30.651  0.00  0.00     0.065 C 
BRANCH  12  13
HETATM   13  C   UNK     0     -15.085  43.868  30.329  0.00  0.00    -0.056 A 
HETATM   14  C   UNK     0     -15.531  42.865  31.172  0.00  0.00     0.010 A 
HETATM   15  C   UNK     0     -16.720  42.199  30.875  0.00  0.00     0.037 A 
HETATM   16  C   UNK     0     -17.447  42.546  29.736  0.00  0.00     0.065 A 
HETATM   17  C   UNK     0     -16.986  43.559  28.896  0.00  0.00     0.037 A 
HETATM   18  C   UNK     0     -15.797  44.224  29.194  0.00  0.00     0.010 A 
BRANCH  16  19
HETATM   19  O   UNK     0     -18.608  41.896  29.446  0.00  0.00    -0.361 OA
HETATM   20  H   UNK     0     -19.352  42.508  29.576  0.00  0.00     0.217 HD
ENDBRANCH  16  19
ENDBRANCH  12  13
ENDBRANCH  11  12
ENDBRANCH  10  11
ENDBRANCH   6  10
BRANCH   3  21
HETATM   21  O   UNK     0     -11.355  47.878  36.830  0.00  0.00    -0.390 OA
HETATM   22  H   UNK     0     -10.451  47.687  36.528  0.00  0.00     0.210 HD
ENDBRANCH   3  21
BRANCH   4  23
HETATM   23  O   UNK     0     -14.211  49.107  33.177  0.00  0.00    -0.388 OA
HETATM   24  H   UNK     0     -13.618  49.854  33.367  0.00  0.00     0.210 HD
ENDBRANCH   4  23
BRANCH   2  25
HETATM   25  O   UNK     0     -13.871  49.102  36.104  0.00  0.00    -0.390 OA
HETATM   26  H   UNK     0     -14.002  50.025  35.827  0.00  0.00     0.210 HD
ENDBRANCH   2  25
TORSDOF 10
ENDMDL
MODEL 8
REMARK VINA RESULT:      -6.6     23.687     27.235
REMARK  10 active torsions:
REMARK  status: ('A' for Active; 'I' for Inactive)
REMARK    1  A    between atoms: O_2  and  C_12 
REMARK    2  A    between atoms: O_2  and  C_14 
REMARK    3  A    between atoms: O_3  and  C_8 
REMARK    4  A    between atoms: O_4  and  C_9 
REMARK    5  A    between atoms: O_5  and  C_10 
REMARK    6  A    between atoms: O_6  and  C_13 
REMARK    7  A    between atoms: O_7  and  C_21 
REMARK    8  A    between atoms: C_11  and  C_13 
REMARK    9  A    between atoms: C_14  and  C_15 
REMARK   10  A    between atoms: C_15  and  C_16 
ROOT
HETATM    1  O   UNK     0     -18.379  32.144  21.194  0.00  0.00    -0.348 OA
HETATM    2  C   UNK     0     -15.987  33.050  22.499  0.00  0.00     0.183 C 
HETATM    3  C   UNK     0     -16.389  31.575  22.454  0.00  0.00     0.180 C 
HETATM    4  C   UNK     0     -17.198  33.960  22.290  0.00  0.00     0.204 C 
HETATM    5  C   UNK     0     -17.240  31.282  21.217  0.00  0.00     0.179 C 
HETATM    6  C   UNK     0     -18.023  33.520  21.081  0.00  0.00     0.291 C 
ENDROOT
BRANCH   5   7
HETATM    7  C   UNK     0     -17.751  29.845  21.210  0.00  0.00     0.198 C 
BRANCH   7   8
HETATM    8  O   UNK     0     -17.750  29.359  22.540  0.00  0.00    -0.398 OA
HETATM    9  H   UNK     0     -18.182  30.027  23.098  0.00  0.00     0.209 HD
ENDBRANCH   7   8
ENDBRANCH   5   7
BRANCH   6  10
HETATM   10  O   UNK     0     -19.202  34.321  21.039  0.00  0.00    -0.358 OA
BRANCH  10  11
HETATM   11  C   UNK     0     -20.356  33.559  21.358  0.00  0.00     0.175 C 
BRANCH  11  12
HETATM   12  C   UNK     0     -21.041  34.148  22.586  0.00  0.00     0.065 C 
BRANCH  12  13
HETATM   13  C   UNK     0     -21.359  33.099  23.624  0.00  0.00    -0.056 A 
HETATM   14  C   UNK     0     -20.890  31.808  23.451  0.00  0.00     0.010 A 
HETATM   15  C   UNK     0     -21.185  30.839  24.410  0.00  0.00     0.037 A 
HETATM   16  C   UNK     0     -21.946  31.176  25.530  0.00  0.00     0.065 A 
HETATM   17  C   UNK     0     -22.411  32.480  25.691  0.00  0.00     0.037 A 
HETATM   18  C   UNK     0     -22.116  33.449  24.731  0.00  0.00     0.010 A 
BRANCH  16  19
HETATM   19  O   UNK     0     -22.234  30.230  26.466  0.00  0.00    -0.361 OA
HETATM   20  H   UNK     0     -22.835  29.573  26.076  0.00  0.00     0.217 HD
ENDBRANCH  16  19
ENDBRANCH  12  13
ENDBRANCH  11  12
ENDBRANCH  10  11
ENDBRANCH   6  10
BRANCH   3  21
HETATM   21  O   UNK     0     -15.215  30.768  22.420  0.00  0.00    -0.390 OA
HETATM   22  H   UNK     0     -14.999  30.512  23.333  0.00  0.00     0.210 HD
ENDBRANCH   3  21
BRANCH   4  23
HETATM   23  O   UNK     0     -16.753  35.297  22.065  0.00  0.00    -0.388 OA
HETATM   24  H   UNK     0     -17.364  35.900  22.523  0.00  0.00     0.210 HD
ENDBRANCH   4  23
BRANCH   2  25
HETATM   25  O   UNK     0     -15.411  33.311  23.779  0.00  0.00    -0.390 OA
HETATM   26  H   UNK     0     -15.777  34.155  24.097  0.00  0.00     0.210 HD
ENDBRANCH   2  25
TORSDOF 10
ENDMDL
MODEL 9
REMARK VINA RESULT:      -6.6     23.402     26.081
REMARK  10 active torsions:
REMARK  status: ('A' for Active; 'I' for Inactive)
REMARK    1  A    between atoms: O_2  and  C_12 
REMARK    2  A    between atoms: O_2  and  C_14 
REMARK    3  A    between atoms: O_3  and  C_8 
REMARK    4  A    between atoms: O_4  and  C_9 
REMARK    5  A    between atoms: O_5  and  C_10 
REMARK    6  A    between atoms: O_6  and  C_13 
REMARK    7  A    between atoms: O_7  and  C_21 
REMARK    8  A    between atoms: C_11  and  C_13 
REMARK    9  A    between atoms: C_14  and  C_15 
REMARK   10  A    between atoms: C_15  and  C_16 
ROOT
HETATM    1  O   UNK     0     -17.710  32.082  20.269  0.00  0.00    -0.348 OA
HETATM    2  C   UNK     0     -15.552  32.961  21.949  0.00  0.00     0.183 C 
HETATM    3  C   UNK     0     -16.193  31.580  22.091  0.00  0.00     0.180 C 
HETATM    4  C   UNK     0     -16.500  33.941  21.257  0.00  0.00     0.204 C 
HETATM    5  C   UNK     0     -16.780  31.113  20.758  0.00  0.00     0.179 C 
HETATM    6  C   UNK     0     -17.095  33.337  19.985  0.00  0.00     0.291 C 
ENDROOT
BRANCH   5   7
HETATM    7  C   UNK     0     -17.527  29.792  20.900  0.00  0.00     0.198 C 
BRANCH   7   8
HETATM    8  O   UNK     0     -17.635  29.480  22.277  0.00  0.00    -0.398 OA
HETATM    9  H   UNK     0     -17.886  30.294  22.744  0.00  0.00     0.209 HD
ENDBRANCH   7   8
ENDBRANCH   5   7
BRANCH   6  10
HETATM   10  O   UNK     0     -18.069  34.248  19.480  0.00  0.00    -0.358 OA
BRANCH  10  11
HETATM   11  C   UNK     0     -19.207  34.309  20.328  0.00  0.00     0.175 C 
BRANCH  11  12
HETATM   12  C   UNK     0     -19.928  35.637  20.126  0.00  0.00     0.065 C 
BRANCH  12  13
HETATM   13  C   UNK     0     -19.120  36.810  20.626  0.00  0.00    -0.056 A 
HETATM   14  C   UNK     0     -19.007  37.027  21.989  0.00  0.00     0.010 A 
HETATM   15  C   UNK     0     -18.260  38.111  22.450  0.00  0.00     0.037 A 
HETATM   16  C   UNK     0     -17.637  38.965  21.539  0.00  0.00     0.065 A 
HETATM   17  C   UNK     0     -17.759  38.735  20.170  0.00  0.00     0.037 A 
HETATM   18  C   UNK     0     -18.506  37.650  19.710  0.00  0.00     0.010 A 
BRANCH  16  19
HETATM   19  O   UNK     0     -16.908  40.023  21.990  0.00  0.00    -0.361 OA
HETATM   20  H   UNK     0     -16.325  39.722  22.708  0.00  0.00     0.217 HD
ENDBRANCH  16  19
ENDBRANCH  12  13
ENDBRANCH  11  12
ENDBRANCH  10  11
ENDBRANCH   6  10
BRANCH   3  21
HETATM   21  O   UNK     0     -15.207  30.646  22.524  0.00  0.00    -0.390 OA
HETATM   22  H   UNK     0     -14.671  30.395  21.752  0.00  0.00     0.210 HD
ENDBRANCH   3  21
BRANCH   4  23
HETATM   23  O   UNK     0     -15.781  35.121  20.898  0.00  0.00    -0.388 OA
HETATM   24  H   UNK     0     -15.073  35.254  21.552  0.00  0.00     0.210 HD
ENDBRANCH   4  23
BRANCH   2  25
HETATM   25  O   UNK     0     -15.244  33.441  23.258  0.00  0.00    -0.390 OA
HETATM   26  H   UNK     0     -14.297  33.663  23.271  0.00  0.00     0.210 HD
ENDBRANCH   2  25
TORSDOF 10
ENDMDL
