MODEL 1
REMARK VINA RESULT:      -7.4      0.000      0.000
REMARK  6 active torsions:
REMARK  status: ('A' for Active; 'I' for Inactive)
REMARK    1  A    between atoms: O_2  and  C_12 
REMARK    2  A    between atoms: O_3  and  C_14 
REMARK    3  A    between atoms: O_5  and  C_16 
REMARK    4  A    between atoms: O_6  and  C_20 
REMARK    5  A    between atoms: O_7  and  C_22 
REMARK    6  A    between atoms: C_10  and  C_11 
ROOT
HETATM    1  O   UNK     0      22.804  36.868  22.569  0.00  0.00    -0.306 OA
HETATM    2  O   UNK     0      22.038  33.004  23.612  0.00  0.00    -0.284 OA
HETATM    3  C   UNK     0      21.250  35.220  23.443  0.00  0.00     0.084 A 
HETATM    4  C   UNK     0      21.575  36.523  23.069  0.00  0.00     0.096 A 
HETATM    5  C   UNK     0      23.759  35.875  22.417  0.00  0.00     0.123 A 
HETATM    6  C   UNK     0      23.575  34.583  22.746  0.00  0.00     0.152 A 
HETATM    7  C   UNK     0      22.263  34.164  23.296  0.00  0.00     0.223 A 
HETATM    8  C   UNK     0      19.981  34.928  23.948  0.00  0.00     0.085 A 
HETATM    9  C   UNK     0      20.632  37.543  23.201  0.00  0.00     0.075 A 
HETATM   10  C   UNK     0      19.364  37.253  23.705  0.00  0.00     0.071 A 
HETATM   11  C   UNK     0      19.040  35.949  24.078  0.00  0.00     0.074 A 
ENDROOT
BRANCH   5  12
HETATM   12  C   UNK     0      25.031  36.379  21.871  0.00  0.00     0.004 A 
HETATM   13  C   UNK     0      26.024  36.845  22.732  0.00  0.00     0.053 A 
HETATM   14  C   UNK     0      27.229  37.322  22.214  0.00  0.00     0.099 A 
HETATM   15  C   UNK     0      27.439  37.333  20.835  0.00  0.00     0.098 A 
HETATM   16  C   UNK     0      26.446  36.867  19.974  0.00  0.00     0.040 A 
HETATM   17  C   UNK     0      25.242  36.389  20.491  0.00  0.00     0.017 A 
BRANCH  14  18
HETATM   18  O   UNK     0      28.191  37.777  23.064  0.00  0.00    -0.358 OA
HETATM   19  H   UNK     0      28.902  38.203  22.558  0.00  0.00     0.217 HD
ENDBRANCH  14  18
BRANCH  15  20
HETATM   20  O   UNK     0      28.613  37.795  20.318  0.00  0.00    -0.358 OA
HETATM   21  H   UNK     0      28.946  38.525  20.862  0.00  0.00     0.217 HD
ENDBRANCH  15  20
ENDBRANCH   5  12
BRANCH   6  22
HETATM   22  O   UNK     0      24.557  33.625  22.613  0.00  0.00    -0.355 OA
HETATM   23  H   UNK     0      24.184  32.824  22.211  0.00  0.00     0.218 HD
ENDBRANCH   6  22
BRANCH   8  24
HETATM   24  O   UNK     0      19.613  33.672  24.327  0.00  0.00    -0.360 OA
HETATM   25  H   UNK     0      19.746  33.551  25.279  0.00  0.00     0.217 HD
ENDBRANCH   8  24
BRANCH  10  26
HETATM   26  O   UNK     0      18.442  38.248  23.834  0.00  0.00    -0.361 OA
HETATM   27  H   UNK     0      18.797  38.931  24.428  0.00  0.00     0.217 HD
ENDBRANCH  10  26
TORSDOF 6
ENDMDL
MODEL 2
REMARK VINA RESULT:      -7.4      3.341      6.111
REMARK  6 active torsions:
REMARK  status: ('A' for Active; 'I' for Inactive)
REMARK    1  A    between atoms: O_2  and  C_12 
REMARK    2  A    between atoms: O_3  and  C_14 
REMARK    3  A    between atoms: O_5  and  C_16 
REMARK    4  A    between atoms: O_6  and  C_20 
REMARK    5  A    between atoms: O_7  and  C_22 
REMARK    6  A    between atoms: C_10  and  C_11 
ROOT
HETATM    1  O   UNK     0      19.872  33.723  23.745  0.00  0.00    -0.306 OA
HETATM    2  O   UNK     0      23.131  36.150  23.443  0.00  0.00    -0.284 OA
HETATM    3  C   UNK     0      20.836  35.942  23.942  0.00  0.00     0.084 A 
HETATM    4  C   UNK     0      19.760  35.060  24.025  0.00  0.00     0.096 A 
HETATM    5  C   UNK     0      21.112  33.226  23.375  0.00  0.00     0.123 A 
HETATM    6  C   UNK     0      22.226  33.970  23.250  0.00  0.00     0.152 A 
HETATM    7  C   UNK     0      22.151  35.423  23.538  0.00  0.00     0.223 A 
HETATM    8  C   UNK     0      20.662  37.296  24.239  0.00  0.00     0.085 A 
HETATM    9  C   UNK     0      18.501  35.528  24.404  0.00  0.00     0.075 A 
HETATM   10  C   UNK     0      18.325  36.880  24.701  0.00  0.00     0.071 A 
HETATM   11  C   UNK     0      19.403  37.761  24.619  0.00  0.00     0.074 A 
ENDROOT
BRANCH   5  12
HETATM   12  C   UNK     0      21.093  31.778  23.103  0.00  0.00     0.004 A 
HETATM   13  C   UNK     0      22.093  30.957  23.624  0.00  0.00     0.053 A 
HETATM   14  C   UNK     0      22.075  29.586  23.366  0.00  0.00     0.099 A 
HETATM   15  C   UNK     0      21.056  29.036  22.588  0.00  0.00     0.098 A 
HETATM   16  C   UNK     0      20.055  29.857  22.068  0.00  0.00     0.040 A 
HETATM   17  C   UNK     0      20.073  31.228  22.326  0.00  0.00     0.017 A 
BRANCH  14  18
HETATM   18  O   UNK     0      23.058  28.794  23.877  0.00  0.00    -0.358 OA
HETATM   19  H   UNK     0      22.933  28.692  24.835  0.00  0.00     0.217 HD
ENDBRANCH  14  18
BRANCH  15  20
HETATM   20  O   UNK     0      21.026  27.698  22.331  0.00  0.00    -0.358 OA
HETATM   21  H   UNK     0      21.121  27.204  23.160  0.00  0.00     0.217 HD
ENDBRANCH  15  20
ENDBRANCH   5  12
BRANCH   6  22
HETATM   22  O   UNK     0      23.437  33.451  22.848  0.00  0.00    -0.355 OA
HETATM   23  H   UNK     0      24.078  33.507  23.576  0.00  0.00     0.218 HD
ENDBRANCH   6  22
BRANCH   8  24
HETATM   24  O   UNK     0      21.680  38.199  24.174  0.00  0.00    -0.360 OA
HETATM   25  H   UNK     0      22.317  37.944  23.490  0.00  0.00     0.217 HD
ENDBRANCH   8  24
BRANCH  10  26
HETATM   26  O   UNK     0      17.097  37.338  25.072  0.00  0.00    -0.361 OA
HETATM   27  H   UNK     0      17.046  38.291  24.883  0.00  0.00     0.217 HD
ENDBRANCH  10  26
TORSDOF 6
ENDMDL
MODEL 3
REMARK VINA RESULT:      -7.2      3.006      6.677
REMARK  6 active torsions:
REMARK  status: ('A' for Active; 'I' for Inactive)
REMARK    1  A    between atoms: O_2  and  C_12 
REMARK    2  A    between atoms: O_3  and  C_14 
REMARK    3  A    between atoms: O_5  and  C_16 
REMARK    4  A    between atoms: O_6  and  C_20 
REMARK    5  A    between atoms: O_7  and  C_22 
REMARK    6  A    between atoms: C_10  and  C_11 
ROOT
HETATM    1  O   UNK     0      22.473  33.638  22.796  0.00  0.00    -0.306 OA
HETATM    2  O   UNK     0      19.864  35.982  24.871  0.00  0.00    -0.284 OA
HETATM    3  C   UNK     0      21.884  35.827  23.662  0.00  0.00     0.084 A 
HETATM    4  C   UNK     0      22.735  34.972  22.965  0.00  0.00     0.096 A 
HETATM    5  C   UNK     0      21.303  33.120  23.331  0.00  0.00     0.123 A 
HETATM    6  C   UNK     0      20.403  33.835  24.032  0.00  0.00     0.152 A 
HETATM    7  C   UNK     0      20.648  35.281  24.244  0.00  0.00     0.223 A 
HETATM    8  C   UNK     0      22.204  37.180  23.803  0.00  0.00     0.085 A 
HETATM    9  C   UNK     0      23.914  35.465  22.406  0.00  0.00     0.075 A 
HETATM   10  C   UNK     0      24.236  36.816  22.545  0.00  0.00     0.071 A 
HETATM   11  C   UNK     0      23.383  37.670  23.243  0.00  0.00     0.074 A 
ENDROOT
BRANCH   5  12
HETATM   12  C   UNK     0      21.144  31.677  23.078  0.00  0.00     0.004 A 
HETATM   13  C   UNK     0      22.143  30.785  23.469  0.00  0.00     0.053 A 
HETATM   14  C   UNK     0      21.992  29.420  23.229  0.00  0.00     0.099 A 
HETATM   15  C   UNK     0      20.841  28.946  22.598  0.00  0.00     0.098 A 
HETATM   16  C   UNK     0      19.842  29.837  22.208  0.00  0.00     0.040 A 
HETATM   17  C   UNK     0      19.993  31.203  22.448  0.00  0.00     0.017 A 
BRANCH  14  18
HETATM   18  O   UNK     0      22.974  28.558  23.612  0.00  0.00    -0.358 OA
HETATM   19  H   UNK     0      22.919  28.402  24.569  0.00  0.00     0.217 HD
ENDBRANCH  14  18
BRANCH  15  20
HETATM   20  O   UNK     0      20.680  27.614  22.361  0.00  0.00    -0.358 OA
HETATM   21  H   UNK     0      20.602  27.138  23.202  0.00  0.00     0.217 HD
ENDBRANCH  15  20
ENDBRANCH   5  12
BRANCH   6  22
HETATM   22  O   UNK     0      19.266  33.282  24.579  0.00  0.00    -0.355 OA
HETATM   23  H   UNK     0      18.662  33.002  23.872  0.00  0.00     0.218 HD
ENDBRANCH   6  22
BRANCH   8  24
HETATM   24  O   UNK     0      21.406  38.057  24.475  0.00  0.00    -0.360 OA
HETATM   25  H   UNK     0      20.707  37.585  24.951  0.00  0.00     0.217 HD
ENDBRANCH   8  24
BRANCH  10  26
HETATM   26  O   UNK     0      25.387  37.298  21.999  0.00  0.00    -0.361 OA
HETATM   27  H   UNK     0      25.321  38.267  21.931  0.00  0.00     0.217 HD
ENDBRANCH  10  26
TORSDOF 6
ENDMDL
MODEL 4
REMARK VINA RESULT:      -7.1     12.648     14.196
REMARK  6 active torsions:
REMARK  status: ('A' for Active; 'I' for Inactive)
REMARK    1  A    between atoms: O_2  and  C_12 
REMARK    2  A    between atoms: O_3  and  C_14 
REMARK    3  A    between atoms: O_5  and  C_16 
REMARK    4  A    between atoms: O_6  and  C_20 
REMARK    5  A    between atoms: O_7  and  C_22 
REMARK    6  A    between atoms: C_10  and  C_11 
ROOT
HETATM    1  O   UNK     0      18.226  45.378  13.302  0.00  0.00    -0.306 OA
HETATM    2  O   UNK     0      19.869  43.070  16.231  0.00  0.00    -0.284 OA
HETATM    3  C   UNK     0      19.037  45.179  15.580  0.00  0.00     0.084 A 
HETATM    4  C   UNK     0      18.478  45.915  14.537  0.00  0.00     0.096 A 
HETATM    5  C   UNK     0      18.527  44.042  13.086  0.00  0.00     0.123 A 
HETATM    6  C   UNK     0      19.076  43.226  14.005  0.00  0.00     0.152 A 
HETATM    7  C   UNK     0      19.372  43.765  15.354  0.00  0.00     0.223 A 
HETATM    8  C   UNK     0      19.274  45.781  16.819  0.00  0.00     0.085 A 
HETATM    9  C   UNK     0      18.155  47.259  14.726  0.00  0.00     0.075 A 
HETATM   10  C   UNK     0      18.390  47.862  15.962  0.00  0.00     0.071 A 
HETATM   11  C   UNK     0      18.948  47.124  17.005  0.00  0.00     0.074 A 
ENDROOT
BRANCH   5  12
HETATM   12  C   UNK     0      18.207  43.593  11.720  0.00  0.00     0.004 A 
HETATM   13  C   UNK     0      17.275  42.575  11.520  0.00  0.00     0.053 A 
HETATM   14  C   UNK     0      16.971  42.150  10.227  0.00  0.00     0.099 A 
HETATM   15  C   UNK     0      17.600  42.745   9.132  0.00  0.00     0.098 A 
HETATM   16  C   UNK     0      18.532  43.763   9.331  0.00  0.00     0.040 A 
HETATM   17  C   UNK     0      18.835  44.188  10.625  0.00  0.00     0.017 A 
BRANCH  14  18
HETATM   18  O   UNK     0      16.061  41.154  10.044  0.00  0.00    -0.358 OA
HETATM   19  H   UNK     0      16.374  40.341  10.473  0.00  0.00     0.217 HD
ENDBRANCH  14  18
BRANCH  15  20
HETATM   20  O   UNK     0      17.310  42.340   7.864  0.00  0.00    -0.358 OA
HETATM   21  H   UNK     0      18.039  41.802   7.517  0.00  0.00     0.217 HD
ENDBRANCH  15  20
ENDBRANCH   5  12
BRANCH   6  22
HETATM   22  O   UNK     0      19.394  41.910  13.748  0.00  0.00    -0.355 OA
HETATM   23  H   UNK     0      18.962  41.619  12.929  0.00  0.00     0.218 HD
ENDBRANCH   6  22
BRANCH   8  24
HETATM   24  O   UNK     0      19.818  45.106  17.871  0.00  0.00    -0.360 OA
HETATM   25  H   UNK     0      20.565  45.600  18.242  0.00  0.00     0.217 HD
ENDBRANCH   8  24
BRANCH  10  26
HETATM   26  O   UNK     0      18.074  49.173  16.148  0.00  0.00    -0.361 OA
HETATM   27  H   UNK     0      18.886  49.667  16.356  0.00  0.00     0.217 HD
ENDBRANCH  10  26
TORSDOF 6
ENDMDL
MODEL 5
REMARK VINA RESULT:      -7.0      2.281      4.079
REMARK  6 active torsions:
REMARK  status: ('A' for Active; 'I' for Inactive)
REMARK    1  A    between atoms: O_2  and  C_12 
REMARK    2  A    between atoms: O_3  and  C_14 
REMARK    3  A    between atoms: O_5  and  C_16 
REMARK    4  A    between atoms: O_6  and  C_20 
REMARK    5  A    between atoms: O_7  and  C_22 
REMARK    6  A    between atoms: C_10  and  C_11 
ROOT
HETATM    1  O   UNK     0      22.987  33.111  22.739  0.00  0.00    -0.306 OA
HETATM    2  O   UNK     0      19.526  34.374  24.481  0.00  0.00    -0.284 OA
HETATM    3  C   UNK     0      20.857  32.563  23.764  0.00  0.00     0.084 A 
HETATM    4  C   UNK     0      22.058  32.196  23.161  0.00  0.00     0.096 A 
HETATM    5  C   UNK     0      22.725  34.458  22.934  0.00  0.00     0.123 A 
HETATM    6  C   UNK     0      21.603  34.944  23.495  0.00  0.00     0.152 A 
HETATM    7  C   UNK     0      20.567  33.991  23.962  0.00  0.00     0.223 A 
HETATM    8  C   UNK     0      19.946  31.585  24.173  0.00  0.00     0.085 A 
HETATM    9  C   UNK     0      22.355  30.847  22.961  0.00  0.00     0.075 A 
HETATM   10  C   UNK     0      21.448  29.869  23.368  0.00  0.00     0.071 A 
HETATM   11  C   UNK     0      20.246  30.238  23.973  0.00  0.00     0.074 A 
ENDROOT
BRANCH   5  12
HETATM   12  C   UNK     0      23.803  35.331  22.436  0.00  0.00     0.004 A 
HETATM   13  C   UNK     0      24.961  35.511  23.193  0.00  0.00     0.053 A 
HETATM   14  C   UNK     0      25.981  36.338  22.722  0.00  0.00     0.099 A 
HETATM   15  C   UNK     0      25.843  36.985  21.493  0.00  0.00     0.098 A 
HETATM   16  C   UNK     0      24.686  36.804  20.736  0.00  0.00     0.040 A 
HETATM   17  C   UNK     0      23.665  35.978  21.207  0.00  0.00     0.017 A 
BRANCH  14  18
HETATM   18  O   UNK     0      27.106  36.508  23.470  0.00  0.00    -0.358 OA
HETATM   19  H   UNK     0      27.368  35.661  23.866  0.00  0.00     0.217 HD
ENDBRANCH  14  18
BRANCH  15  20
HETATM   20  O   UNK     0      26.834  37.793  21.021  0.00  0.00    -0.358 OA
HETATM   21  H   UNK     0      27.612  37.259  20.798  0.00  0.00     0.217 HD
ENDBRANCH  15  20
ENDBRANCH   5  12
BRANCH   6  22
HETATM   22  O   UNK     0      21.358  36.292  23.644  0.00  0.00    -0.355 OA
HETATM   23  H   UNK     0      22.189  36.788  23.569  0.00  0.00     0.218 HD
ENDBRANCH   6  22
BRANCH   8  24
HETATM   24  O   UNK     0      18.758  31.891  24.768  0.00  0.00    -0.360 OA
HETATM   25  H   UNK     0      18.022  31.735  24.157  0.00  0.00     0.217 HD
ENDBRANCH   8  24
BRANCH  10  26
HETATM   26  O   UNK     0      21.737  28.553  23.174  0.00  0.00    -0.361 OA
HETATM   27  H   UNK     0      21.404  28.283  22.301  0.00  0.00     0.217 HD
ENDBRANCH  10  26
TORSDOF 6
ENDMDL
MODEL 6
REMARK VINA RESULT:      -7.0      9.717     11.303
REMARK  6 active torsions:
REMARK  status: ('A' for Active; 'I' for Inactive)
REMARK    1  A    between atoms: O_2  and  C_12 
REMARK    2  A    between atoms: O_3  and  C_14 
REMARK    3  A    between atoms: O_5  and  C_16 
REMARK    4  A    between atoms: O_6  and  C_20 
REMARK    5  A    between atoms: O_7  and  C_22 
REMARK    6  A    between atoms: C_10  and  C_11 
ROOT
HETATM    1  O   UNK     0      20.166  45.363  17.727  0.00  0.00    -0.306 OA
HETATM    2  O   UNK     0      19.926  43.425  14.150  0.00  0.00    -0.284 OA
HETATM    3  C   UNK     0      19.420  45.348  15.418  0.00  0.00     0.084 A 
HETATM    4  C   UNK     0      19.535  45.957  16.666  0.00  0.00     0.096 A 
HETATM    5  C   UNK     0      20.726  44.107  17.546  0.00  0.00     0.123 A 
HETATM    6  C   UNK     0      20.678  43.410  16.396  0.00  0.00     0.152 A 
HETATM    7  C   UNK     0      20.000  44.011  15.222  0.00  0.00     0.223 A 
HETATM    8  C   UNK     0      18.764  46.003  14.372  0.00  0.00     0.085 A 
HETATM    9  C   UNK     0      18.991  47.225  16.877  0.00  0.00     0.075 A 
HETATM   10  C   UNK     0      18.335  47.880  15.835  0.00  0.00     0.071 A 
HETATM   11  C   UNK     0      18.222  47.270  14.586  0.00  0.00     0.074 A 
ENDROOT
BRANCH   5  12
HETATM   12  C   UNK     0      21.373  43.584  18.762  0.00  0.00     0.004 A 
HETATM   13  C   UNK     0      21.213  42.245  19.116  0.00  0.00     0.053 A 
HETATM   14  C   UNK     0      21.826  41.750  20.268  0.00  0.00     0.099 A 
HETATM   15  C   UNK     0      22.599  42.596  21.065  0.00  0.00     0.098 A 
HETATM   16  C   UNK     0      22.759  43.935  20.710  0.00  0.00     0.040 A 
HETATM   17  C   UNK     0      22.146  44.430  19.558  0.00  0.00     0.017 A 
BRANCH  14  18
HETATM   18  O   UNK     0      21.662  40.441  20.606  0.00  0.00    -0.358 OA
HETATM   19  H   UNK     0      22.186  40.238  21.397  0.00  0.00     0.217 HD
ENDBRANCH  14  18
BRANCH  15  20
HETATM   20  O   UNK     0      23.204  42.124  22.190  0.00  0.00    -0.358 OA
HETATM   21  H   UNK     0      22.943  42.663  22.953  0.00  0.00     0.217 HD
ENDBRANCH  15  20
ENDBRANCH   5  12
BRANCH   6  22
HETATM   22  O   UNK     0      21.216  42.149  16.257  0.00  0.00    -0.355 OA
HETATM   23  H   UNK     0      20.584  41.483  16.575  0.00  0.00     0.218 HD
ENDBRANCH   6  22
BRANCH   8  24
HETATM   24  O   UNK     0      18.624  45.452  13.133  0.00  0.00    -0.360 OA
HETATM   25  H   UNK     0      19.482  45.159  12.793  0.00  0.00     0.217 HD
ENDBRANCH   8  24
BRANCH  10  26
HETATM   26  O   UNK     0      17.804  49.118  16.039  0.00  0.00    -0.361 OA
HETATM   27  H   UNK     0      17.095  49.267  15.390  0.00  0.00     0.217 HD
ENDBRANCH  10  26
TORSDOF 6
ENDMDL
MODEL 7
REMARK VINA RESULT:      -7.0      8.433     10.540
REMARK  6 active torsions:
REMARK  status: ('A' for Active; 'I' for Inactive)
REMARK    1  A    between atoms: O_2  and  C_12 
REMARK    2  A    between atoms: O_3  and  C_14 
REMARK    3  A    between atoms: O_5  and  C_16 
REMARK    4  A    between atoms: O_6  and  C_20 
REMARK    5  A    between atoms: O_7  and  C_22 
REMARK    6  A    between atoms: C_10  and  C_11 
ROOT
HETATM    1  O   UNK     0      20.237  43.126  18.476  0.00  0.00    -0.306 OA
HETATM    2  O   UNK     0      17.393  40.255  17.956  0.00  0.00    -0.284 OA
HETATM    3  C   UNK     0      19.525  40.827  18.787  0.00  0.00     0.084 A 
HETATM    4  C   UNK     0      20.457  41.853  18.933  0.00  0.00     0.096 A 
HETATM    5  C   UNK     0      19.030  43.408  17.856  0.00  0.00     0.123 A 
HETATM    6  C   UNK     0      18.052  42.508  17.646  0.00  0.00     0.152 A 
HETATM    7  C   UNK     0      18.247  41.116  18.118  0.00  0.00     0.223 A 
HETATM    8  C   UNK     0      19.804  39.547  19.271  0.00  0.00     0.085 A 
HETATM    9  C   UNK     0      21.677  41.603  19.562  0.00  0.00     0.075 A 
HETATM   10  C   UNK     0      21.958  40.326  20.047  0.00  0.00     0.071 A 
HETATM   11  C   UNK     0      21.024  39.300  19.901  0.00  0.00     0.074 A 
ENDROOT
BRANCH   5  12
HETATM   12  C   UNK     0      18.923  44.810  17.415  0.00  0.00     0.004 A 
HETATM   13  C   UNK     0      19.113  45.136  16.072  0.00  0.00     0.053 A 
HETATM   14  C   UNK     0      19.012  46.463  15.655  0.00  0.00     0.099 A 
HETATM   15  C   UNK     0      18.720  47.465  16.582  0.00  0.00     0.098 A 
HETATM   16  C   UNK     0      18.529  47.139  17.925  0.00  0.00     0.040 A 
HETATM   17  C   UNK     0      18.631  45.811  18.341  0.00  0.00     0.017 A 
BRANCH  14  18
HETATM   18  O   UNK     0      19.202  46.771  14.342  0.00  0.00    -0.358 OA
HETATM   19  H   UNK     0      18.369  47.089  13.956  0.00  0.00     0.217 HD
ENDBRANCH  14  18
BRANCH  15  20
HETATM   20  O   UNK     0      18.616  48.765  16.187  0.00  0.00    -0.358 OA
HETATM   21  H   UNK     0      18.469  49.332  16.960  0.00  0.00     0.217 HD
ENDBRANCH  15  20
ENDBRANCH   5  12
BRANCH   6  22
HETATM   22  O   UNK     0      16.876  42.812  16.995  0.00  0.00    -0.355 OA
HETATM   23  H   UNK     0      16.876  43.747  16.733  0.00  0.00     0.218 HD
ENDBRANCH   6  22
BRANCH   8  24
HETATM   24  O   UNK     0      18.928  38.510  19.155  0.00  0.00    -0.360 OA
HETATM   25  H   UNK     0      18.546  38.288  20.018  0.00  0.00     0.217 HD
ENDBRANCH   8  24
BRANCH  10  26
HETATM   26  O   UNK     0      23.149  40.081  20.662  0.00  0.00    -0.361 OA
HETATM   27  H   UNK     0      23.867  40.198  20.016  0.00  0.00     0.217 HD
ENDBRANCH  10  26
TORSDOF 6
ENDMDL
MODEL 8
REMARK VINA RESULT:      -7.0     18.318     21.566
REMARK  6 active torsions:
REMARK  status: ('A' for Active; 'I' for Inactive)
REMARK    1  A    between atoms: O_2  and  C_12 
REMARK    2  A    between atoms: O_3  and  C_14 
REMARK    3  A    between atoms: O_5  and  C_16 
REMARK    4  A    between atoms: O_6  and  C_20 
REMARK    5  A    between atoms: O_7  and  C_22 
REMARK    6  A    between atoms: C_10  and  C_11 
ROOT
HETATM    1  O   UNK     0       6.827  39.008  11.247  0.00  0.00    -0.306 OA
HETATM    2  O   UNK     0       6.023  35.878  13.729  0.00  0.00    -0.284 OA
HETATM    3  C   UNK     0       7.629  37.355  12.832  0.00  0.00     0.084 A 
HETATM    4  C   UNK     0       7.838  38.426  11.966  0.00  0.00     0.096 A 
HETATM    5  C   UNK     0       5.540  38.518  11.398  0.00  0.00     0.123 A 
HETATM    6  C   UNK     0       5.206  37.485  12.194  0.00  0.00     0.152 A 
HETATM    7  C   UNK     0       6.267  36.821  12.987  0.00  0.00     0.223 A 
HETATM    8  C   UNK     0       8.699  36.800  13.539  0.00  0.00     0.085 A 
HETATM    9  C   UNK     0       9.121  38.949  11.801  0.00  0.00     0.075 A 
HETATM   10  C   UNK     0      10.191  38.398  12.505  0.00  0.00     0.071 A 
HETATM   11  C   UNK     0       9.980  37.326  13.372  0.00  0.00     0.074 A 
ENDROOT
BRANCH   5  12
HETATM   12  C   UNK     0       4.551  39.231  10.571  0.00  0.00     0.004 A 
HETATM   13  C   UNK     0       4.436  38.938   9.212  0.00  0.00     0.053 A 
HETATM   14  C   UNK     0       3.500  39.614   8.429  0.00  0.00     0.099 A 
HETATM   15  C   UNK     0       2.679  40.583   9.006  0.00  0.00     0.098 A 
HETATM   16  C   UNK     0       2.793  40.876  10.364  0.00  0.00     0.040 A 
HETATM   17  C   UNK     0       3.729  40.200  11.147  0.00  0.00     0.017 A 
BRANCH  14  18
HETATM   18  O   UNK     0       3.398  39.321   7.103  0.00  0.00    -0.358 OA
HETATM   19  H   UNK     0       2.479  39.095   6.886  0.00  0.00     0.217 HD
ENDBRANCH  14  18
BRANCH  15  20
HETATM   20  O   UNK     0       1.759  41.248   8.252  0.00  0.00    -0.358 OA
HETATM   21  H   UNK     0       1.730  42.181   8.518  0.00  0.00     0.217 HD
ENDBRANCH  15  20
ENDBRANCH   5  12
BRANCH   6  22
HETATM   22  O   UNK     0       3.920  37.000  12.297  0.00  0.00    -0.355 OA
HETATM   23  H   UNK     0       3.932  36.029  12.288  0.00  0.00     0.218 HD
ENDBRANCH   6  22
BRANCH   8  24
HETATM   24  O   UNK     0       8.548  35.753  14.398  0.00  0.00    -0.360 OA
HETATM   25  H   UNK     0       9.172  35.044  14.182  0.00  0.00     0.217 HD
ENDBRANCH   8  24
BRANCH  10  26
HETATM   26  O   UNK     0      11.444  38.907  12.345  0.00  0.00    -0.361 OA
HETATM   27  H   UNK     0      11.789  38.628  11.479  0.00  0.00     0.217 HD
ENDBRANCH  10  26
TORSDOF 6
ENDMDL
MODEL 9
REMARK VINA RESULT:      -6.9      8.619     10.578
REMARK  6 active torsions:
REMARK  status: ('A' for Active; 'I' for Inactive)
REMARK    1  A    between atoms: O_2  and  C_12 
REMARK    2  A    between atoms: O_3  and  C_14 
REMARK    3  A    between atoms: O_5  and  C_16 
REMARK    4  A    between atoms: O_6  and  C_20 
REMARK    5  A    between atoms: O_7  and  C_22 
REMARK    6  A    between atoms: C_10  and  C_11 
ROOT
HETATM    1  O   UNK     0      18.707  42.948  18.082  0.00  0.00    -0.306 OA
HETATM    2  O   UNK     0      22.518  41.922  19.096  0.00  0.00    -0.284 OA
HETATM    3  C   UNK     0      20.262  41.268  18.890  0.00  0.00     0.084 A 
HETATM    4  C   UNK     0      18.981  41.682  18.529  0.00  0.00     0.096 A 
HETATM    5  C   UNK     0      19.753  43.851  17.972  0.00  0.00     0.123 A 
HETATM    6  C   UNK     0      21.031  43.581  18.296  0.00  0.00     0.152 A 
HETATM    7  C   UNK     0      21.374  42.226  18.789  0.00  0.00     0.223 A 
HETATM    8  C   UNK     0      20.481  39.964  19.340  0.00  0.00     0.085 A 
HETATM    9  C   UNK     0      17.909  40.792  18.618  0.00  0.00     0.075 A 
HETATM   10  C   UNK     0      18.125  39.489  19.068  0.00  0.00     0.071 A 
HETATM   11  C   UNK     0      19.408  39.077  19.428  0.00  0.00     0.074 A 
ENDROOT
BRANCH   5  12
HETATM   12  C   UNK     0      19.323  45.172  17.481  0.00  0.00     0.004 A 
HETATM   13  C   UNK     0      19.439  45.485  16.127  0.00  0.00     0.053 A 
HETATM   14  C   UNK     0      19.031  46.735  15.662  0.00  0.00     0.099 A 
HETATM   15  C   UNK     0      18.507  47.673  16.552  0.00  0.00     0.098 A 
HETATM   16  C   UNK     0      18.390  47.360  17.906  0.00  0.00     0.040 A 
HETATM   17  C   UNK     0      18.798  46.110  18.371  0.00  0.00     0.017 A 
BRANCH  14  18
HETATM   18  O   UNK     0      19.151  47.031  14.338  0.00  0.00    -0.358 OA
HETATM   19  H   UNK     0      18.477  46.550  13.832  0.00  0.00     0.217 HD
ENDBRANCH  14  18
BRANCH  15  20
HETATM   20  O   UNK     0      18.104  48.897  16.110  0.00  0.00    -0.358 OA
HETATM   21  H   UNK     0      18.490  49.591  16.667  0.00  0.00     0.217 HD
ENDBRANCH  15  20
ENDBRANCH   5  12
BRANCH   6  22
HETATM   22  O   UNK     0      22.043  44.513  18.206  0.00  0.00    -0.355 OA
HETATM   23  H   UNK     0      22.744  44.301  18.843  0.00  0.00     0.218 HD
ENDBRANCH   6  22
BRANCH   8  24
HETATM   24  O   UNK     0      21.712  39.510  19.705  0.00  0.00    -0.360 OA
HETATM   25  H   UNK     0      22.365  39.707  19.017  0.00  0.00     0.217 HD
ENDBRANCH   8  24
BRANCH  10  26
HETATM   26  O   UNK     0      17.080  38.620  19.155  0.00  0.00    -0.361 OA
HETATM   27  H   UNK     0      17.365  37.751  18.824  0.00  0.00     0.217 HD
ENDBRANCH  10  26
TORSDOF 6
ENDMDL
MODEL 10
REMARK VINA RESULT:      -6.9     23.045     24.490
REMARK  6 active torsions:
REMARK  status: ('A' for Active; 'I' for Inactive)
REMARK    1  A    between atoms: O_2  and  C_12 
REMARK    2  A    between atoms: O_3  and  C_14 
REMARK    3  A    between atoms: O_5  and  C_16 
REMARK    4  A    between atoms: O_6  and  C_20 
REMARK    5  A    between atoms: O_7  and  C_22 
REMARK    6  A    between atoms: C_10  and  C_11 
ROOT
HETATM    1  O   UNK     0      11.739  23.389   6.904  0.00  0.00    -0.306 OA
HETATM    2  O   UNK     0      11.110  23.643   2.886  0.00  0.00    -0.284 OA
HETATM    3  C   UNK     0      10.760  24.572   5.025  0.00  0.00     0.084 A 
HETATM    4  C   UNK     0      11.010  24.428   6.388  0.00  0.00     0.096 A 
HETATM    5  C   UNK     0      12.262  22.449   6.029  0.00  0.00     0.123 A 
HETATM    6  C   UNK     0      12.088  22.468   4.695  0.00  0.00     0.152 A 
HETATM    7  C   UNK     0      11.300  23.571   4.092  0.00  0.00     0.223 A 
HETATM    8  C   UNK     0      10.007  25.652   4.556  0.00  0.00     0.085 A 
HETATM    9  C   UNK     0      10.505  25.363   7.293  0.00  0.00     0.075 A 
HETATM   10  C   UNK     0       9.754  26.442   6.828  0.00  0.00     0.071 A 
HETATM   11  C   UNK     0       9.505  26.586   5.463  0.00  0.00     0.074 A 
ENDROOT
BRANCH   5  12
HETATM   12  C   UNK     0      13.024  21.388   6.712  0.00  0.00     0.004 A 
HETATM   13  C   UNK     0      12.434  20.147   6.948  0.00  0.00     0.053 A 
HETATM   14  C   UNK     0      13.156  19.143   7.594  0.00  0.00     0.099 A 
HETATM   15  C   UNK     0      14.468  19.381   8.004  0.00  0.00     0.098 A 
HETATM   16  C   UNK     0      15.058  20.623   7.768  0.00  0.00     0.040 A 
HETATM   17  C   UNK     0      14.336  21.626   7.122  0.00  0.00     0.017 A 
BRANCH  14  18
HETATM   18  O   UNK     0      12.569  17.935   7.821  0.00  0.00    -0.358 OA
HETATM   19  H   UNK     0      12.872  17.293   7.159  0.00  0.00     0.217 HD
ENDBRANCH  14  18
BRANCH  15  20
HETATM   20  O   UNK     0      15.184  18.408   8.634  0.00  0.00    -0.358 OA
HETATM   21  H   UNK     0      15.180  18.566   9.592  0.00  0.00     0.217 HD
ENDBRANCH  15  20
ENDBRANCH   5  12
BRANCH   6  22
HETATM   22  O   UNK     0      12.594  21.500   3.855  0.00  0.00    -0.355 OA
HETATM   23  H   UNK     0      13.564  21.505   3.892  0.00  0.00     0.218 HD
ENDBRANCH   6  22
BRANCH   8  24
HETATM   24  O   UNK     0       9.735  25.840   3.234  0.00  0.00    -0.360 OA
HETATM   25  H   UNK     0      10.482  25.551   2.689  0.00  0.00     0.217 HD
ENDBRANCH   8  24
BRANCH  10  26
HETATM   26  O   UNK     0       9.262  27.356   7.710  0.00  0.00    -0.361 OA
HETATM   27  H   UNK     0       9.286  28.237   7.297  0.00  0.00     0.217 HD
ENDBRANCH  10  26
TORSDOF 6
ENDMDL
