REMARK VINA RESULT:      -6.9     23.045     24.490
REMARK  6 active torsions:
REMARK  status: ('A' for Active; 'I' for Inactive)
REMARK    1  A    between atoms: O_2  and  C_12 
REMARK    2  A    between atoms: O_3  and  C_14 
REMARK    3  A    between atoms: O_5  and  C_16 
REMARK    4  A    between atoms: O_6  and  C_20 
REMARK    5  A    between atoms: O_7  and  C_22 
REMARK    6  A    between atoms: C_10  and  C_11 
ROOT
HETATM    1  O   UNK     0      11.739  23.389   6.904  0.00  0.00    -0.306 OA
HETATM    2  O   UNK     0      11.110  23.643   2.886  0.00  0.00    -0.284 OA
HETATM    3  C   UNK     0      10.760  24.572   5.025  0.00  0.00     0.084 A 
HETATM    4  C   UNK     0      11.010  24.428   6.388  0.00  0.00     0.096 A 
HETATM    5  C   UNK     0      12.262  22.449   6.029  0.00  0.00     0.123 A 
HETATM    6  C   UNK     0      12.088  22.468   4.695  0.00  0.00     0.152 A 
HETATM    7  C   UNK     0      11.300  23.571   4.092  0.00  0.00     0.223 A 
HETATM    8  C   UNK     0      10.007  25.652   4.556  0.00  0.00     0.085 A 
HETATM    9  C   UNK     0      10.505  25.363   7.293  0.00  0.00     0.075 A 
HETATM   10  C   UNK     0       9.754  26.442   6.828  0.00  0.00     0.071 A 
HETATM   11  C   UNK     0       9.505  26.586   5.463  0.00  0.00     0.074 A 
ENDROOT
BRANCH   5  12
HETATM   12  C   UNK     0      13.024  21.388   6.712  0.00  0.00     0.004 A 
HETATM   13  C   UNK     0      12.434  20.147   6.948  0.00  0.00     0.053 A 
HETATM   14  C   UNK     0      13.156  19.143   7.594  0.00  0.00     0.099 A 
HETATM   15  C   UNK     0      14.468  19.381   8.004  0.00  0.00     0.098 A 
HETATM   16  C   UNK     0      15.058  20.623   7.768  0.00  0.00     0.040 A 
HETATM   17  C   UNK     0      14.336  21.626   7.122  0.00  0.00     0.017 A 
BRANCH  14  18
HETATM   18  O   UNK     0      12.569  17.935   7.821  0.00  0.00    -0.358 OA
HETATM   19  H   UNK     0      12.872  17.293   7.159  0.00  0.00     0.217 HD
ENDBRANCH  14  18
BRANCH  15  20
HETATM   20  O   UNK     0      15.184  18.408   8.634  0.00  0.00    -0.358 OA
HETATM   21  H   UNK     0      15.180  18.566   9.592  0.00  0.00     0.217 HD
ENDBRANCH  15  20
ENDBRANCH   5  12
BRANCH   6  22
HETATM   22  O   UNK     0      12.594  21.500   3.855  0.00  0.00    -0.355 OA
HETATM   23  H   UNK     0      13.564  21.505   3.892  0.00  0.00     0.218 HD
ENDBRANCH   6  22
BRANCH   8  24
HETATM   24  O   UNK     0       9.735  25.840   3.234  0.00  0.00    -0.360 OA
HETATM   25  H   UNK     0      10.482  25.551   2.689  0.00  0.00     0.217 HD
ENDBRANCH   8  24
BRANCH  10  26
HETATM   26  O   UNK     0       9.262  27.356   7.710  0.00  0.00    -0.361 OA
HETATM   27  H   UNK     0       9.286  28.237   7.297  0.00  0.00     0.217 HD
ENDBRANCH  10  26
TORSDOF 6
