REMARK VINA RESULT:      -7.4      0.000      0.000
REMARK  6 active torsions:
REMARK  status: ('A' for Active; 'I' for Inactive)
REMARK    1  A    between atoms: O_2  and  C_12 
REMARK    2  A    between atoms: O_3  and  C_14 
REMARK    3  A    between atoms: O_5  and  C_16 
REMARK    4  A    between atoms: O_6  and  C_20 
REMARK    5  A    between atoms: O_7  and  C_22 
REMARK    6  A    between atoms: C_10  and  C_11 
ROOT
HETATM    1  O   UNK     0      22.804  36.868  22.569  0.00  0.00    -0.306 OA
HETATM    2  O   UNK     0      22.038  33.004  23.612  0.00  0.00    -0.284 OA
HETATM    3  C   UNK     0      21.250  35.220  23.443  0.00  0.00     0.084 A 
HETATM    4  C   UNK     0      21.575  36.523  23.069  0.00  0.00     0.096 A 
HETATM    5  C   UNK     0      23.759  35.875  22.417  0.00  0.00     0.123 A 
HETATM    6  C   UNK     0      23.575  34.583  22.746  0.00  0.00     0.152 A 
HETATM    7  C   UNK     0      22.263  34.164  23.296  0.00  0.00     0.223 A 
HETATM    8  C   UNK     0      19.981  34.928  23.948  0.00  0.00     0.085 A 
HETATM    9  C   UNK     0      20.632  37.543  23.201  0.00  0.00     0.075 A 
HETATM   10  C   UNK     0      19.364  37.253  23.705  0.00  0.00     0.071 A 
HETATM   11  C   UNK     0      19.040  35.949  24.078  0.00  0.00     0.074 A 
ENDROOT
BRANCH   5  12
HETATM   12  C   UNK     0      25.031  36.379  21.871  0.00  0.00     0.004 A 
HETATM   13  C   UNK     0      26.024  36.845  22.732  0.00  0.00     0.053 A 
HETATM   14  C   UNK     0      27.229  37.322  22.214  0.00  0.00     0.099 A 
HETATM   15  C   UNK     0      27.439  37.333  20.835  0.00  0.00     0.098 A 
HETATM   16  C   UNK     0      26.446  36.867  19.974  0.00  0.00     0.040 A 
HETATM   17  C   UNK     0      25.242  36.389  20.491  0.00  0.00     0.017 A 
BRANCH  14  18
HETATM   18  O   UNK     0      28.191  37.777  23.064  0.00  0.00    -0.358 OA
HETATM   19  H   UNK     0      28.902  38.203  22.558  0.00  0.00     0.217 HD
ENDBRANCH  14  18
BRANCH  15  20
HETATM   20  O   UNK     0      28.613  37.795  20.318  0.00  0.00    -0.358 OA
HETATM   21  H   UNK     0      28.946  38.525  20.862  0.00  0.00     0.217 HD
ENDBRANCH  15  20
ENDBRANCH   5  12
BRANCH   6  22
HETATM   22  O   UNK     0      24.557  33.625  22.613  0.00  0.00    -0.355 OA
HETATM   23  H   UNK     0      24.184  32.824  22.211  0.00  0.00     0.218 HD
ENDBRANCH   6  22
BRANCH   8  24
HETATM   24  O   UNK     0      19.613  33.672  24.327  0.00  0.00    -0.360 OA
HETATM   25  H   UNK     0      19.746  33.551  25.279  0.00  0.00     0.217 HD
ENDBRANCH   8  24
BRANCH  10  26
HETATM   26  O   UNK     0      18.442  38.248  23.834  0.00  0.00    -0.361 OA
HETATM   27  H   UNK     0      18.797  38.931  24.428  0.00  0.00     0.217 HD
ENDBRANCH  10  26
TORSDOF 6
