REMARK VINA RESULT:      -6.9      8.619     10.578
REMARK  6 active torsions:
REMARK  status: ('A' for Active; 'I' for Inactive)
REMARK    1  A    between atoms: O_2  and  C_12 
REMARK    2  A    between atoms: O_3  and  C_14 
REMARK    3  A    between atoms: O_5  and  C_16 
REMARK    4  A    between atoms: O_6  and  C_20 
REMARK    5  A    between atoms: O_7  and  C_22 
REMARK    6  A    between atoms: C_10  and  C_11 
ROOT
HETATM    1  O   UNK     0      18.707  42.948  18.082  0.00  0.00    -0.306 OA
HETATM    2  O   UNK     0      22.518  41.922  19.096  0.00  0.00    -0.284 OA
HETATM    3  C   UNK     0      20.262  41.268  18.890  0.00  0.00     0.084 A 
HETATM    4  C   UNK     0      18.981  41.682  18.529  0.00  0.00     0.096 A 
HETATM    5  C   UNK     0      19.753  43.851  17.972  0.00  0.00     0.123 A 
HETATM    6  C   UNK     0      21.031  43.581  18.296  0.00  0.00     0.152 A 
HETATM    7  C   UNK     0      21.374  42.226  18.789  0.00  0.00     0.223 A 
HETATM    8  C   UNK     0      20.481  39.964  19.340  0.00  0.00     0.085 A 
HETATM    9  C   UNK     0      17.909  40.792  18.618  0.00  0.00     0.075 A 
HETATM   10  C   UNK     0      18.125  39.489  19.068  0.00  0.00     0.071 A 
HETATM   11  C   UNK     0      19.408  39.077  19.428  0.00  0.00     0.074 A 
ENDROOT
BRANCH   5  12
HETATM   12  C   UNK     0      19.323  45.172  17.481  0.00  0.00     0.004 A 
HETATM   13  C   UNK     0      19.439  45.485  16.127  0.00  0.00     0.053 A 
HETATM   14  C   UNK     0      19.031  46.735  15.662  0.00  0.00     0.099 A 
HETATM   15  C   UNK     0      18.507  47.673  16.552  0.00  0.00     0.098 A 
HETATM   16  C   UNK     0      18.390  47.360  17.906  0.00  0.00     0.040 A 
HETATM   17  C   UNK     0      18.798  46.110  18.371  0.00  0.00     0.017 A 
BRANCH  14  18
HETATM   18  O   UNK     0      19.151  47.031  14.338  0.00  0.00    -0.358 OA
HETATM   19  H   UNK     0      18.477  46.550  13.832  0.00  0.00     0.217 HD
ENDBRANCH  14  18
BRANCH  15  20
HETATM   20  O   UNK     0      18.104  48.897  16.110  0.00  0.00    -0.358 OA
HETATM   21  H   UNK     0      18.490  49.591  16.667  0.00  0.00     0.217 HD
ENDBRANCH  15  20
ENDBRANCH   5  12
BRANCH   6  22
HETATM   22  O   UNK     0      22.043  44.513  18.206  0.00  0.00    -0.355 OA
HETATM   23  H   UNK     0      22.744  44.301  18.843  0.00  0.00     0.218 HD
ENDBRANCH   6  22
BRANCH   8  24
HETATM   24  O   UNK     0      21.712  39.510  19.705  0.00  0.00    -0.360 OA
HETATM   25  H   UNK     0      22.365  39.707  19.017  0.00  0.00     0.217 HD
ENDBRANCH   8  24
BRANCH  10  26
HETATM   26  O   UNK     0      17.080  38.620  19.155  0.00  0.00    -0.361 OA
HETATM   27  H   UNK     0      17.365  37.751  18.824  0.00  0.00     0.217 HD
ENDBRANCH  10  26
TORSDOF 6
