REMARK VINA RESULT:      -7.2      3.006      6.677
REMARK  6 active torsions:
REMARK  status: ('A' for Active; 'I' for Inactive)
REMARK    1  A    between atoms: O_2  and  C_12 
REMARK    2  A    between atoms: O_3  and  C_14 
REMARK    3  A    between atoms: O_5  and  C_16 
REMARK    4  A    between atoms: O_6  and  C_20 
REMARK    5  A    between atoms: O_7  and  C_22 
REMARK    6  A    between atoms: C_10  and  C_11 
ROOT
HETATM    1  O   UNK     0      22.473  33.638  22.796  0.00  0.00    -0.306 OA
HETATM    2  O   UNK     0      19.864  35.982  24.871  0.00  0.00    -0.284 OA
HETATM    3  C   UNK     0      21.884  35.827  23.662  0.00  0.00     0.084 A 
HETATM    4  C   UNK     0      22.735  34.972  22.965  0.00  0.00     0.096 A 
HETATM    5  C   UNK     0      21.303  33.120  23.331  0.00  0.00     0.123 A 
HETATM    6  C   UNK     0      20.403  33.835  24.032  0.00  0.00     0.152 A 
HETATM    7  C   UNK     0      20.648  35.281  24.244  0.00  0.00     0.223 A 
HETATM    8  C   UNK     0      22.204  37.180  23.803  0.00  0.00     0.085 A 
HETATM    9  C   UNK     0      23.914  35.465  22.406  0.00  0.00     0.075 A 
HETATM   10  C   UNK     0      24.236  36.816  22.545  0.00  0.00     0.071 A 
HETATM   11  C   UNK     0      23.383  37.670  23.243  0.00  0.00     0.074 A 
ENDROOT
BRANCH   5  12
HETATM   12  C   UNK     0      21.144  31.677  23.078  0.00  0.00     0.004 A 
HETATM   13  C   UNK     0      22.143  30.785  23.469  0.00  0.00     0.053 A 
HETATM   14  C   UNK     0      21.992  29.420  23.229  0.00  0.00     0.099 A 
HETATM   15  C   UNK     0      20.841  28.946  22.598  0.00  0.00     0.098 A 
HETATM   16  C   UNK     0      19.842  29.837  22.208  0.00  0.00     0.040 A 
HETATM   17  C   UNK     0      19.993  31.203  22.448  0.00  0.00     0.017 A 
BRANCH  14  18
HETATM   18  O   UNK     0      22.974  28.558  23.612  0.00  0.00    -0.358 OA
HETATM   19  H   UNK     0      22.919  28.402  24.569  0.00  0.00     0.217 HD
ENDBRANCH  14  18
BRANCH  15  20
HETATM   20  O   UNK     0      20.680  27.614  22.361  0.00  0.00    -0.358 OA
HETATM   21  H   UNK     0      20.602  27.138  23.202  0.00  0.00     0.217 HD
ENDBRANCH  15  20
ENDBRANCH   5  12
BRANCH   6  22
HETATM   22  O   UNK     0      19.266  33.282  24.579  0.00  0.00    -0.355 OA
HETATM   23  H   UNK     0      18.662  33.002  23.872  0.00  0.00     0.218 HD
ENDBRANCH   6  22
BRANCH   8  24
HETATM   24  O   UNK     0      21.406  38.057  24.475  0.00  0.00    -0.360 OA
HETATM   25  H   UNK     0      20.707  37.585  24.951  0.00  0.00     0.217 HD
ENDBRANCH   8  24
BRANCH  10  26
HETATM   26  O   UNK     0      25.387  37.298  21.999  0.00  0.00    -0.361 OA
HETATM   27  H   UNK     0      25.321  38.267  21.931  0.00  0.00     0.217 HD
ENDBRANCH  10  26
TORSDOF 6
