REMARK VINA RESULT:      -7.0     18.318     21.566
REMARK  6 active torsions:
REMARK  status: ('A' for Active; 'I' for Inactive)
REMARK    1  A    between atoms: O_2  and  C_12 
REMARK    2  A    between atoms: O_3  and  C_14 
REMARK    3  A    between atoms: O_5  and  C_16 
REMARK    4  A    between atoms: O_6  and  C_20 
REMARK    5  A    between atoms: O_7  and  C_22 
REMARK    6  A    between atoms: C_10  and  C_11 
ROOT
HETATM    1  O   UNK     0       6.827  39.008  11.247  0.00  0.00    -0.306 OA
HETATM    2  O   UNK     0       6.023  35.878  13.729  0.00  0.00    -0.284 OA
HETATM    3  C   UNK     0       7.629  37.355  12.832  0.00  0.00     0.084 A 
HETATM    4  C   UNK     0       7.838  38.426  11.966  0.00  0.00     0.096 A 
HETATM    5  C   UNK     0       5.540  38.518  11.398  0.00  0.00     0.123 A 
HETATM    6  C   UNK     0       5.206  37.485  12.194  0.00  0.00     0.152 A 
HETATM    7  C   UNK     0       6.267  36.821  12.987  0.00  0.00     0.223 A 
HETATM    8  C   UNK     0       8.699  36.800  13.539  0.00  0.00     0.085 A 
HETATM    9  C   UNK     0       9.121  38.949  11.801  0.00  0.00     0.075 A 
HETATM   10  C   UNK     0      10.191  38.398  12.505  0.00  0.00     0.071 A 
HETATM   11  C   UNK     0       9.980  37.326  13.372  0.00  0.00     0.074 A 
ENDROOT
BRANCH   5  12
HETATM   12  C   UNK     0       4.551  39.231  10.571  0.00  0.00     0.004 A 
HETATM   13  C   UNK     0       4.436  38.938   9.212  0.00  0.00     0.053 A 
HETATM   14  C   UNK     0       3.500  39.614   8.429  0.00  0.00     0.099 A 
HETATM   15  C   UNK     0       2.679  40.583   9.006  0.00  0.00     0.098 A 
HETATM   16  C   UNK     0       2.793  40.876  10.364  0.00  0.00     0.040 A 
HETATM   17  C   UNK     0       3.729  40.200  11.147  0.00  0.00     0.017 A 
BRANCH  14  18
HETATM   18  O   UNK     0       3.398  39.321   7.103  0.00  0.00    -0.358 OA
HETATM   19  H   UNK     0       2.479  39.095   6.886  0.00  0.00     0.217 HD
ENDBRANCH  14  18
BRANCH  15  20
HETATM   20  O   UNK     0       1.759  41.248   8.252  0.00  0.00    -0.358 OA
HETATM   21  H   UNK     0       1.730  42.181   8.518  0.00  0.00     0.217 HD
ENDBRANCH  15  20
ENDBRANCH   5  12
BRANCH   6  22
HETATM   22  O   UNK     0       3.920  37.000  12.297  0.00  0.00    -0.355 OA
HETATM   23  H   UNK     0       3.932  36.029  12.288  0.00  0.00     0.218 HD
ENDBRANCH   6  22
BRANCH   8  24
HETATM   24  O   UNK     0       8.548  35.753  14.398  0.00  0.00    -0.360 OA
HETATM   25  H   UNK     0       9.172  35.044  14.182  0.00  0.00     0.217 HD
ENDBRANCH   8  24
BRANCH  10  26
HETATM   26  O   UNK     0      11.444  38.907  12.345  0.00  0.00    -0.361 OA
HETATM   27  H   UNK     0      11.789  38.628  11.479  0.00  0.00     0.217 HD
ENDBRANCH  10  26
TORSDOF 6
