REMARK VINA RESULT:      -7.0      8.433     10.540
REMARK  6 active torsions:
REMARK  status: ('A' for Active; 'I' for Inactive)
REMARK    1  A    between atoms: O_2  and  C_12 
REMARK    2  A    between atoms: O_3  and  C_14 
REMARK    3  A    between atoms: O_5  and  C_16 
REMARK    4  A    between atoms: O_6  and  C_20 
REMARK    5  A    between atoms: O_7  and  C_22 
REMARK    6  A    between atoms: C_10  and  C_11 
ROOT
HETATM    1  O   UNK     0      20.237  43.126  18.476  0.00  0.00    -0.306 OA
HETATM    2  O   UNK     0      17.393  40.255  17.956  0.00  0.00    -0.284 OA
HETATM    3  C   UNK     0      19.525  40.827  18.787  0.00  0.00     0.084 A 
HETATM    4  C   UNK     0      20.457  41.853  18.933  0.00  0.00     0.096 A 
HETATM    5  C   UNK     0      19.030  43.408  17.856  0.00  0.00     0.123 A 
HETATM    6  C   UNK     0      18.052  42.508  17.646  0.00  0.00     0.152 A 
HETATM    7  C   UNK     0      18.247  41.116  18.118  0.00  0.00     0.223 A 
HETATM    8  C   UNK     0      19.804  39.547  19.271  0.00  0.00     0.085 A 
HETATM    9  C   UNK     0      21.677  41.603  19.562  0.00  0.00     0.075 A 
HETATM   10  C   UNK     0      21.958  40.326  20.047  0.00  0.00     0.071 A 
HETATM   11  C   UNK     0      21.024  39.300  19.901  0.00  0.00     0.074 A 
ENDROOT
BRANCH   5  12
HETATM   12  C   UNK     0      18.923  44.810  17.415  0.00  0.00     0.004 A 
HETATM   13  C   UNK     0      19.113  45.136  16.072  0.00  0.00     0.053 A 
HETATM   14  C   UNK     0      19.012  46.463  15.655  0.00  0.00     0.099 A 
HETATM   15  C   UNK     0      18.720  47.465  16.582  0.00  0.00     0.098 A 
HETATM   16  C   UNK     0      18.529  47.139  17.925  0.00  0.00     0.040 A 
HETATM   17  C   UNK     0      18.631  45.811  18.341  0.00  0.00     0.017 A 
BRANCH  14  18
HETATM   18  O   UNK     0      19.202  46.771  14.342  0.00  0.00    -0.358 OA
HETATM   19  H   UNK     0      18.369  47.089  13.956  0.00  0.00     0.217 HD
ENDBRANCH  14  18
BRANCH  15  20
HETATM   20  O   UNK     0      18.616  48.765  16.187  0.00  0.00    -0.358 OA
HETATM   21  H   UNK     0      18.469  49.332  16.960  0.00  0.00     0.217 HD
ENDBRANCH  15  20
ENDBRANCH   5  12
BRANCH   6  22
HETATM   22  O   UNK     0      16.876  42.812  16.995  0.00  0.00    -0.355 OA
HETATM   23  H   UNK     0      16.876  43.747  16.733  0.00  0.00     0.218 HD
ENDBRANCH   6  22
BRANCH   8  24
HETATM   24  O   UNK     0      18.928  38.510  19.155  0.00  0.00    -0.360 OA
HETATM   25  H   UNK     0      18.546  38.288  20.018  0.00  0.00     0.217 HD
ENDBRANCH   8  24
BRANCH  10  26
HETATM   26  O   UNK     0      23.149  40.081  20.662  0.00  0.00    -0.361 OA
HETATM   27  H   UNK     0      23.867  40.198  20.016  0.00  0.00     0.217 HD
ENDBRANCH  10  26
TORSDOF 6
