REMARK VINA RESULT:      -7.0      9.717     11.303
REMARK  6 active torsions:
REMARK  status: ('A' for Active; 'I' for Inactive)
REMARK    1  A    between atoms: O_2  and  C_12 
REMARK    2  A    between atoms: O_3  and  C_14 
REMARK    3  A    between atoms: O_5  and  C_16 
REMARK    4  A    between atoms: O_6  and  C_20 
REMARK    5  A    between atoms: O_7  and  C_22 
REMARK    6  A    between atoms: C_10  and  C_11 
ROOT
HETATM    1  O   UNK     0      20.166  45.363  17.727  0.00  0.00    -0.306 OA
HETATM    2  O   UNK     0      19.926  43.425  14.150  0.00  0.00    -0.284 OA
HETATM    3  C   UNK     0      19.420  45.348  15.418  0.00  0.00     0.084 A 
HETATM    4  C   UNK     0      19.535  45.957  16.666  0.00  0.00     0.096 A 
HETATM    5  C   UNK     0      20.726  44.107  17.546  0.00  0.00     0.123 A 
HETATM    6  C   UNK     0      20.678  43.410  16.396  0.00  0.00     0.152 A 
HETATM    7  C   UNK     0      20.000  44.011  15.222  0.00  0.00     0.223 A 
HETATM    8  C   UNK     0      18.764  46.003  14.372  0.00  0.00     0.085 A 
HETATM    9  C   UNK     0      18.991  47.225  16.877  0.00  0.00     0.075 A 
HETATM   10  C   UNK     0      18.335  47.880  15.835  0.00  0.00     0.071 A 
HETATM   11  C   UNK     0      18.222  47.270  14.586  0.00  0.00     0.074 A 
ENDROOT
BRANCH   5  12
HETATM   12  C   UNK     0      21.373  43.584  18.762  0.00  0.00     0.004 A 
HETATM   13  C   UNK     0      21.213  42.245  19.116  0.00  0.00     0.053 A 
HETATM   14  C   UNK     0      21.826  41.750  20.268  0.00  0.00     0.099 A 
HETATM   15  C   UNK     0      22.599  42.596  21.065  0.00  0.00     0.098 A 
HETATM   16  C   UNK     0      22.759  43.935  20.710  0.00  0.00     0.040 A 
HETATM   17  C   UNK     0      22.146  44.430  19.558  0.00  0.00     0.017 A 
BRANCH  14  18
HETATM   18  O   UNK     0      21.662  40.441  20.606  0.00  0.00    -0.358 OA
HETATM   19  H   UNK     0      22.186  40.238  21.397  0.00  0.00     0.217 HD
ENDBRANCH  14  18
BRANCH  15  20
HETATM   20  O   UNK     0      23.204  42.124  22.190  0.00  0.00    -0.358 OA
HETATM   21  H   UNK     0      22.943  42.663  22.953  0.00  0.00     0.217 HD
ENDBRANCH  15  20
ENDBRANCH   5  12
BRANCH   6  22
HETATM   22  O   UNK     0      21.216  42.149  16.257  0.00  0.00    -0.355 OA
HETATM   23  H   UNK     0      20.584  41.483  16.575  0.00  0.00     0.218 HD
ENDBRANCH   6  22
BRANCH   8  24
HETATM   24  O   UNK     0      18.624  45.452  13.133  0.00  0.00    -0.360 OA
HETATM   25  H   UNK     0      19.482  45.159  12.793  0.00  0.00     0.217 HD
ENDBRANCH   8  24
BRANCH  10  26
HETATM   26  O   UNK     0      17.804  49.118  16.039  0.00  0.00    -0.361 OA
HETATM   27  H   UNK     0      17.095  49.267  15.390  0.00  0.00     0.217 HD
ENDBRANCH  10  26
TORSDOF 6
