REMARK VINA RESULT:      -7.0      2.281      4.079
REMARK  6 active torsions:
REMARK  status: ('A' for Active; 'I' for Inactive)
REMARK    1  A    between atoms: O_2  and  C_12 
REMARK    2  A    between atoms: O_3  and  C_14 
REMARK    3  A    between atoms: O_5  and  C_16 
REMARK    4  A    between atoms: O_6  and  C_20 
REMARK    5  A    between atoms: O_7  and  C_22 
REMARK    6  A    between atoms: C_10  and  C_11 
ROOT
HETATM    1  O   UNK     0      22.987  33.111  22.739  0.00  0.00    -0.306 OA
HETATM    2  O   UNK     0      19.526  34.374  24.481  0.00  0.00    -0.284 OA
HETATM    3  C   UNK     0      20.857  32.563  23.764  0.00  0.00     0.084 A 
HETATM    4  C   UNK     0      22.058  32.196  23.161  0.00  0.00     0.096 A 
HETATM    5  C   UNK     0      22.725  34.458  22.934  0.00  0.00     0.123 A 
HETATM    6  C   UNK     0      21.603  34.944  23.495  0.00  0.00     0.152 A 
HETATM    7  C   UNK     0      20.567  33.991  23.962  0.00  0.00     0.223 A 
HETATM    8  C   UNK     0      19.946  31.585  24.173  0.00  0.00     0.085 A 
HETATM    9  C   UNK     0      22.355  30.847  22.961  0.00  0.00     0.075 A 
HETATM   10  C   UNK     0      21.448  29.869  23.368  0.00  0.00     0.071 A 
HETATM   11  C   UNK     0      20.246  30.238  23.973  0.00  0.00     0.074 A 
ENDROOT
BRANCH   5  12
HETATM   12  C   UNK     0      23.803  35.331  22.436  0.00  0.00     0.004 A 
HETATM   13  C   UNK     0      24.961  35.511  23.193  0.00  0.00     0.053 A 
HETATM   14  C   UNK     0      25.981  36.338  22.722  0.00  0.00     0.099 A 
HETATM   15  C   UNK     0      25.843  36.985  21.493  0.00  0.00     0.098 A 
HETATM   16  C   UNK     0      24.686  36.804  20.736  0.00  0.00     0.040 A 
HETATM   17  C   UNK     0      23.665  35.978  21.207  0.00  0.00     0.017 A 
BRANCH  14  18
HETATM   18  O   UNK     0      27.106  36.508  23.470  0.00  0.00    -0.358 OA
HETATM   19  H   UNK     0      27.368  35.661  23.866  0.00  0.00     0.217 HD
ENDBRANCH  14  18
BRANCH  15  20
HETATM   20  O   UNK     0      26.834  37.793  21.021  0.00  0.00    -0.358 OA
HETATM   21  H   UNK     0      27.612  37.259  20.798  0.00  0.00     0.217 HD
ENDBRANCH  15  20
ENDBRANCH   5  12
BRANCH   6  22
HETATM   22  O   UNK     0      21.358  36.292  23.644  0.00  0.00    -0.355 OA
HETATM   23  H   UNK     0      22.189  36.788  23.569  0.00  0.00     0.218 HD
ENDBRANCH   6  22
BRANCH   8  24
HETATM   24  O   UNK     0      18.758  31.891  24.768  0.00  0.00    -0.360 OA
HETATM   25  H   UNK     0      18.022  31.735  24.157  0.00  0.00     0.217 HD
ENDBRANCH   8  24
BRANCH  10  26
HETATM   26  O   UNK     0      21.737  28.553  23.174  0.00  0.00    -0.361 OA
HETATM   27  H   UNK     0      21.404  28.283  22.301  0.00  0.00     0.217 HD
ENDBRANCH  10  26
TORSDOF 6
