MODEL 1
REMARK VINA RESULT:      -8.8      0.000      0.000
REMARK  12 active torsions:
REMARK  status: ('A' for Active; 'I' for Inactive)
REMARK    1  A    between atoms: O_1  and  C_10 
REMARK    2  A    between atoms: O_2  and  C_17 
REMARK    3  A    between atoms: O_3  and  C_20 
REMARK    4  A    between atoms: O_4  and  C_27 
REMARK    5  A    between atoms: O_6  and  C_29 
REMARK    6  A    between atoms: O_7  and  C_28 
REMARK    7  A    between atoms: O_8  and  C_33 
REMARK    8  A    between atoms: C_11  and  C_20 
REMARK    9  A    between atoms: C_20  and  C_28 
REMARK   10  A    between atoms: C_28  and  C_31 
REMARK   11  A    between atoms: C_31  and  C_32 
REMARK   12  A    between atoms: C_32  and  C_33 
ROOT
HETATM    1  O   UNK     0     149.356 150.433 142.162  0.00  0.00    -0.384 OA
HETATM    2  H   UNK     0     150.097 150.988 142.445  0.00  0.00     0.211 HD
ENDROOT
BRANCH   1   3
HETATM    3  C   UNK     0     148.923 149.557 143.228  0.00  0.00     0.090 C 
HETATM    4  C   UNK     0     148.883 148.095 142.716  0.00  0.00    -0.000 C 
HETATM    5  C   UNK     0     147.776 148.197 141.634  0.00  0.00     0.034 C 
HETATM    6  C   UNK     0     150.268 147.733 142.161  0.00  0.00     0.045 C 
HETATM    7  C   UNK     0     148.483 147.075 143.819  0.00  0.00     0.019 C 
HETATM    8  C   UNK     0     146.725 149.135 142.271  0.00  0.00     0.012 C 
HETATM    9  C   UNK     0     147.433 149.868 143.431  0.00  0.00     0.044 C 
HETATM   10  C   UNK     0     151.366 147.900 143.232  0.00  0.00     0.128 C 
HETATM   11  C   UNK     0     151.377 149.303 143.944  0.00  0.00     0.055 C 
HETATM   12  C   UNK     0     152.427 149.413 145.135  0.00  0.00    -0.021 C 
HETATM   13  C   UNK     0     149.943 149.720 144.336  0.00  0.00    -0.034 C 
HETATM   14  C   UNK     0     152.082 150.625 146.049  0.00  0.00     0.071 C 
HETATM   15  C   UNK     0     153.898 149.560 144.595  0.00  0.00     0.045 C 
HETATM   16  C   UNK     0     152.388 148.135 146.020  0.00  0.00     0.017 C 
HETATM   17  C   UNK     0     152.331 152.010 145.424  0.00  0.00     0.047 C 
HETATM   18  C   UNK     0     150.646 150.557 146.525  0.00  0.00     0.154 C 
HETATM   19  C   UNK     0     153.472 152.032 144.412  0.00  0.00     0.147 C 
HETATM   20  C   UNK     0     154.512 150.959 144.705  0.00  0.00     0.147 C 
HETATM   21  O   UNK     0     150.326 150.843 147.677  0.00  0.00    -0.293 OA
HETATM   22  C   UNK     0     149.606 150.229 145.530  0.00  0.00     0.057 C 
BRANCH   5  23
HETATM   23  C   UNK     0     147.179 146.885 141.144  0.00  0.00     0.084 C 
HETATM   24  C   UNK     0     147.247 146.822 139.609  0.00  0.00     0.049 C 
BRANCH  23  25
HETATM   25  O   UNK     0     147.976 145.807 141.653  0.00  0.00    -0.387 OA
HETATM   26  H   UNK     0     147.989 145.855 142.623  0.00  0.00     0.210 HD
ENDBRANCH  23  25
BRANCH  23  27
HETATM   27  C   UNK     0     145.721 146.683 141.637  0.00  0.00     0.152 C 
BRANCH  27  28
HETATM   28  O   UNK     0     145.700 145.716 142.692  0.00  0.00    -0.393 OA
HETATM   29  H   UNK     0     144.947 145.124 142.529  0.00  0.00     0.210 HD
ENDBRANCH  27  28
BRANCH  27  30
HETATM   30  C   UNK     0     144.740 146.225 140.541  0.00  0.00     0.037 C 
BRANCH  30  31
HETATM   31  C   UNK     0     144.198 144.808 140.806  0.00  0.00     0.040 C 
BRANCH  31  32
HETATM   32  C   UNK     0     144.924 143.689 140.030  0.00  0.00     0.051 C 
HETATM   33  C   UNK     0     144.109 142.394 140.114  0.00  0.00     0.045 C 
HETATM   34  C   UNK     0     145.169 144.056 138.564  0.00  0.00     0.045 C 
BRANCH  32  35
HETATM   35  O   UNK     0     146.188 143.454 140.655  0.00  0.00    -0.391 OA
HETATM   36  H   UNK     0     146.292 142.498 140.795  0.00  0.00     0.210 HD
ENDBRANCH  32  35
ENDBRANCH  31  32
ENDBRANCH  30  31
ENDBRANCH  27  30
ENDBRANCH  23  27
ENDBRANCH   5  23
BRANCH  10  37
HETATM   37  O   UNK     0     152.616 147.652 142.594  0.00  0.00    -0.395 OA
HETATM   38  H   UNK     0     152.820 148.420 142.035  0.00  0.00     0.210 HD
ENDBRANCH  10  37
BRANCH  19  39
HETATM   39  O   UNK     0     154.072 153.324 144.428  0.00  0.00    -0.393 OA
HETATM   40  H   UNK     0     153.364 153.989 144.440  0.00  0.00     0.210 HD
ENDBRANCH  19  39
BRANCH  20  41
HETATM   41  O   UNK     0     155.046 151.130 146.019  0.00  0.00    -0.393 OA
HETATM   42  H   UNK     0     156.015 151.098 145.949  0.00  0.00     0.210 HD
ENDBRANCH  20  41
ENDBRANCH   1   3
TORSDOF 12
ENDMDL
MODEL 2
REMARK VINA RESULT:      -8.8      4.878      8.092
REMARK  12 active torsions:
REMARK  status: ('A' for Active; 'I' for Inactive)
REMARK    1  A    between atoms: O_1  and  C_10 
REMARK    2  A    between atoms: O_2  and  C_17 
REMARK    3  A    between atoms: O_3  and  C_20 
REMARK    4  A    between atoms: O_4  and  C_27 
REMARK    5  A    between atoms: O_6  and  C_29 
REMARK    6  A    between atoms: O_7  and  C_28 
REMARK    7  A    between atoms: O_8  and  C_33 
REMARK    8  A    between atoms: C_11  and  C_20 
REMARK    9  A    between atoms: C_20  and  C_28 
REMARK   10  A    between atoms: C_28  and  C_31 
REMARK   11  A    between atoms: C_31  and  C_32 
REMARK   12  A    between atoms: C_32  and  C_33 
ROOT
HETATM    1  O   UNK     0     153.948 152.574 148.238  0.00  0.00    -0.384 OA
HETATM    2  H   UNK     0     154.222 151.945 147.555  0.00  0.00     0.211 HD
ENDROOT
BRANCH   1   3
HETATM    3  C   UNK     0     152.940 153.481 147.737  0.00  0.00     0.090 C 
HETATM    4  C   UNK     0     151.565 152.765 147.706  0.00  0.00    -0.000 C 
HETATM    5  C   UNK     0     151.841 151.654 146.659  0.00  0.00     0.034 C 
HETATM    6  C   UNK     0     151.257 152.235 149.113  0.00  0.00     0.045 C 
HETATM    7  C   UNK     0     150.408 153.690 147.235  0.00  0.00     0.019 C 
HETATM    8  C   UNK     0     152.700 152.364 145.587  0.00  0.00     0.012 C 
HETATM    9  C   UNK     0     153.249 153.651 146.243  0.00  0.00     0.044 C 
HETATM   10  C   UNK     0     151.249 153.373 150.155  0.00  0.00     0.128 C 
HETATM   11  C   UNK     0     152.538 154.276 150.146  0.00  0.00     0.055 C 
HETATM   12  C   UNK     0     152.457 155.523 151.134  0.00  0.00    -0.021 C 
HETATM   13  C   UNK     0     152.924 154.651 148.700  0.00  0.00    -0.034 C 
HETATM   14  C   UNK     0     153.535 156.581 150.757  0.00  0.00     0.071 C 
HETATM   15  C   UNK     0     152.649 155.083 152.633  0.00  0.00     0.045 C 
HETATM   16  C   UNK     0     151.068 156.214 151.032  0.00  0.00     0.017 C 
HETATM   17  C   UNK     0     154.988 156.172 151.056  0.00  0.00     0.047 C 
HETATM   18  C   UNK     0     153.430 156.969 149.297  0.00  0.00     0.154 C 
HETATM   19  C   UNK     0     155.130 155.233 152.249  0.00  0.00     0.147 C 
HETATM   20  C   UNK     0     154.006 155.422 153.258  0.00  0.00     0.147 C 
HETATM   21  O   UNK     0     153.556 158.132 148.920  0.00  0.00    -0.293 OA
HETATM   22  C   UNK     0     153.266 155.886 148.307  0.00  0.00     0.057 C 
BRANCH   5  23
HETATM   23  C   UNK     0     150.624 150.953 146.072  0.00  0.00     0.084 C 
HETATM   24  C   UNK     0     150.852 149.433 146.061  0.00  0.00     0.049 C 
BRANCH  23  25
HETATM   25  O   UNK     0     149.499 151.211 146.923  0.00  0.00    -0.387 OA
HETATM   26  H   UNK     0     149.471 152.160 147.129  0.00  0.00     0.210 HD
ENDBRANCH  23  25
BRANCH  23  27
HETATM   27  C   UNK     0     150.281 151.467 144.647  0.00  0.00     0.152 C 
BRANCH  27  28
HETATM   28  O   UNK     0     149.171 152.368 144.717  0.00  0.00    -0.393 OA
HETATM   29  H   UNK     0     149.530 153.271 144.737  0.00  0.00     0.210 HD
ENDBRANCH  27  28
BRANCH  27  30
HETATM   30  C   UNK     0     149.939 150.353 143.639  0.00  0.00     0.037 C 
BRANCH  30  31
HETATM   31  C   UNK     0     148.547 150.549 143.012  0.00  0.00     0.040 C 
BRANCH  31  32
HETATM   32  C   UNK     0     147.443 149.651 143.610  0.00  0.00     0.051 C 
HETATM   33  C   UNK     0     146.290 149.519 142.609  0.00  0.00     0.045 C 
HETATM   34  C   UNK     0     147.961 148.262 143.994  0.00  0.00     0.045 C 
BRANCH  32  35
HETATM   35  O   UNK     0     146.934 150.285 144.785  0.00  0.00    -0.391 OA
HETATM   36  H   UNK     0     147.488 150.026 145.541  0.00  0.00     0.210 HD
ENDBRANCH  32  35
ENDBRANCH  31  32
ENDBRANCH  30  31
ENDBRANCH  27  30
ENDBRANCH  23  27
ENDBRANCH   5  23
BRANCH  10  37
HETATM   37  O   UNK     0     151.068 152.770 151.434  0.00  0.00    -0.395 OA
HETATM   38  H   UNK     0     151.945 152.509 151.765  0.00  0.00     0.210 HD
ENDBRANCH  10  37
BRANCH  19  39
HETATM   39  O   UNK     0     156.395 155.462 152.864  0.00  0.00    -0.393 OA
HETATM   40  H   UNK     0     156.315 156.235 153.446  0.00  0.00     0.210 HD
ENDBRANCH  19  39
BRANCH  20  41
HETATM   41  O   UNK     0     153.979 156.772 153.724  0.00  0.00    -0.393 OA
HETATM   42  H   UNK     0     154.337 156.778 154.628  0.00  0.00     0.210 HD
ENDBRANCH  20  41
ENDBRANCH   1   3
TORSDOF 12
ENDMDL
MODEL 3
REMARK VINA RESULT:      -8.6      5.127      8.702
REMARK  12 active torsions:
REMARK  status: ('A' for Active; 'I' for Inactive)
REMARK    1  A    between atoms: O_1  and  C_10 
REMARK    2  A    between atoms: O_2  and  C_17 
REMARK    3  A    between atoms: O_3  and  C_20 
REMARK    4  A    between atoms: O_4  and  C_27 
REMARK    5  A    between atoms: O_6  and  C_29 
REMARK    6  A    between atoms: O_7  and  C_28 
REMARK    7  A    between atoms: O_8  and  C_33 
REMARK    8  A    between atoms: C_11  and  C_20 
REMARK    9  A    between atoms: C_20  and  C_28 
REMARK   10  A    between atoms: C_28  and  C_31 
REMARK   11  A    between atoms: C_31  and  C_32 
REMARK   12  A    between atoms: C_32  and  C_33 
ROOT
HETATM    1  O   UNK     0     153.982 152.687 148.184  0.00  0.00    -0.384 OA
HETATM    2  H   UNK     0     154.463 152.228 147.480  0.00  0.00     0.211 HD
ENDROOT
BRANCH   1   3
HETATM    3  C   UNK     0     153.042 153.641 147.640  0.00  0.00     0.090 C 
HETATM    4  C   UNK     0     151.642 152.986 147.527  0.00  0.00    -0.000 C 
HETATM    5  C   UNK     0     151.927 151.872 146.485  0.00  0.00     0.034 C 
HETATM    6  C   UNK     0     151.236 152.459 148.910  0.00  0.00     0.045 C 
HETATM    7  C   UNK     0     150.553 153.964 147.004  0.00  0.00     0.019 C 
HETATM    8  C   UNK     0     152.873 152.553 145.469  0.00  0.00     0.012 C 
HETATM    9  C   UNK     0     153.439 153.809 146.166  0.00  0.00     0.044 C 
HETATM   10  C   UNK     0     151.220 153.587 149.962  0.00  0.00     0.128 C 
HETATM   11  C   UNK     0     152.545 154.433 150.032  0.00  0.00     0.055 C 
HETATM   12  C   UNK     0     152.464 155.674 151.027  0.00  0.00    -0.021 C 
HETATM   13  C   UNK     0     153.024 154.803 148.612  0.00  0.00    -0.034 C 
HETATM   14  C   UNK     0     153.605 156.687 150.719  0.00  0.00     0.071 C 
HETATM   15  C   UNK     0     152.556 155.215 152.529  0.00  0.00     0.045 C 
HETATM   16  C   UNK     0     151.114 156.426 150.857  0.00  0.00     0.017 C 
HETATM   17  C   UNK     0     155.022 156.213 151.092  0.00  0.00     0.047 C 
HETATM   18  C   UNK     0     153.596 157.091 149.260  0.00  0.00     0.154 C 
HETATM   19  C   UNK     0     155.058 155.259 152.281  0.00  0.00     0.147 C 
HETATM   20  C   UNK     0     153.890 155.489 153.230  0.00  0.00     0.147 C 
HETATM   21  O   UNK     0     153.794 158.251 148.903  0.00  0.00    -0.293 OA
HETATM   22  C   UNK     0     153.441 156.025 148.251  0.00  0.00     0.057 C 
BRANCH   5  23
HETATM   23  C   UNK     0     150.714 151.230 145.826  0.00  0.00     0.084 C 
HETATM   24  C   UNK     0     150.373 149.909 146.535  0.00  0.00     0.049 C 
BRANCH  23  25
HETATM   25  O   UNK     0     149.592 152.107 145.991  0.00  0.00    -0.387 OA
HETATM   26  H   UNK     0     148.802 151.575 146.185  0.00  0.00     0.210 HD
ENDBRANCH  23  25
BRANCH  23  27
HETATM   27  C   UNK     0     150.927 150.996 144.305  0.00  0.00     0.152 C 
BRANCH  27  28
HETATM   28  O   UNK     0     149.693 151.208 143.611  0.00  0.00    -0.393 OA
HETATM   29  H   UNK     0     149.394 150.344 143.280  0.00  0.00     0.210 HD
ENDBRANCH  27  28
BRANCH  27  30
HETATM   30  C   UNK     0     151.450 149.592 143.948  0.00  0.00     0.037 C 
BRANCH  30  31
HETATM   31  C   UNK     0     152.767 149.651 143.152  0.00  0.00     0.040 C 
BRANCH  31  32
HETATM   32  C   UNK     0     153.912 148.803 143.744  0.00  0.00     0.051 C 
HETATM   33  C   UNK     0     153.727 148.677 145.260  0.00  0.00     0.045 C 
HETATM   34  C   UNK     0     153.996 147.410 143.113  0.00  0.00     0.045 C 
BRANCH  32  35
HETATM   35  O   UNK     0     155.145 149.483 143.507  0.00  0.00    -0.391 OA
HETATM   36  H   UNK     0     154.953 150.340 143.092  0.00  0.00     0.210 HD
ENDBRANCH  32  35
ENDBRANCH  31  32
ENDBRANCH  30  31
ENDBRANCH  27  30
ENDBRANCH  23  27
ENDBRANCH   5  23
BRANCH  10  37
HETATM   37  O   UNK     0     150.944 152.982 151.222  0.00  0.00    -0.395 OA
HETATM   38  H   UNK     0     150.626 153.679 151.821  0.00  0.00     0.210 HD
ENDBRANCH  10  37
BRANCH  19  39
HETATM   39  O   UNK     0     156.296 155.428 152.966  0.00  0.00    -0.393 OA
HETATM   40  H   UNK     0     156.613 156.332 152.804  0.00  0.00     0.210 HD
ENDBRANCH  19  39
BRANCH  20  41
HETATM   41  O   UNK     0     153.896 156.835 153.708  0.00  0.00    -0.393 OA
HETATM   42  H   UNK     0     153.053 156.988 154.168  0.00  0.00     0.210 HD
ENDBRANCH  20  41
ENDBRANCH   1   3
TORSDOF 12
ENDMDL
MODEL 4
REMARK VINA RESULT:      -8.6      1.769      2.657
REMARK  12 active torsions:
REMARK  status: ('A' for Active; 'I' for Inactive)
REMARK    1  A    between atoms: O_1  and  C_10 
REMARK    2  A    between atoms: O_2  and  C_17 
REMARK    3  A    between atoms: O_3  and  C_20 
REMARK    4  A    between atoms: O_4  and  C_27 
REMARK    5  A    between atoms: O_6  and  C_29 
REMARK    6  A    between atoms: O_7  and  C_28 
REMARK    7  A    between atoms: O_8  and  C_33 
REMARK    8  A    between atoms: C_11  and  C_20 
REMARK    9  A    between atoms: C_20  and  C_28 
REMARK   10  A    between atoms: C_28  and  C_31 
REMARK   11  A    between atoms: C_31  and  C_32 
REMARK   12  A    between atoms: C_32  and  C_33 
ROOT
HETATM    1  O   UNK     0     149.189 150.766 142.464  0.00  0.00    -0.384 OA
HETATM    2  H   UNK     0     149.307 150.335 141.606  0.00  0.00     0.211 HD
ENDROOT
BRANCH   1   3
HETATM    3  C   UNK     0     148.819 149.809 143.483  0.00  0.00     0.090 C 
HETATM    4  C   UNK     0     148.773 148.386 142.868  0.00  0.00    -0.000 C 
HETATM    5  C   UNK     0     147.613 148.549 141.851  0.00  0.00     0.034 C 
HETATM    6  C   UNK     0     150.133 148.088 142.222  0.00  0.00     0.045 C 
HETATM    7  C   UNK     0     148.440 147.283 143.911  0.00  0.00     0.019 C 
HETATM    8  C   UNK     0     146.582 149.421 142.605  0.00  0.00     0.012 C 
HETATM    9  C   UNK     0     147.338 150.080 143.780  0.00  0.00     0.044 C 
HETATM   10  C   UNK     0     151.280 148.194 143.248  0.00  0.00     0.128 C 
HETATM   11  C   UNK     0     151.308 149.542 144.059  0.00  0.00     0.055 C 
HETATM   12  C   UNK     0     152.415 149.582 145.203  0.00  0.00    -0.021 C 
HETATM   13  C   UNK     0     149.891 149.907 144.550  0.00  0.00    -0.034 C 
HETATM   14  C   UNK     0     152.100 150.719 146.219  0.00  0.00     0.071 C 
HETATM   15  C   UNK     0     153.855 149.792 144.605  0.00  0.00     0.045 C 
HETATM   16  C   UNK     0     152.435 148.243 145.993  0.00  0.00     0.017 C 
HETATM   17  C   UNK     0     152.301 152.149 145.686  0.00  0.00     0.047 C 
HETATM   18  C   UNK     0     150.690 150.595 146.757  0.00  0.00     0.154 C 
HETATM   19  C   UNK     0     153.390 152.263 144.625  0.00  0.00     0.147 C 
HETATM   20  C   UNK     0     154.456 151.189 144.788  0.00  0.00     0.147 C 
HETATM   21  O   UNK     0     150.424 150.791 147.941  0.00  0.00    -0.293 OA
HETATM   22  C   UNK     0     149.607 150.323 145.792  0.00  0.00     0.057 C 
BRANCH   5  23
HETATM   23  C   UNK     0     147.009 147.267 141.295  0.00  0.00     0.084 C 
HETATM   24  C   UNK     0     146.595 146.342 142.451  0.00  0.00     0.049 C 
BRANCH  23  25
HETATM   25  O   UNK     0     145.819 147.604 140.569  0.00  0.00    -0.387 OA
HETATM   26  H   UNK     0     145.613 148.541 140.721  0.00  0.00     0.210 HD
ENDBRANCH  23  25
BRANCH  23  27
HETATM   27  C   UNK     0     147.976 146.534 140.326  0.00  0.00     0.152 C 
BRANCH  27  28
HETATM   28  O   UNK     0     147.351 146.383 139.048  0.00  0.00    -0.393 OA
HETATM   29  H   UNK     0     147.485 145.462 138.765  0.00  0.00     0.210 HD
ENDBRANCH  27  28
BRANCH  27  30
HETATM   30  C   UNK     0     148.425 145.143 140.813  0.00  0.00     0.037 C 
BRANCH  30  31
HETATM   31  C   UNK     0     149.936 144.922 140.616  0.00  0.00     0.040 C 
BRANCH  31  32
HETATM   32  C   UNK     0     150.528 143.764 141.447  0.00  0.00     0.051 C 
HETATM   33  C   UNK     0     151.441 144.331 142.540  0.00  0.00     0.045 C 
HETATM   34  C   UNK     0     149.447 142.882 142.078  0.00  0.00     0.045 C 
BRANCH  32  35
HETATM   35  O   UNK     0     151.328 142.953 140.585  0.00  0.00    -0.391 OA
HETATM   36  H   UNK     0     150.826 142.777 139.771  0.00  0.00     0.210 HD
ENDBRANCH  32  35
ENDBRANCH  31  32
ENDBRANCH  30  31
ENDBRANCH  27  30
ENDBRANCH  23  27
ENDBRANCH   5  23
BRANCH  10  37
HETATM   37  O   UNK     0     152.500 148.013 142.534  0.00  0.00    -0.395 OA
HETATM   38  H   UNK     0     153.000 148.845 142.587  0.00  0.00     0.210 HD
ENDBRANCH  10  37
BRANCH  19  39
HETATM   39  O   UNK     0     153.974 153.560 144.705  0.00  0.00    -0.393 OA
HETATM   40  H   UNK     0     154.713 153.601 144.075  0.00  0.00     0.210 HD
ENDBRANCH  19  39
BRANCH  20  41
HETATM   41  O   UNK     0     155.053 151.273 146.083  0.00  0.00    -0.393 OA
HETATM   42  H   UNK     0     155.580 152.089 146.112  0.00  0.00     0.210 HD
ENDBRANCH  20  41
ENDBRANCH   1   3
TORSDOF 12
ENDMDL
MODEL 5
REMARK VINA RESULT:      -8.5      1.922      8.678
REMARK  12 active torsions:
REMARK  status: ('A' for Active; 'I' for Inactive)
REMARK    1  A    between atoms: O_1  and  C_10 
REMARK    2  A    between atoms: O_2  and  C_17 
REMARK    3  A    between atoms: O_3  and  C_20 
REMARK    4  A    between atoms: O_4  and  C_27 
REMARK    5  A    between atoms: O_6  and  C_29 
REMARK    6  A    between atoms: O_7  and  C_28 
REMARK    7  A    between atoms: O_8  and  C_33 
REMARK    8  A    between atoms: C_11  and  C_20 
REMARK    9  A    between atoms: C_20  and  C_28 
REMARK   10  A    between atoms: C_28  and  C_31 
REMARK   11  A    between atoms: C_31  and  C_32 
REMARK   12  A    between atoms: C_32  and  C_33 
ROOT
HETATM    1  O   UNK     0     149.269 146.475 144.381  0.00  0.00    -0.384 OA
HETATM    2  H   UNK     0     148.465 146.724 144.860  0.00  0.00     0.211 HD
ENDROOT
BRANCH   1   3
HETATM    3  C   UNK     0     149.673 147.516 143.462  0.00  0.00     0.090 C 
HETATM    4  C   UNK     0     151.094 147.209 142.922  0.00  0.00    -0.000 C 
HETATM    5  C   UNK     0     151.927 147.304 144.228  0.00  0.00     0.034 C 
HETATM    6  C   UNK     0     151.084 145.811 142.288  0.00  0.00     0.045 C 
HETATM    7  C   UNK     0     151.586 148.250 141.878  0.00  0.00     0.019 C 
HETATM    8  C   UNK     0     151.304 148.507 144.974  0.00  0.00     0.012 C 
HETATM    9  C   UNK     0     149.921 148.756 144.334  0.00  0.00     0.044 C 
HETATM   10  C   UNK     0     150.044 145.714 141.153  0.00  0.00     0.128 C 
HETATM   11  C   UNK     0     148.594 146.177 141.555  0.00  0.00     0.055 C 
HETATM   12  C   UNK     0     147.564 146.196 140.340  0.00  0.00    -0.021 C 
HETATM   13  C   UNK     0     148.650 147.501 142.345  0.00  0.00    -0.034 C 
HETATM   14  C   UNK     0     146.320 147.059 140.701  0.00  0.00     0.071 C 
HETATM   15  C   UNK     0     147.104 144.742 139.952  0.00  0.00     0.045 C 
HETATM   16  C   UNK     0     148.218 146.824 139.078  0.00  0.00     0.017 C 
HETATM   17  C   UNK     0     145.383 146.449 141.759  0.00  0.00     0.047 C 
HETATM   18  C   UNK     0     146.731 148.443 141.157  0.00  0.00     0.154 C 
HETATM   19  C   UNK     0     145.362 144.924 141.756  0.00  0.00     0.147 C 
HETATM   20  C   UNK     0     145.686 144.354 140.382  0.00  0.00     0.147 C 
HETATM   21  O   UNK     0     146.117 149.452 140.814  0.00  0.00    -0.293 OA
HETATM   22  C   UNK     0     147.845 148.549 142.119  0.00  0.00     0.057 C 
BRANCH   5  23
HETATM   23  C   UNK     0     153.436 147.424 144.066  0.00  0.00     0.084 C 
HETATM   24  C   UNK     0     154.085 147.709 145.430  0.00  0.00     0.049 C 
BRANCH  23  25
HETATM   25  O   UNK     0     153.943 146.165 143.604  0.00  0.00    -0.387 OA
HETATM   26  H   UNK     0     153.440 145.449 144.025  0.00  0.00     0.210 HD
ENDBRANCH  23  25
BRANCH  23  27
HETATM   27  C   UNK     0     153.830 148.514 143.032  0.00  0.00     0.152 C 
BRANCH  27  28
HETATM   28  O   UNK     0     154.711 147.951 142.055  0.00  0.00    -0.393 OA
HETATM   29  H   UNK     0     154.195 147.316 141.529  0.00  0.00     0.210 HD
ENDBRANCH  27  28
BRANCH  27  30
HETATM   30  C   UNK     0     154.514 149.750 143.647  0.00  0.00     0.037 C 
BRANCH  30  31
HETATM   31  C   UNK     0     153.642 151.013 143.525  0.00  0.00     0.040 C 
BRANCH  31  32
HETATM   32  C   UNK     0     153.709 151.958 144.744  0.00  0.00     0.051 C 
HETATM   33  C   UNK     0     152.292 152.383 145.142  0.00  0.00     0.045 C 
HETATM   34  C   UNK     0     154.418 151.319 145.942  0.00  0.00     0.045 C 
BRANCH  32  35
HETATM   35  O   UNK     0     154.430 153.131 144.365  0.00  0.00    -0.391 OA
HETATM   36  H   UNK     0     155.155 152.872 143.772  0.00  0.00     0.210 HD
ENDBRANCH  32  35
ENDBRANCH  31  32
ENDBRANCH  30  31
ENDBRANCH  27  30
ENDBRANCH  23  27
ENDBRANCH   5  23
BRANCH  10  37
HETATM   37  O   UNK     0     150.032 144.361 140.708  0.00  0.00    -0.395 OA
HETATM   38  H   UNK     0     150.093 144.367 139.738  0.00  0.00     0.210 HD
ENDBRANCH  10  37
BRANCH  19  39
HETATM   39  O   UNK     0     144.078 144.483 142.187  0.00  0.00    -0.393 OA
HETATM   40  H   UNK     0     143.410 144.861 141.591  0.00  0.00     0.210 HD
ENDBRANCH  19  39
BRANCH  20  41
HETATM   41  O   UNK     0     144.757 144.838 139.411  0.00  0.00    -0.393 OA
HETATM   42  H   UNK     0     143.919 144.364 139.545  0.00  0.00     0.210 HD
ENDBRANCH  20  41
ENDBRANCH   1   3
TORSDOF 12
ENDMDL
MODEL 6
REMARK VINA RESULT:      -8.4      2.346      4.309
REMARK  12 active torsions:
REMARK  status: ('A' for Active; 'I' for Inactive)
REMARK    1  A    between atoms: O_1  and  C_10 
REMARK    2  A    between atoms: O_2  and  C_17 
REMARK    3  A    between atoms: O_3  and  C_20 
REMARK    4  A    between atoms: O_4  and  C_27 
REMARK    5  A    between atoms: O_6  and  C_29 
REMARK    6  A    between atoms: O_7  and  C_28 
REMARK    7  A    between atoms: O_8  and  C_33 
REMARK    8  A    between atoms: C_11  and  C_20 
REMARK    9  A    between atoms: C_20  and  C_28 
REMARK   10  A    between atoms: C_28  and  C_31 
REMARK   11  A    between atoms: C_31  and  C_32 
REMARK   12  A    between atoms: C_32  and  C_33 
ROOT
HETATM    1  O   UNK     0     151.349 146.523 145.373  0.00  0.00    -0.384 OA
HETATM    2  H   UNK     0     150.545 145.984 145.359  0.00  0.00     0.211 HD
ENDROOT
BRANCH   1   3
HETATM    3  C   UNK     0     151.759 146.884 144.034  0.00  0.00     0.090 C 
HETATM    4  C   UNK     0     150.793 146.245 143.004  0.00  0.00    -0.000 C 
HETATM    5  C   UNK     0     151.065 144.737 143.250  0.00  0.00     0.034 C 
HETATM    6  C   UNK     0     149.361 146.685 143.338  0.00  0.00     0.045 C 
HETATM    7  C   UNK     0     151.127 146.632 141.536  0.00  0.00     0.019 C 
HETATM    8  C   UNK     0     152.594 144.669 143.465  0.00  0.00     0.012 C 
HETATM    9  C   UNK     0     153.060 146.108 143.782  0.00  0.00     0.044 C 
HETATM   10  C   UNK     0     149.225 148.221 143.323  0.00  0.00     0.128 C 
HETATM   11  C   UNK     0     150.284 148.979 144.206  0.00  0.00     0.055 C 
HETATM   12  C   UNK     0     150.214 150.565 144.077  0.00  0.00    -0.021 C 
HETATM   13  C   UNK     0     151.694 148.397 143.977  0.00  0.00    -0.034 C 
HETATM   14  C   UNK     0     151.528 151.208 144.606  0.00  0.00     0.071 C 
HETATM   15  C   UNK     0     148.984 151.154 144.861  0.00  0.00     0.045 C 
HETATM   16  C   UNK     0     150.054 150.986 142.589  0.00  0.00     0.017 C 
HETATM   17  C   UNK     0     151.728 151.133 146.131  0.00  0.00     0.047 C 
HETATM   18  C   UNK     0     152.741 150.607 143.928  0.00  0.00     0.154 C 
HETATM   19  C   UNK     0     150.425 151.138 146.923  0.00  0.00     0.147 C 
HETATM   20  C   UNK     0     149.311 151.863 146.179  0.00  0.00     0.147 C 
HETATM   21  O   UNK     0     153.697 151.293 143.572  0.00  0.00    -0.293 OA
HETATM   22  C   UNK     0     152.795 149.139 143.788  0.00  0.00     0.057 C 
BRANCH   5  23
HETATM   23  C   UNK     0     150.575 143.773 142.179  0.00  0.00     0.084 C 
HETATM   24  C   UNK     0     150.988 144.284 140.789  0.00  0.00     0.049 C 
BRANCH  23  25
HETATM   25  O   UNK     0     151.219 142.508 142.379  0.00  0.00    -0.387 OA
HETATM   26  H   UNK     0     152.042 142.649 142.876  0.00  0.00     0.210 HD
ENDBRANCH  23  25
BRANCH  23  27
HETATM   27  C   UNK     0     149.039 143.551 142.246  0.00  0.00     0.152 C 
BRANCH  27  28
HETATM   28  O   UNK     0     148.766 142.176 142.534  0.00  0.00    -0.393 OA
HETATM   29  H   UNK     0     148.878 142.051 143.491  0.00  0.00     0.210 HD
ENDBRANCH  27  28
BRANCH  27  30
HETATM   30  C   UNK     0     148.287 143.935 140.958  0.00  0.00     0.037 C 
BRANCH  30  31
HETATM   31  C   UNK     0     147.191 144.984 141.220  0.00  0.00     0.040 C 
BRANCH  31  32
HETATM   32  C   UNK     0     146.931 145.947 140.042  0.00  0.00     0.051 C 
HETATM   33  C   UNK     0     146.121 147.151 140.533  0.00  0.00     0.045 C 
HETATM   34  C   UNK     0     148.225 146.425 139.379  0.00  0.00     0.045 C 
BRANCH  32  35
HETATM   35  O   UNK     0     146.148 145.261 139.064  0.00  0.00    -0.391 OA
HETATM   36  H   UNK     0     145.705 144.509 139.492  0.00  0.00     0.210 HD
ENDBRANCH  32  35
ENDBRANCH  31  32
ENDBRANCH  30  31
ENDBRANCH  27  30
ENDBRANCH  23  27
ENDBRANCH   5  23
BRANCH  10  37
HETATM   37  O   UNK     0     147.902 148.530 143.751  0.00  0.00    -0.395 OA
HETATM   38  H   UNK     0     147.329 148.530 142.965  0.00  0.00     0.210 HD
ENDBRANCH  10  37
BRANCH  19  39
HETATM   39  O   UNK     0     150.659 151.751 148.187  0.00  0.00    -0.393 OA
HETATM   40  H   UNK     0     149.918 151.529 148.775  0.00  0.00     0.210 HD
ENDBRANCH  19  39
BRANCH  20  41
HETATM   41  O   UNK     0     149.695 153.210 145.900  0.00  0.00    -0.393 OA
HETATM   42  H   UNK     0     150.663 153.229 145.817  0.00  0.00     0.210 HD
ENDBRANCH  20  41
ENDBRANCH   1   3
TORSDOF 12
ENDMDL
MODEL 7
REMARK VINA RESULT:      -8.3      8.384     12.819
REMARK  12 active torsions:
REMARK  status: ('A' for Active; 'I' for Inactive)
REMARK    1  A    between atoms: O_1  and  C_10 
REMARK    2  A    between atoms: O_2  and  C_17 
REMARK    3  A    between atoms: O_3  and  C_20 
REMARK    4  A    between atoms: O_4  and  C_27 
REMARK    5  A    between atoms: O_6  and  C_29 
REMARK    6  A    between atoms: O_7  and  C_28 
REMARK    7  A    between atoms: O_8  and  C_33 
REMARK    8  A    between atoms: C_11  and  C_20 
REMARK    9  A    between atoms: C_20  and  C_28 
REMARK   10  A    between atoms: C_28  and  C_31 
REMARK   11  A    between atoms: C_31  and  C_32 
REMARK   12  A    between atoms: C_32  and  C_33 
ROOT
HETATM    1  O   UNK     0     150.899 156.825 149.995  0.00  0.00    -0.384 OA
HETATM    2  H   UNK     0     150.651 156.425 150.840  0.00  0.00     0.211 HD
ENDROOT
BRANCH   1   3
HETATM    3  C   UNK     0     151.026 155.823 148.960  0.00  0.00     0.090 C 
HETATM    4  C   UNK     0     151.368 154.453 149.601  0.00  0.00    -0.000 C 
HETATM    5  C   UNK     0     152.760 154.760 150.213  0.00  0.00     0.034 C 
HETATM    6  C   UNK     0     150.290 154.117 150.641  0.00  0.00     0.045 C 
HETATM    7  C   UNK     0     151.464 153.302 148.562  0.00  0.00     0.019 C 
HETATM    8  C   UNK     0     153.446 155.639 149.141  0.00  0.00     0.012 C 
HETATM    9  C   UNK     0     152.325 156.165 148.218  0.00  0.00     0.044 C 
HETATM   10  C   UNK     0     148.885 154.079 150.004  0.00  0.00     0.128 C 
HETATM   11  C   UNK     0     148.508 155.361 149.174  0.00  0.00     0.055 C 
HETATM   12  C   UNK     0     147.112 155.251 148.416  0.00  0.00    -0.021 C 
HETATM   13  C   UNK     0     149.681 155.778 148.262  0.00  0.00    -0.034 C 
HETATM   14  C   UNK     0     147.018 156.330 147.299  0.00  0.00     0.071 C 
HETATM   15  C   UNK     0     145.903 155.412 149.410  0.00  0.00     0.045 C 
HETATM   16  C   UNK     0     146.967 153.861 147.736  0.00  0.00     0.017 C 
HETATM   17  C   UNK     0     146.870 157.779 147.797  0.00  0.00     0.047 C 
HETATM   18  C   UNK     0     148.210 156.256 146.368  0.00  0.00     0.154 C 
HETATM   19  C   UNK     0     146.140 157.900 149.130  0.00  0.00     0.147 C 
HETATM   20  C   UNK     0     145.163 156.752 149.349  0.00  0.00     0.147 C 
HETATM   21  O   UNK     0     148.096 156.384 145.151  0.00  0.00    -0.293 OA
HETATM   22  C   UNK     0     149.549 156.122 146.973  0.00  0.00     0.057 C 
BRANCH   5  23
HETATM   23  C   UNK     0     153.603 153.561 150.622  0.00  0.00     0.084 C 
HETATM   24  C   UNK     0     152.771 152.614 151.502  0.00  0.00     0.049 C 
BRANCH  23  25
HETATM   25  O   UNK     0     153.967 152.838 149.439  0.00  0.00    -0.387 OA
HETATM   26  H   UNK     0     154.750 153.254 149.043  0.00  0.00     0.210 HD
ENDBRANCH  23  25
BRANCH  23  27
HETATM   27  C   UNK     0     154.908 153.982 151.353  0.00  0.00     0.152 C 
BRANCH  27  28
HETATM   28  O   UNK     0     155.546 152.823 151.900  0.00  0.00    -0.393 OA
HETATM   29  H   UNK     0     156.482 152.856 151.637  0.00  0.00     0.210 HD
ENDBRANCH  27  28
BRANCH  27  30
HETATM   30  C   UNK     0     154.696 155.000 152.489  0.00  0.00     0.037 C 
BRANCH  30  31
HETATM   31  C   UNK     0     155.524 156.281 152.279  0.00  0.00     0.040 C 
BRANCH  31  32
HETATM   32  C   UNK     0     154.712 157.590 152.363  0.00  0.00     0.051 C 
HETATM   33  C   UNK     0     154.865 158.374 151.055  0.00  0.00     0.045 C 
HETATM   34  C   UNK     0     153.229 157.343 152.652  0.00  0.00     0.045 C 
BRANCH  32  35
HETATM   35  O   UNK     0     155.251 158.388 153.419  0.00  0.00    -0.391 OA
HETATM   36  H   UNK     0     156.205 158.211 153.485  0.00  0.00     0.210 HD
ENDBRANCH  32  35
ENDBRANCH  31  32
ENDBRANCH  30  31
ENDBRANCH  27  30
ENDBRANCH  23  27
ENDBRANCH   5  23
BRANCH  10  37
HETATM   37  O   UNK     0     147.951 153.873 151.061  0.00  0.00    -0.395 OA
HETATM   38  H   UNK     0     147.965 152.927 151.288  0.00  0.00     0.210 HD
ENDBRANCH  10  37
BRANCH  19  39
HETATM   39  O   UNK     0     145.455 159.149 149.166  0.00  0.00    -0.393 OA
HETATM   40  H   UNK     0     144.586 159.008 149.577  0.00  0.00     0.210 HD
ENDBRANCH  19  39
BRANCH  20  41
HETATM   41  O   UNK     0     144.205 156.707 148.290  0.00  0.00    -0.393 OA
HETATM   42  H   UNK     0     144.693 156.637 147.453  0.00  0.00     0.210 HD
ENDBRANCH  20  41
ENDBRANCH   1   3
TORSDOF 12
ENDMDL
MODEL 8
REMARK VINA RESULT:      -8.3      1.662      2.486
REMARK  12 active torsions:
REMARK  status: ('A' for Active; 'I' for Inactive)
REMARK    1  A    between atoms: O_1  and  C_10 
REMARK    2  A    between atoms: O_2  and  C_17 
REMARK    3  A    between atoms: O_3  and  C_20 
REMARK    4  A    between atoms: O_4  and  C_27 
REMARK    5  A    between atoms: O_6  and  C_29 
REMARK    6  A    between atoms: O_7  and  C_28 
REMARK    7  A    between atoms: O_8  and  C_33 
REMARK    8  A    between atoms: C_11  and  C_20 
REMARK    9  A    between atoms: C_20  and  C_28 
REMARK   10  A    between atoms: C_28  and  C_31 
REMARK   11  A    between atoms: C_31  and  C_32 
REMARK   12  A    between atoms: C_32  and  C_33 
ROOT
HETATM    1  O   UNK     0     148.851 149.124 144.793  0.00  0.00    -0.384 OA
HETATM    2  H   UNK     0     149.478 149.641 145.319  0.00  0.00     0.211 HD
ENDROOT
BRANCH   1   3
HETATM    3  C   UNK     0     149.521 148.068 144.068  0.00  0.00     0.090 C 
HETATM    4  C   UNK     0     149.217 148.203 142.554  0.00  0.00    -0.000 C 
HETATM    5  C   UNK     0     147.685 147.960 142.544  0.00  0.00     0.034 C 
HETATM    6  C   UNK     0     149.630 149.609 142.096  0.00  0.00     0.045 C 
HETATM    7  C   UNK     0     149.949 147.139 141.689  0.00  0.00     0.019 C 
HETATM    8  C   UNK     0     147.485 146.827 143.576  0.00  0.00     0.012 C 
HETATM    9  C   UNK     0     148.769 146.780 144.434  0.00  0.00     0.044 C 
HETATM   10  C   UNK     0     151.124 149.876 142.371  0.00  0.00     0.128 C 
HETATM   11  C   UNK     0     151.575 149.595 143.852  0.00  0.00     0.055 C 
HETATM   12  C   UNK     0     153.143 149.748 144.088  0.00  0.00    -0.021 C 
HETATM   13  C   UNK     0     150.999 148.251 144.346  0.00  0.00    -0.034 C 
HETATM   14  C   UNK     0     153.561 149.044 145.412  0.00  0.00     0.071 C 
HETATM   15  C   UNK     0     153.573 151.260 144.134  0.00  0.00     0.045 C 
HETATM   16  C   UNK     0     153.938 149.078 142.932  0.00  0.00     0.017 C 
HETATM   17  C   UNK     0     153.088 149.739 146.702  0.00  0.00     0.047 C 
HETATM   18  C   UNK     0     153.092 147.604 145.436  0.00  0.00     0.154 C 
HETATM   19  C   UNK     0     152.957 151.253 146.573  0.00  0.00     0.147 C 
HETATM   20  C   UNK     0     153.904 151.817 145.523  0.00  0.00     0.147 C 
HETATM   21  O   UNK     0     153.796 146.696 145.871  0.00  0.00    -0.293 OA
HETATM   22  C   UNK     0     151.707 147.324 145.008  0.00  0.00     0.057 C 
BRANCH   5  23
HETATM   23  C   UNK     0     147.053 147.649 141.194  0.00  0.00     0.084 C 
HETATM   24  C   UNK     0     145.901 148.628 140.919  0.00  0.00     0.049 C 
BRANCH  23  25
HETATM   25  O   UNK     0     148.041 147.852 140.174  0.00  0.00    -0.387 OA
HETATM   26  H   UNK     0     147.593 148.072 139.341  0.00  0.00     0.210 HD
ENDBRANCH  23  25
BRANCH  23  27
HETATM   27  C   UNK     0     146.559 146.180 141.102  0.00  0.00     0.152 C 
BRANCH  27  28
HETATM   28  O   UNK     0     147.229 145.514 140.027  0.00  0.00    -0.393 OA
HETATM   29  H   UNK     0     146.546 145.169 139.427  0.00  0.00     0.210 HD
ENDBRANCH  27  28
BRANCH  27  30
HETATM   30  C   UNK     0     145.039 146.036 140.889  0.00  0.00     0.037 C 
BRANCH  30  31
HETATM   31  C   UNK     0     144.425 144.970 141.815  0.00  0.00     0.040 C 
BRANCH  31  32
HETATM   32  C   UNK     0     144.427 143.540 141.235  0.00  0.00     0.051 C 
HETATM   33  C   UNK     0     143.558 142.630 142.109  0.00  0.00     0.045 C 
HETATM   34  C   UNK     0     143.935 143.494 139.785  0.00  0.00     0.045 C 
BRANCH  32  35
HETATM   35  O   UNK     0     145.764 143.040 141.274  0.00  0.00    -0.391 OA
HETATM   36  H   UNK     0     145.834 142.394 141.997  0.00  0.00     0.210 HD
ENDBRANCH  32  35
ENDBRANCH  31  32
ENDBRANCH  30  31
ENDBRANCH  27  30
ENDBRANCH  23  27
ENDBRANCH   5  23
BRANCH  10  37
HETATM   37  O   UNK     0     151.380 151.232 142.018  0.00  0.00    -0.395 OA
HETATM   38  H   UNK     0     150.669 151.776 142.397  0.00  0.00     0.210 HD
ENDBRANCH  10  37
BRANCH  19  39
HETATM   39  O   UNK     0     153.213 151.844 147.843  0.00  0.00    -0.393 OA
HETATM   40  H   UNK     0     152.360 152.041 148.265  0.00  0.00     0.210 HD
ENDBRANCH  19  39
BRANCH  20  41
HETATM   41  O   UNK     0     155.256 151.489 145.846  0.00  0.00    -0.393 OA
HETATM   42  H   UNK     0     155.423 150.585 145.530  0.00  0.00     0.210 HD
ENDBRANCH  20  41
ENDBRANCH   1   3
TORSDOF 12
ENDMDL
MODEL 9
REMARK VINA RESULT:      -8.3      4.023      5.938
REMARK  12 active torsions:
REMARK  status: ('A' for Active; 'I' for Inactive)
REMARK    1  A    between atoms: O_1  and  C_10 
REMARK    2  A    between atoms: O_2  and  C_17 
REMARK    3  A    between atoms: O_3  and  C_20 
REMARK    4  A    between atoms: O_4  and  C_27 
REMARK    5  A    between atoms: O_6  and  C_29 
REMARK    6  A    between atoms: O_7  and  C_28 
REMARK    7  A    between atoms: O_8  and  C_33 
REMARK    8  A    between atoms: C_11  and  C_20 
REMARK    9  A    between atoms: C_20  and  C_28 
REMARK   10  A    between atoms: C_28  and  C_31 
REMARK   11  A    between atoms: C_31  and  C_32 
REMARK   12  A    between atoms: C_32  and  C_33 
ROOT
HETATM    1  O   UNK     0     151.559 146.581 145.307  0.00  0.00    -0.384 OA
HETATM    2  H   UNK     0     150.853 145.921 145.272  0.00  0.00     0.211 HD
ENDROOT
BRANCH   1   3
HETATM    3  C   UNK     0     151.964 146.987 143.980  0.00  0.00     0.090 C 
HETATM    4  C   UNK     0     151.031 146.332 142.929  0.00  0.00    -0.000 C 
HETATM    5  C   UNK     0     151.358 144.831 143.146  0.00  0.00     0.034 C 
HETATM    6  C   UNK     0     149.581 146.710 143.261  0.00  0.00     0.045 C 
HETATM    7  C   UNK     0     151.359 146.763 141.472  0.00  0.00     0.019 C 
HETATM    8  C   UNK     0     152.888 144.818 143.372  0.00  0.00     0.012 C 
HETATM    9  C   UNK     0     153.295 146.266 143.722  0.00  0.00     0.044 C 
HETATM   10  C   UNK     0     149.385 148.240 143.277  0.00  0.00     0.128 C 
HETATM   11  C   UNK     0     150.408 149.019 144.184  0.00  0.00     0.055 C 
HETATM   12  C   UNK     0     150.278 150.604 144.087  0.00  0.00    -0.021 C 
HETATM   13  C   UNK     0     151.841 148.496 143.954  0.00  0.00    -0.034 C 
HETATM   14  C   UNK     0     151.563 151.285 144.640  0.00  0.00     0.071 C 
HETATM   15  C   UNK     0     149.020 151.128 144.874  0.00  0.00     0.045 C 
HETATM   16  C   UNK     0     150.112 151.050 142.607  0.00  0.00     0.017 C 
HETATM   17  C   UNK     0     151.754 151.186 146.164  0.00  0.00     0.047 C 
HETATM   18  C   UNK     0     152.803 150.746 143.958  0.00  0.00     0.154 C 
HETATM   19  C   UNK     0     150.447 151.124 146.946  0.00  0.00     0.147 C 
HETATM   20  C   UNK     0     149.311 151.821 146.209  0.00  0.00     0.147 C 
HETATM   21  O   UNK     0     153.734 151.476 143.624  0.00  0.00    -0.293 OA
HETATM   22  C   UNK     0     152.914 149.284 143.789  0.00  0.00     0.057 C 
BRANCH   5  23
HETATM   23  C   UNK     0     150.913 143.872 142.051  0.00  0.00     0.084 C 
HETATM   24  C   UNK     0     149.532 143.291 142.396  0.00  0.00     0.049 C 
BRANCH  23  25
HETATM   25  O   UNK     0     150.774 144.611 140.830  0.00  0.00    -0.387 OA
HETATM   26  H   UNK     0     151.386 145.366 140.848  0.00  0.00     0.210 HD
ENDBRANCH  23  25
BRANCH  23  27
HETATM   27  C   UNK     0     151.943 142.734 141.813  0.00  0.00     0.152 C 
BRANCH  27  28
HETATM   28  O   UNK     0     151.806 142.235 140.479  0.00  0.00    -0.393 OA
HETATM   29  H   UNK     0     151.835 141.264 140.527  0.00  0.00     0.210 HD
ENDBRANCH  27  28
BRANCH  27  30
HETATM   30  C   UNK     0     151.813 141.549 142.790  0.00  0.00     0.037 C 
BRANCH  30  31
HETATM   31  C   UNK     0     153.147 141.227 143.488  0.00  0.00     0.040 C 
BRANCH  31  32
HETATM   32  C   UNK     0     153.246 139.794 144.051  0.00  0.00     0.051 C 
HETATM   33  C   UNK     0     154.623 139.207 143.724  0.00  0.00     0.045 C 
HETATM   34  C   UNK     0     153.002 139.739 145.561  0.00  0.00     0.045 C 
BRANCH  32  35
HETATM   35  O   UNK     0     152.260 138.987 143.404  0.00  0.00    -0.391 OA
HETATM   36  H   UNK     0     151.380 139.342 143.616  0.00  0.00     0.210 HD
ENDBRANCH  32  35
ENDBRANCH  31  32
ENDBRANCH  30  31
ENDBRANCH  27  30
ENDBRANCH  23  27
ENDBRANCH   5  23
BRANCH  10  37
HETATM   37  O   UNK     0     148.048 148.488 143.701  0.00  0.00    -0.395 OA
HETATM   38  H   UNK     0     147.854 149.426 143.535  0.00  0.00     0.210 HD
ENDBRANCH  10  37
BRANCH  19  39
HETATM   39  O   UNK     0     150.649 151.718 148.225  0.00  0.00    -0.393 OA
HETATM   40  H   UNK     0     151.522 151.447 148.553  0.00  0.00     0.210 HD
ENDBRANCH  19  39
BRANCH  20  41
HETATM   41  O   UNK     0     149.645 153.188 145.960  0.00  0.00    -0.393 OA
HETATM   42  H   UNK     0     150.614 153.254 145.935  0.00  0.00     0.210 HD
ENDBRANCH  20  41
ENDBRANCH   1   3
TORSDOF 12
ENDMDL
MODEL 10
REMARK VINA RESULT:      -8.2      2.126      8.411
REMARK  12 active torsions:
REMARK  status: ('A' for Active; 'I' for Inactive)
REMARK    1  A    between atoms: O_1  and  C_10 
REMARK    2  A    between atoms: O_2  and  C_17 
REMARK    3  A    between atoms: O_3  and  C_20 
REMARK    4  A    between atoms: O_4  and  C_27 
REMARK    5  A    between atoms: O_6  and  C_29 
REMARK    6  A    between atoms: O_7  and  C_28 
REMARK    7  A    between atoms: O_8  and  C_33 
REMARK    8  A    between atoms: C_11  and  C_20 
REMARK    9  A    between atoms: C_20  and  C_28 
REMARK   10  A    between atoms: C_28  and  C_31 
REMARK   11  A    between atoms: C_31  and  C_32 
REMARK   12  A    between atoms: C_32  and  C_33 
ROOT
HETATM    1  O   UNK     0     152.179 148.869 141.876  0.00  0.00    -0.384 OA
HETATM    2  H   UNK     0     152.193 148.226 141.153  0.00  0.00     0.211 HD
ENDROOT
BRANCH   1   3
HETATM    3  C   UNK     0     151.924 148.224 143.145  0.00  0.00     0.090 C 
HETATM    4  C   UNK     0     151.677 149.298 144.234  0.00  0.00    -0.000 C 
HETATM    5  C   UNK     0     153.060 150.000 144.267  0.00  0.00     0.034 C 
HETATM    6  C   UNK     0     150.527 150.205 143.775  0.00  0.00     0.045 C 
HETATM    7  C   UNK     0     151.335 148.689 145.623  0.00  0.00     0.019 C 
HETATM    8  C   UNK     0     154.067 148.836 144.125  0.00  0.00     0.012 C 
HETATM    9  C   UNK     0     153.272 147.629 143.578  0.00  0.00     0.044 C 
HETATM   10  C   UNK     0     149.240 149.396 143.514  0.00  0.00     0.128 C 
HETATM   11  C   UNK     0     149.426 148.165 142.551  0.00  0.00     0.055 C 
HETATM   12  C   UNK     0     148.122 147.264 142.398  0.00  0.00    -0.021 C 
HETATM   13  C   UNK     0     150.692 147.368 142.932  0.00  0.00    -0.034 C 
HETATM   14  C   UNK     0     148.494 145.871 141.813  0.00  0.00     0.071 C 
HETATM   15  C   UNK     0     147.050 147.955 141.476  0.00  0.00     0.045 C 
HETATM   16  C   UNK     0     147.454 147.027 143.781  0.00  0.00     0.017 C 
HETATM   17  C   UNK     0     148.921 145.872 140.334  0.00  0.00     0.047 C 
HETATM   18  C   UNK     0     149.583 145.209 142.632  0.00  0.00     0.154 C 
HETATM   19  C   UNK     0     148.263 146.970 139.505  0.00  0.00     0.147 C 
HETATM   20  C   UNK     0     146.906 147.370 140.067  0.00  0.00     0.147 C 
HETATM   21  O   UNK     0     149.561 144.009 142.897  0.00  0.00    -0.293 OA
HETATM   22  C   UNK     0     150.742 146.032 143.029  0.00  0.00     0.057 C 
BRANCH   5  23
HETATM   23  C   UNK     0     153.346 150.886 145.472  0.00  0.00     0.084 C 
HETATM   24  C   UNK     0     153.123 150.090 146.769  0.00  0.00     0.049 C 
BRANCH  23  25
HETATM   25  O   UNK     0     154.727 151.267 145.436  0.00  0.00    -0.387 OA
HETATM   26  H   UNK     0     155.220 150.727 146.076  0.00  0.00     0.210 HD
ENDBRANCH  23  25
BRANCH  23  27
HETATM   27  C   UNK     0     152.486 152.179 145.468  0.00  0.00     0.152 C 
BRANCH  27  28
HETATM   28  O   UNK     0     153.344 153.325 145.469  0.00  0.00    -0.393 OA
HETATM   29  H   UNK     0     154.193 153.052 145.855  0.00  0.00     0.210 HD
ENDBRANCH  27  28
BRANCH  27  30
HETATM   30  C   UNK     0     151.517 152.298 146.660  0.00  0.00     0.037 C 
BRANCH  30  31
HETATM   31  C   UNK     0     150.791 153.656 146.681  0.00  0.00     0.040 C 
BRANCH  31  32
HETATM   32  C   UNK     0     149.251 153.559 146.675  0.00  0.00     0.051 C 
HETATM   33  C   UNK     0     148.668 154.703 145.838  0.00  0.00     0.045 C 
HETATM   34  C   UNK     0     148.750 152.214 146.140  0.00  0.00     0.045 C 
BRANCH  32  35
HETATM   35  O   UNK     0     148.785 153.714 148.016  0.00  0.00    -0.391 OA
HETATM   36  H   UNK     0     147.984 154.264 148.005  0.00  0.00     0.210 HD
ENDBRANCH  32  35
ENDBRANCH  31  32
ENDBRANCH  30  31
ENDBRANCH  27  30
ENDBRANCH  23  27
ENDBRANCH   5  23
BRANCH  10  37
HETATM   37  O   UNK     0     148.273 150.301 142.989  0.00  0.00    -0.395 OA
HETATM   38  H   UNK     0     147.690 149.799 142.395  0.00  0.00     0.210 HD
ENDBRANCH  10  37
BRANCH  19  39
HETATM   39  O   UNK     0     148.131 146.514 138.162  0.00  0.00    -0.393 OA
HETATM   40  H   UNK     0     147.496 147.090 137.705  0.00  0.00     0.210 HD
ENDBRANCH  19  39
BRANCH  20  41
HETATM   41  O   UNK     0     146.036 146.238 140.120  0.00  0.00    -0.393 OA
HETATM   42  H   UNK     0     145.249 146.447 139.591  0.00  0.00     0.210 HD
ENDBRANCH  20  41
ENDBRANCH   1   3
TORSDOF 12
ENDMDL
