MODEL 1
REMARK VINA RESULT:    -8.067      0.000      0.000
REMARK INTER + INTRA:         -21.335
REMARK INTER:                 -17.264
REMARK INTRA:                  -4.072
REMARK UNBOUND:                -4.072
REMARK  26 active torsions:
REMARK  status: ('A' for Active; 'I' for Inactive)
REMARK    1  A    between atoms: O_2  and  C_29 
REMARK    2  A    between atoms: O_2  and  C_23 
REMARK    3  A    between atoms: O_3  and  C_24 
REMARK    4  A    between atoms: O_3  and  C_30 
REMARK    5  A    between atoms: O_4  and  C_26 
REMARK    6  A    between atoms: O_5  and  C_31 
REMARK    7  A    between atoms: O_5  and  C_27 
REMARK    8  A    between atoms: O_6  and  C_28 
REMARK    9  A    between atoms: O_6  and  C_34 
REMARK   10  A    between atoms: O_11  and  C_43 
REMARK   11  A    between atoms: O_12  and  C_44 
REMARK   12  A    between atoms: O_13  and  C_45 
REMARK   13  A    between atoms: O_14  and  C_46 
REMARK   14  A    between atoms: O_15  and  C_49 
REMARK   15  A    between atoms: O_16  and  C_50 
REMARK   16  A    between atoms: O_17  and  C_51 
REMARK   17  A    between atoms: O_18  and  C_52 
REMARK   18  A    between atoms: O_19  and  C_53 
REMARK   19  A    between atoms: O_20  and  C_54 
REMARK   20  A    between atoms: O_21  and  C_55 
REMARK   21  A    between atoms: O_22  and  C_56 
REMARK   22  A    between atoms: C_25  and  C_28 
REMARK   23  A    between atoms: C_29  and  C_32 
REMARK   24  A    between atoms: C_30  and  C_33 
REMARK   25  A    between atoms: C_31  and  C_35 
REMARK   26  A    between atoms: C_34  and  C_36 
ROOT
HETATM    1  O   UNL     1     -24.384  -3.697  57.372  1.00  0.00    -0.348 OA
HETATM    2  C   UNL     1     -23.411  -2.997  59.468  1.00  0.00     0.195 C 
HETATM    3  C   UNL     1     -24.812  -2.843  60.078  1.00  0.00     0.198 C 
HETATM    4  C   UNL     1     -23.507  -2.727  57.956  1.00  0.00     0.181 C 
HETATM    5  C   UNL     1     -25.871  -3.676  59.327  1.00  0.00     0.206 C 
HETATM    6  C   UNL     1     -25.739  -3.518  57.793  1.00  0.00     0.301 C 
ENDROOT
BRANCH   4   7
HETATM    7  C   UNL     1     -22.122  -2.783  57.293  1.00  0.00     0.213 C 
BRANCH   7   8
HETATM    8  O   UNL     1     -21.961  -1.716  56.346  1.00  0.00    -0.315 OA
BRANCH   8   9
HETATM    9  C   UNL     1     -22.170  -2.076  55.053  1.00  0.00     0.293 C 
HETATM   10  O   UNL     1     -21.622  -2.985  54.452  1.00  0.00    -0.259 OA
BRANCH   9  11
HETATM   11  C   UNL     1     -23.188  -1.191  54.448  1.00  0.00     0.045 A 
HETATM   12  C   UNL     1     -22.819  -0.033  53.741  1.00  0.00     0.057 A 
HETATM   13  C   UNL     1     -23.812   0.736  53.143  1.00  0.00     0.102 A 
HETATM   14  C   UNL     1     -25.148   0.367  53.257  1.00  0.00     0.132 A 
HETATM   15  C   UNL     1     -25.504  -0.775  53.963  1.00  0.00     0.102 A 
HETATM   16  C   UNL     1     -24.534  -1.567  54.557  1.00  0.00     0.057 A 
BRANCH  13  17
HETATM   17  O   UNL     1     -23.524   1.861  52.421  1.00  0.00    -0.358 OA
HETATM   18  H   UNL     1     -22.959   2.443  52.960  1.00  0.00     0.217 HD
ENDBRANCH  13  17
BRANCH  14  19
HETATM   19  O   UNL     1     -26.130   1.117  52.668  1.00  0.00    -0.356 OA
HETATM   20  H   UNL     1     -25.658   1.653  51.998  1.00  0.00     0.218 HD
ENDBRANCH  14  19
BRANCH  15  21
HETATM   21  O   UNL     1     -26.817  -1.132  54.072  1.00  0.00    -0.358 OA
HETATM   22  H   UNL     1     -26.958  -1.279  55.030  1.00  0.00     0.217 HD
ENDBRANCH  15  21
ENDBRANCH   9  11
ENDBRANCH   8   9
ENDBRANCH   7   8
ENDBRANCH   4   7
BRANCH   2  23
HETATM   23  O   UNL     1     -22.506  -2.020  60.037  1.00  0.00    -0.307 OA
BRANCH  23  24
HETATM   24  C   UNL     1     -21.518  -2.203  60.945  1.00  0.00     0.294 C 
HETATM   25  O   UNL     1     -20.640  -3.035  60.741  1.00  0.00    -0.259 OA
BRANCH  24  26
HETATM   26  C   UNL     1     -21.449  -1.378  62.173  1.00  0.00     0.045 A 
HETATM   27  C   UNL     1     -20.611  -1.702  63.250  1.00  0.00     0.057 A 
HETATM   28  C   UNL     1     -20.625  -0.904  64.390  1.00  0.00     0.102 A 
HETATM   29  C   UNL     1     -21.397   0.250  64.425  1.00  0.00     0.132 A 
HETATM   30  C   UNL     1     -22.164   0.613  63.327  1.00  0.00     0.102 A 
HETATM   31  C   UNL     1     -22.195  -0.191  62.195  1.00  0.00     0.057 A 
BRANCH  28  32
HETATM   32  O   UNL     1     -19.898  -1.217  65.502  1.00  0.00    -0.358 OA
HETATM   33  H   UNL     1     -20.507  -1.466  66.222  1.00  0.00     0.217 HD
ENDBRANCH  28  32
BRANCH  29  34
HETATM   34  O   UNL     1     -21.409   1.045  65.539  1.00  0.00    -0.356 OA
HETATM   35  H   UNL     1     -22.358   1.233  65.691  1.00  0.00     0.218 HD
ENDBRANCH  29  34
BRANCH  30  36
HETATM   36  O   UNL     1     -22.896   1.762  63.353  1.00  0.00    -0.358 OA
HETATM   37  H   UNL     1     -23.303   1.822  62.466  1.00  0.00     0.217 HD
ENDBRANCH  30  36
ENDBRANCH  24  26
ENDBRANCH  23  24
ENDBRANCH   2  23
BRANCH   6  38
HETATM   38  O   UNL     1     -26.553  -4.550  57.193  1.00  0.00    -0.283 OA
BRANCH  38  39
HETATM   39  C   UNL     1     -27.130  -4.497  55.972  1.00  0.00     0.295 C 
HETATM   40  O   UNL     1     -27.490  -3.439  55.471  1.00  0.00    -0.259 OA
BRANCH  39  41
HETATM   41  C   UNL     1     -27.468  -5.760  55.290  1.00  0.00     0.045 A 
HETATM   42  C   UNL     1     -27.971  -6.858  56.002  1.00  0.00     0.057 A 
HETATM   43  C   UNL     1     -28.311  -8.013  55.308  1.00  0.00     0.102 A 
HETATM   44  C   UNL     1     -28.076  -8.101  53.940  1.00  0.00     0.132 A 
HETATM   45  C   UNL     1     -27.506  -7.035  53.254  1.00  0.00     0.102 A 
HETATM   46  C   UNL     1     -27.203  -5.855  53.917  1.00  0.00     0.057 A 
BRANCH  43  47
HETATM   47  O   UNL     1     -28.886  -9.086  55.927  1.00  0.00    -0.358 OA
HETATM   48  H   UNL     1     -28.269  -9.427  56.599  1.00  0.00     0.217 HD
ENDBRANCH  43  47
BRANCH  44  49
HETATM   49  O   UNL     1     -28.399  -9.238  53.251  1.00  0.00    -0.356 OA
HETATM   50  H   UNL     1     -28.426  -8.956  52.313  1.00  0.00     0.218 HD
ENDBRANCH  44  49
BRANCH  45  51
HETATM   51  O   UNL     1     -27.238  -7.144  51.921  1.00  0.00    -0.358 OA
HETATM   52  H   UNL     1     -27.589  -8.021  51.664  1.00  0.00     0.217 HD
ENDBRANCH  45  51
ENDBRANCH  39  41
ENDBRANCH  38  39
ENDBRANCH   6  38
BRANCH   3  53
HETATM   53  O   UNL     1     -24.825  -3.087  61.514  1.00  0.00    -0.306 OA
BRANCH  53  54
HETATM   54  C   UNL     1     -24.784  -4.361  61.970  1.00  0.00     0.294 C 
HETATM   55  O   UNL     1     -25.604  -5.231  61.737  1.00  0.00    -0.259 OA
BRANCH  54  56
HETATM   56  C   UNL     1     -23.626  -4.552  62.866  1.00  0.00     0.045 A 
HETATM   57  C   UNL     1     -23.636  -3.901  64.112  1.00  0.00     0.057 A 
HETATM   58  C   UNL     1     -22.578  -4.103  64.990  1.00  0.00     0.102 A 
HETATM   59  C   UNL     1     -21.539  -4.963  64.646  1.00  0.00     0.132 A 
HETATM   60  C   UNL     1     -21.538  -5.607  63.416  1.00  0.00     0.102 A 
HETATM   61  C   UNL     1     -22.568  -5.398  62.508  1.00  0.00     0.057 A 
BRANCH  58  62
HETATM   62  O   UNL     1     -22.514  -3.484  66.206  1.00  0.00    -0.358 OA
HETATM   63  H   UNL     1     -21.943  -4.008  66.795  1.00  0.00     0.217 HD
ENDBRANCH  58  62
BRANCH  59  64
HETATM   64  O   UNL     1     -20.506  -5.188  65.515  1.00  0.00    -0.356 OA
HETATM   65  H   UNL     1     -20.559  -4.448  66.154  1.00  0.00     0.218 HD
ENDBRANCH  59  64
BRANCH  60  66
HETATM   66  O   UNL     1     -20.529  -6.465  63.092  1.00  0.00    -0.358 OA
HETATM   67  H   UNL     1     -19.734  -6.089  63.521  1.00  0.00     0.217 HD
ENDBRANCH  60  66
ENDBRANCH  54  56
ENDBRANCH  53  54
ENDBRANCH   3  53
BRANCH   5  68
HETATM   68  O   UNL     1     -27.178  -3.259  59.760  1.00  0.00    -0.388 OA
HETATM   69  H   UNL     1     -27.726  -3.186  58.956  1.00  0.00     0.210 HD
ENDBRANCH   5  68
TORSDOF 26
ENDMDL
MODEL 2
REMARK VINA RESULT:    -8.044      2.207      6.421
REMARK INTER + INTRA:         -21.285
REMARK INTER:                 -16.268
REMARK INTRA:                  -5.017
REMARK UNBOUND:                -4.072
REMARK  26 active torsions:
REMARK  status: ('A' for Active; 'I' for Inactive)
REMARK    1  A    between atoms: O_2  and  C_29 
REMARK    2  A    between atoms: O_2  and  C_23 
REMARK    3  A    between atoms: O_3  and  C_24 
REMARK    4  A    between atoms: O_3  and  C_30 
REMARK    5  A    between atoms: O_4  and  C_26 
REMARK    6  A    between atoms: O_5  and  C_31 
REMARK    7  A    between atoms: O_5  and  C_27 
REMARK    8  A    between atoms: O_6  and  C_28 
REMARK    9  A    between atoms: O_6  and  C_34 
REMARK   10  A    between atoms: O_11  and  C_43 
REMARK   11  A    between atoms: O_12  and  C_44 
REMARK   12  A    between atoms: O_13  and  C_45 
REMARK   13  A    between atoms: O_14  and  C_46 
REMARK   14  A    between atoms: O_15  and  C_49 
REMARK   15  A    between atoms: O_16  and  C_50 
REMARK   16  A    between atoms: O_17  and  C_51 
REMARK   17  A    between atoms: O_18  and  C_52 
REMARK   18  A    between atoms: O_19  and  C_53 
REMARK   19  A    between atoms: O_20  and  C_54 
REMARK   20  A    between atoms: O_21  and  C_55 
REMARK   21  A    between atoms: O_22  and  C_56 
REMARK   22  A    between atoms: C_25  and  C_28 
REMARK   23  A    between atoms: C_29  and  C_32 
REMARK   24  A    between atoms: C_30  and  C_33 
REMARK   25  A    between atoms: C_31  and  C_35 
REMARK   26  A    between atoms: C_34  and  C_36 
ROOT
HETATM    1  O   UNL     1     -21.125  -3.735  57.160  1.00  0.00    -0.348 OA
HETATM    2  C   UNL     1     -21.545  -3.626  59.536  1.00  0.00     0.195 C 
HETATM    3  C   UNL     1     -20.583  -2.435  59.661  1.00  0.00     0.198 C 
HETATM    4  C   UNL     1     -21.076  -4.507  58.365  1.00  0.00     0.181 C 
HETATM    5  C   UNL     1     -20.388  -1.699  58.319  1.00  0.00     0.206 C 
HETATM    6  C   UNL     1     -20.149  -2.689  57.155  1.00  0.00     0.301 C 
ENDROOT
BRANCH   4   7
HETATM    7  C   UNL     1     -21.948  -5.767  58.234  1.00  0.00     0.213 C 
BRANCH   7   8
HETATM    8  O   UNL     1     -22.839  -5.662  57.113  1.00  0.00    -0.315 OA
BRANCH   8   9
HETATM    9  C   UNL     1     -24.128  -5.993  57.388  1.00  0.00     0.293 C 
HETATM   10  O   UNL     1     -24.510  -6.911  58.095  1.00  0.00    -0.259 OA
BRANCH   9  11
HETATM   11  C   UNL     1     -25.040  -5.058  56.694  1.00  0.00     0.045 A 
HETATM   12  C   UNL     1     -25.468  -5.302  55.378  1.00  0.00     0.057 A 
HETATM   13  C   UNL     1     -26.370  -4.422  54.790  1.00  0.00     0.102 A 
HETATM   14  C   UNL     1     -26.829  -3.314  55.494  1.00  0.00     0.132 A 
HETATM   15  C   UNL     1     -26.396  -3.078  56.792  1.00  0.00     0.102 A 
HETATM   16  C   UNL     1     -25.508  -3.946  57.408  1.00  0.00     0.057 A 
BRANCH  13  17
HETATM   17  O   UNL     1     -26.847  -4.609  53.522  1.00  0.00    -0.358 OA
HETATM   18  H   UNL     1     -27.495  -5.336  53.535  1.00  0.00     0.217 HD
ENDBRANCH  13  17
BRANCH  14  19
HETATM   19  O   UNL     1     -27.720  -2.446  54.923  1.00  0.00    -0.356 OA
HETATM   20  H   UNL     1     -27.207  -1.999  54.219  1.00  0.00     0.218 HD
ENDBRANCH  14  19
BRANCH  15  21
HETATM   21  O   UNL     1     -26.849  -1.989  57.479  1.00  0.00    -0.358 OA
HETATM   22  H   UNL     1     -27.201  -2.351  58.318  1.00  0.00     0.217 HD
ENDBRANCH  15  21
ENDBRANCH   9  11
ENDBRANCH   8   9
ENDBRANCH   7   8
ENDBRANCH   4   7
BRANCH   2  23
HETATM   23  O   UNL     1     -21.508  -4.430  60.740  1.00  0.00    -0.307 OA
BRANCH  23  24
HETATM   24  C   UNL     1     -22.441  -4.547  61.714  1.00  0.00     0.294 C 
HETATM   25  O   UNL     1     -22.099  -4.659  62.886  1.00  0.00    -0.259 OA
BRANCH  24  26
HETATM   26  C   UNL     1     -23.886  -4.498  61.394  1.00  0.00     0.045 A 
HETATM   27  C   UNL     1     -24.545  -3.303  61.068  1.00  0.00     0.057 A 
HETATM   28  C   UNL     1     -25.913  -3.324  60.817  1.00  0.00     0.102 A 
HETATM   29  C   UNL     1     -26.603  -4.529  60.805  1.00  0.00     0.132 A 
HETATM   30  C   UNL     1     -25.934  -5.721  61.048  1.00  0.00     0.102 A 
HETATM   31  C   UNL     1     -24.577  -5.718  61.341  1.00  0.00     0.057 A 
BRANCH  28  32
HETATM   32  O   UNL     1     -26.624  -2.182  60.581  1.00  0.00    -0.358 OA
HETATM   33  H   UNL     1     -27.403  -2.164  61.166  1.00  0.00     0.217 HD
ENDBRANCH  28  32
BRANCH  29  34
HETATM   34  O   UNL     1     -27.947  -4.559  60.550  1.00  0.00    -0.356 OA
HETATM   35  H   UNL     1     -28.246  -3.643  60.730  1.00  0.00     0.218 HD
ENDBRANCH  29  34
BRANCH  30  36
HETATM   36  O   UNL     1     -26.607  -6.905  61.004  1.00  0.00    -0.358 OA
HETATM   37  H   UNL     1     -25.911  -7.590  60.961  1.00  0.00     0.217 HD
ENDBRANCH  30  36
ENDBRANCH  24  26
ENDBRANCH  23  24
ENDBRANCH   2  23
BRANCH   6  38
HETATM   38  O   UNL     1     -20.284  -1.935  55.929  1.00  0.00    -0.283 OA
BRANCH  38  39
HETATM   39  C   UNL     1     -21.135  -2.211  54.916  1.00  0.00     0.295 C 
HETATM   40  O   UNL     1     -20.919  -3.112  54.115  1.00  0.00    -0.259 OA
BRANCH  39  41
HETATM   41  C   UNL     1     -22.277  -1.308  54.681  1.00  0.00     0.045 A 
HETATM   42  C   UNL     1     -23.257  -1.106  55.664  1.00  0.00     0.057 A 
HETATM   43  C   UNL     1     -24.294  -0.216  55.408  1.00  0.00     0.102 A 
HETATM   44  C   UNL     1     -24.396   0.399  54.166  1.00  0.00     0.132 A 
HETATM   45  C   UNL     1     -23.463   0.135  53.171  1.00  0.00     0.102 A 
HETATM   46  C   UNL     1     -22.393  -0.712  53.418  1.00  0.00     0.057 A 
BRANCH  43  47
HETATM   47  O   UNL     1     -25.231   0.092  56.353  1.00  0.00    -0.358 OA
HETATM   48  H   UNL     1     -26.079   0.267  55.907  1.00  0.00     0.217 HD
ENDBRANCH  43  47
BRANCH  44  49
HETATM   49  O   UNL     1     -25.419   1.269  53.903  1.00  0.00    -0.356 OA
HETATM   50  H   UNL     1     -26.186   0.692  53.705  1.00  0.00     0.218 HD
ENDBRANCH  44  49
BRANCH  45  51
HETATM   51  O   UNL     1     -23.594   0.708  51.940  1.00  0.00    -0.358 OA
HETATM   52  H   UNL     1     -22.725   0.580  51.508  1.00  0.00     0.217 HD
ENDBRANCH  45  51
ENDBRANCH  39  41
ENDBRANCH  38  39
ENDBRANCH   6  38
BRANCH   3  53
HETATM   53  O   UNL     1     -20.951  -1.534  60.745  1.00  0.00    -0.306 OA
BRANCH  53  54
HETATM   54  C   UNL     1     -20.256  -1.576  61.906  1.00  0.00     0.294 C 
HETATM   55  O   UNL     1     -19.399  -2.390  62.198  1.00  0.00    -0.259 OA
BRANCH  54  56
HETATM   56  C   UNL     1     -20.727  -0.522  62.827  1.00  0.00     0.045 A 
HETATM   57  C   UNL     1     -20.062  -0.367  64.055  1.00  0.00     0.057 A 
HETATM   58  C   UNL     1     -20.459   0.649  64.918  1.00  0.00     0.102 A 
HETATM   59  C   UNL     1     -21.484   1.516  64.551  1.00  0.00     0.132 A 
HETATM   60  C   UNL     1     -22.133   1.361  63.333  1.00  0.00     0.102 A 
HETATM   61  C   UNL     1     -21.776   0.335  62.467  1.00  0.00     0.057 A 
BRANCH  58  62
HETATM   62  O   UNL     1     -19.870   0.840  66.136  1.00  0.00    -0.358 OA
HETATM   63  H   UNL     1     -20.071   1.741  66.443  1.00  0.00     0.217 HD
ENDBRANCH  58  62
BRANCH  59  64
HETATM   64  O   UNL     1     -21.864   2.534  65.382  1.00  0.00    -0.356 OA
HETATM   65  H   UNL     1     -22.313   3.174  64.793  1.00  0.00     0.218 HD
ENDBRANCH  59  64
BRANCH  60  66
HETATM   66  O   UNL     1     -23.122   2.226  62.968  1.00  0.00    -0.358 OA
HETATM   67  H   UNL     1     -23.939   1.686  62.972  1.00  0.00     0.217 HD
ENDBRANCH  60  66
ENDBRANCH  54  56
ENDBRANCH  53  54
ENDBRANCH   3  53
BRANCH   5  68
HETATM   68  O   UNL     1     -19.271  -0.800  58.446  1.00  0.00    -0.388 OA
HETATM   69  H   UNL     1     -18.758  -0.878  57.620  1.00  0.00     0.210 HD
ENDBRANCH   5  68
TORSDOF 26
ENDMDL
MODEL 3
REMARK VINA RESULT:    -8.028     18.186     22.038
REMARK INTER + INTRA:         -21.252
REMARK INTER:                 -17.559
REMARK INTRA:                  -3.693
REMARK UNBOUND:                -4.072
REMARK  26 active torsions:
REMARK  status: ('A' for Active; 'I' for Inactive)
REMARK    1  A    between atoms: O_2  and  C_29 
REMARK    2  A    between atoms: O_2  and  C_23 
REMARK    3  A    between atoms: O_3  and  C_24 
REMARK    4  A    between atoms: O_3  and  C_30 
REMARK    5  A    between atoms: O_4  and  C_26 
REMARK    6  A    between atoms: O_5  and  C_31 
REMARK    7  A    between atoms: O_5  and  C_27 
REMARK    8  A    between atoms: O_6  and  C_28 
REMARK    9  A    between atoms: O_6  and  C_34 
REMARK   10  A    between atoms: O_11  and  C_43 
REMARK   11  A    between atoms: O_12  and  C_44 
REMARK   12  A    between atoms: O_13  and  C_45 
REMARK   13  A    between atoms: O_14  and  C_46 
REMARK   14  A    between atoms: O_15  and  C_49 
REMARK   15  A    between atoms: O_16  and  C_50 
REMARK   16  A    between atoms: O_17  and  C_51 
REMARK   17  A    between atoms: O_18  and  C_52 
REMARK   18  A    between atoms: O_19  and  C_53 
REMARK   19  A    between atoms: O_20  and  C_54 
REMARK   20  A    between atoms: O_21  and  C_55 
REMARK   21  A    between atoms: O_22  and  C_56 
REMARK   22  A    between atoms: C_25  and  C_28 
REMARK   23  A    between atoms: C_29  and  C_32 
REMARK   24  A    between atoms: C_30  and  C_33 
REMARK   25  A    between atoms: C_31  and  C_35 
REMARK   26  A    between atoms: C_34  and  C_36 
ROOT
HETATM    1  O   UNL     1     -40.763  10.599  56.625  1.00  0.00    -0.348 OA
HETATM    2  C   UNL     1     -39.525  12.638  56.248  1.00  0.00     0.195 C 
HETATM    3  C   UNL     1     -39.189  12.722  57.744  1.00  0.00     0.198 C 
HETATM    4  C   UNL     1     -40.880  11.924  56.094  1.00  0.00     0.181 C 
HETATM    5  C   UNL     1     -39.294  11.351  58.444  1.00  0.00     0.206 C 
HETATM    6  C   UNL     1     -40.590  10.605  58.044  1.00  0.00     0.301 C 
ENDROOT
BRANCH   4   7
HETATM    7  C   UNL     1     -41.320  11.879  54.622  1.00  0.00     0.213 C 
BRANCH   7   8
HETATM    8  O   UNL     1     -41.185  10.554  54.085  1.00  0.00    -0.315 OA
BRANCH   8   9
HETATM    9  C   UNL     1     -40.286  10.447  53.072  1.00  0.00     0.293 C 
HETATM   10  O   UNL     1     -39.115  10.118  53.169  1.00  0.00    -0.259 OA
BRANCH   9  11
HETATM   11  C   UNL     1     -40.937  10.792  51.790  1.00  0.00     0.045 A 
HETATM   12  C   UNL     1     -40.928  12.110  51.301  1.00  0.00     0.057 A 
HETATM   13  C   UNL     1     -41.505  12.373  50.063  1.00  0.00     0.102 A 
HETATM   14  C   UNL     1     -42.091  11.345  49.331  1.00  0.00     0.132 A 
HETATM   15  C   UNL     1     -42.101  10.047  49.825  1.00  0.00     0.102 A 
HETATM   16  C   UNL     1     -41.520   9.755  51.049  1.00  0.00     0.057 A 
BRANCH  13  17
HETATM   17  O   UNL     1     -41.512  13.625  49.515  1.00  0.00    -0.358 OA
HETATM   18  H   UNL     1     -41.938  13.582  48.641  1.00  0.00     0.217 HD
ENDBRANCH  13  17
BRANCH  14  19
HETATM   19  O   UNL     1     -42.658  11.596  48.111  1.00  0.00    -0.356 OA
HETATM   20  H   UNL     1     -42.224  10.960  47.506  1.00  0.00     0.218 HD
ENDBRANCH  14  19
BRANCH  15  21
HETATM   21  O   UNL     1     -42.677   9.043  49.103  1.00  0.00    -0.358 OA
HETATM   22  H   UNL     1     -43.640   9.158  49.239  1.00  0.00     0.217 HD
ENDBRANCH  15  21
ENDBRANCH   9  11
ENDBRANCH   8   9
ENDBRANCH   7   8
ENDBRANCH   4   7
BRANCH   2  23
HETATM   23  O   UNL     1     -39.657  13.967  55.688  1.00  0.00    -0.307 OA
BRANCH  23  24
HETATM   24  C   UNL     1     -39.018  14.510  54.625  1.00  0.00     0.294 C 
HETATM   25  O   UNL     1     -39.660  15.031  53.720  1.00  0.00    -0.259 OA
BRANCH  24  26
HETATM   26  C   UNL     1     -37.539  14.526  54.552  1.00  0.00     0.045 A 
HETATM   27  C   UNL     1     -36.789  13.390  54.214  1.00  0.00     0.057 A 
HETATM   28  C   UNL     1     -35.400  13.467  54.203  1.00  0.00     0.102 A 
HETATM   29  C   UNL     1     -34.766  14.680  54.439  1.00  0.00     0.132 A 
HETATM   30  C   UNL     1     -35.512  15.822  54.692  1.00  0.00     0.102 A 
HETATM   31  C   UNL     1     -36.897  15.758  54.749  1.00  0.00     0.057 A 
BRANCH  28  32
HETATM   32  O   UNL     1     -34.616  12.374  53.969  1.00  0.00    -0.358 OA
HETATM   33  H   UNL     1     -33.681  12.617  54.099  1.00  0.00     0.217 HD
ENDBRANCH  28  32
BRANCH  29  34
HETATM   34  O   UNL     1     -33.400  14.765  54.420  1.00  0.00    -0.356 OA
HETATM   35  H   UNL     1     -33.210  15.662  54.765  1.00  0.00     0.218 HD
ENDBRANCH  29  34
BRANCH  30  36
HETATM   36  O   UNL     1     -34.887  17.017  54.892  1.00  0.00    -0.358 OA
HETATM   37  H   UNL     1     -35.478  17.513  55.494  1.00  0.00     0.217 HD
ENDBRANCH  30  36
ENDBRANCH  24  26
ENDBRANCH  23  24
ENDBRANCH   2  23
BRANCH   6  38
HETATM   38  O   UNL     1     -40.445   9.241  58.500  1.00  0.00    -0.283 OA
BRANCH  38  39
HETATM   39  C   UNL     1     -39.490   8.369  58.105  1.00  0.00     0.295 C 
HETATM   40  O   UNL     1     -39.271   8.141  56.921  1.00  0.00    -0.259 OA
BRANCH  39  41
HETATM   41  C   UNL     1     -38.797   7.562  59.126  1.00  0.00     0.045 A 
HETATM   42  C   UNL     1     -38.290   8.149  60.294  1.00  0.00     0.057 A 
HETATM   43  C   UNL     1     -37.679   7.339  61.244  1.00  0.00     0.102 A 
HETATM   44  C   UNL     1     -37.504   5.982  60.997  1.00  0.00     0.132 A 
HETATM   45  C   UNL     1     -37.941   5.422  59.803  1.00  0.00     0.102 A 
HETATM   46  C   UNL     1     -38.597   6.201  58.860  1.00  0.00     0.057 A 
BRANCH  43  47
HETATM   47  O   UNL     1     -37.242   7.832  62.441  1.00  0.00    -0.358 OA
HETATM   48  H   UNL     1     -37.730   7.390  63.158  1.00  0.00     0.217 HD
ENDBRANCH  43  47
BRANCH  44  49
HETATM   49  O   UNL     1     -36.894   5.180  61.923  1.00  0.00    -0.356 OA
HETATM   50  H   UNL     1     -36.376   5.799  62.478  1.00  0.00     0.218 HD
ENDBRANCH  44  49
BRANCH  45  51
HETATM   51  O   UNL     1     -37.727   4.099  59.548  1.00  0.00    -0.358 OA
HETATM   52  H   UNL     1     -37.708   4.030  58.572  1.00  0.00     0.217 HD
ENDBRANCH  45  51
ENDBRANCH  39  41
ENDBRANCH  38  39
ENDBRANCH   6  38
BRANCH   3  53
HETATM   53  O   UNL     1     -37.913  13.380  57.992  1.00  0.00    -0.306 OA
BRANCH  53  54
HETATM   54  C   UNL     1     -37.843  14.357  58.926  1.00  0.00     0.294 C 
HETATM   55  O   UNL     1     -38.653  14.560  59.813  1.00  0.00    -0.259 OA
BRANCH  54  56
HETATM   56  C   UNL     1     -36.662  15.213  58.689  1.00  0.00     0.045 A 
HETATM   57  C   UNL     1     -35.485  14.605  58.220  1.00  0.00     0.057 A 
HETATM   58  C   UNL     1     -34.377  15.398  57.945  1.00  0.00     0.102 A 
HETATM   59  C   UNL     1     -34.448  16.778  58.106  1.00  0.00     0.132 A 
HETATM   60  C   UNL     1     -35.617  17.373  58.564  1.00  0.00     0.102 A 
HETATM   61  C   UNL     1     -36.727  16.600  58.875  1.00  0.00     0.057 A 
BRANCH  58  62
HETATM   62  O   UNL     1     -33.195  14.869  57.509  1.00  0.00    -0.358 OA
HETATM   63  H   UNL     1     -32.785  15.491  56.883  1.00  0.00     0.217 HD
ENDBRANCH  58  62
BRANCH  59  64
HETATM   64  O   UNL     1     -33.370  17.569  57.814  1.00  0.00    -0.356 OA
HETATM   65  H   UNL     1     -32.900  17.667  58.667  1.00  0.00     0.218 HD
ENDBRANCH  59  64
BRANCH  60  66
HETATM   66  O   UNL     1     -35.688  18.728  58.700  1.00  0.00    -0.358 OA
HETATM   67  H   UNL     1     -35.543  19.078  57.798  1.00  0.00     0.217 HD
ENDBRANCH  60  66
ENDBRANCH  54  56
ENDBRANCH  53  54
ENDBRANCH   3  53
BRANCH   5  68
HETATM   68  O   UNL     1     -39.257  11.557  59.868  1.00  0.00    -0.388 OA
HETATM   69  H   UNL     1     -40.088  11.189  60.223  1.00  0.00     0.210 HD
ENDBRANCH   5  68
TORSDOF 26
ENDMDL
MODEL 4
REMARK VINA RESULT:    -7.917     19.139     23.800
REMARK INTER + INTRA:         -21.015
REMARK INTER:                 -17.055
REMARK INTRA:                  -3.960
REMARK UNBOUND:                -4.072
REMARK  26 active torsions:
REMARK  status: ('A' for Active; 'I' for Inactive)
REMARK    1  A    between atoms: O_2  and  C_29 
REMARK    2  A    between atoms: O_2  and  C_23 
REMARK    3  A    between atoms: O_3  and  C_24 
REMARK    4  A    between atoms: O_3  and  C_30 
REMARK    5  A    between atoms: O_4  and  C_26 
REMARK    6  A    between atoms: O_5  and  C_31 
REMARK    7  A    between atoms: O_5  and  C_27 
REMARK    8  A    between atoms: O_6  and  C_28 
REMARK    9  A    between atoms: O_6  and  C_34 
REMARK   10  A    between atoms: O_11  and  C_43 
REMARK   11  A    between atoms: O_12  and  C_44 
REMARK   12  A    between atoms: O_13  and  C_45 
REMARK   13  A    between atoms: O_14  and  C_46 
REMARK   14  A    between atoms: O_15  and  C_49 
REMARK   15  A    between atoms: O_16  and  C_50 
REMARK   16  A    between atoms: O_17  and  C_51 
REMARK   17  A    between atoms: O_18  and  C_52 
REMARK   18  A    between atoms: O_19  and  C_53 
REMARK   19  A    between atoms: O_20  and  C_54 
REMARK   20  A    between atoms: O_21  and  C_55 
REMARK   21  A    between atoms: O_22  and  C_56 
REMARK   22  A    between atoms: C_25  and  C_28 
REMARK   23  A    between atoms: C_29  and  C_32 
REMARK   24  A    between atoms: C_30  and  C_33 
REMARK   25  A    between atoms: C_31  and  C_35 
REMARK   26  A    between atoms: C_34  and  C_36 
ROOT
HETATM    1  O   UNL     1     -37.971  13.769  57.162  1.00  0.00    -0.348 OA
HETATM    2  C   UNL     1     -39.546  11.972  57.509  1.00  0.00     0.195 C 
HETATM    3  C   UNL     1     -40.288  12.361  56.220  1.00  0.00     0.198 C 
HETATM    4  C   UNL     1     -38.911  13.241  58.104  1.00  0.00     0.181 C 
HETATM    5  C   UNL     1     -39.395  13.166  55.254  1.00  0.00     0.206 C 
HETATM    6  C   UNL     1     -38.615  14.281  55.992  1.00  0.00     0.301 C 
ENDROOT
BRANCH   4   7
HETATM    7  C   UNL     1     -38.221  12.940  59.444  1.00  0.00     0.213 C 
BRANCH   7   8
HETATM    8  O   UNL     1     -37.986  14.147  60.185  1.00  0.00    -0.315 OA
BRANCH   8   9
HETATM    9  C   UNL     1     -36.722  14.274  60.666  1.00  0.00     0.293 C 
HETATM   10  O   UNL     1     -36.277  13.774  61.686  1.00  0.00    -0.259 OA
BRANCH   9  11
HETATM   11  C   UNL     1     -35.927  15.126  59.756  1.00  0.00     0.045 A 
HETATM   12  C   UNL     1     -35.041  14.564  58.821  1.00  0.00     0.057 A 
HETATM   13  C   UNL     1     -34.358  15.405  57.950  1.00  0.00     0.102 A 
HETATM   14  C   UNL     1     -34.544  16.782  58.015  1.00  0.00     0.132 A 
HETATM   15  C   UNL     1     -35.418  17.330  58.946  1.00  0.00     0.102 A 
HETATM   16  C   UNL     1     -36.122  16.513  59.817  1.00  0.00     0.057 A 
BRANCH  13  17
HETATM   17  O   UNL     1     -33.498  14.926  57.001  1.00  0.00    -0.358 OA
HETATM   18  H   UNL     1     -33.914  14.166  56.557  1.00  0.00     0.217 HD
ENDBRANCH  13  17
BRANCH  14  19
HETATM   19  O   UNL     1     -33.879  17.616  57.158  1.00  0.00    -0.356 OA
HETATM   20  H   UNL     1     -33.044  17.144  56.959  1.00  0.00     0.218 HD
ENDBRANCH  14  19
BRANCH  15  21
HETATM   21  O   UNL     1     -35.597  18.681  59.005  1.00  0.00    -0.358 OA
HETATM   22  H   UNL     1     -34.718  19.060  58.797  1.00  0.00     0.217 HD
ENDBRANCH  15  21
ENDBRANCH   9  11
ENDBRANCH   8   9
ENDBRANCH   7   8
ENDBRANCH   4   7
BRANCH   2  23
HETATM   23  O   UNL     1     -40.478  11.443  58.483  1.00  0.00    -0.307 OA
BRANCH  23  24
HETATM   24  C   UNL     1     -40.832  10.155  58.709  1.00  0.00     0.294 C 
HETATM   25  O   UNL     1     -41.995   9.873  58.976  1.00  0.00    -0.259 OA
BRANCH  24  26
HETATM   26  C   UNL     1     -39.840   9.061  58.597  1.00  0.00     0.045 A 
HETATM   27  C   UNL     1     -39.629   8.357  57.402  1.00  0.00     0.057 A 
HETATM   28  C   UNL     1     -38.709   7.314  57.378  1.00  0.00     0.102 A 
HETATM   29  C   UNL     1     -37.945   7.030  58.504  1.00  0.00     0.132 A 
HETATM   30  C   UNL     1     -38.097   7.781  59.660  1.00  0.00     0.102 A 
HETATM   31  C   UNL     1     -39.038   8.800  59.718  1.00  0.00     0.057 A 
BRANCH  28  32
HETATM   32  O   UNL     1     -38.524   6.536  56.271  1.00  0.00    -0.358 OA
HETATM   33  H   UNL     1     -39.212   5.846  56.247  1.00  0.00     0.217 HD
ENDBRANCH  28  32
BRANCH  29  34
HETATM   34  O   UNL     1     -37.031   6.012  58.484  1.00  0.00    -0.356 OA
HETATM   35  H   UNL     1     -37.284   5.447  59.244  1.00  0.00     0.218 HD
ENDBRANCH  29  34
BRANCH  30  36
HETATM   36  O   UNL     1     -37.324   7.521  60.752  1.00  0.00    -0.358 OA
HETATM   37  H   UNL     1     -37.359   6.549  60.859  1.00  0.00     0.217 HD
ENDBRANCH  30  36
ENDBRANCH  24  26
ENDBRANCH  23  24
ENDBRANCH   2  23
BRANCH   6  38
HETATM   38  O   UNL     1     -37.604  14.761  55.077  1.00  0.00    -0.283 OA
BRANCH  38  39
HETATM   39  C   UNL     1     -37.748  15.778  54.198  1.00  0.00     0.295 C 
HETATM   40  O   UNL     1     -38.408  15.661  53.173  1.00  0.00    -0.259 OA
BRANCH  39  41
HETATM   41  C   UNL     1     -36.968  17.013  54.406  1.00  0.00     0.045 A 
HETATM   42  C   UNL     1     -37.290  17.910  55.434  1.00  0.00     0.057 A 
HETATM   43  C   UNL     1     -36.501  19.041  55.612  1.00  0.00     0.102 A 
HETATM   44  C   UNL     1     -35.460  19.313  54.732  1.00  0.00     0.132 A 
HETATM   45  C   UNL     1     -35.196  18.457  53.669  1.00  0.00     0.102 A 
HETATM   46  C   UNL     1     -35.939  17.298  53.499  1.00  0.00     0.057 A 
BRANCH  43  47
HETATM   47  O   UNL     1     -36.707  19.909  56.647  1.00  0.00    -0.358 OA
HETATM   48  H   UNL     1     -35.947  19.856  57.255  1.00  0.00     0.217 HD
ENDBRANCH  43  47
BRANCH  44  49
HETATM   49  O   UNL     1     -34.686  20.428  54.895  1.00  0.00    -0.356 OA
HETATM   50  H   UNL     1     -34.857  20.712  55.817  1.00  0.00     0.218 HD
ENDBRANCH  44  49
BRANCH  45  51
HETATM   51  O   UNL     1     -34.201  18.753  52.784  1.00  0.00    -0.358 OA
HETATM   52  H   UNL     1     -33.917  17.887  52.426  1.00  0.00     0.217 HD
ENDBRANCH  45  51
ENDBRANCH  39  41
ENDBRANCH  38  39
ENDBRANCH   6  38
BRANCH   3  53
HETATM   53  O   UNL     1     -40.921  11.217  55.576  1.00  0.00    -0.306 OA
BRANCH  53  54
HETATM   54  C   UNL     1     -42.263  11.215  55.401  1.00  0.00     0.294 C 
HETATM   55  O   UNL     1     -43.098  11.414  56.265  1.00  0.00    -0.259 OA
BRANCH  54  56
HETATM   56  C   UNL     1     -42.600  10.864  54.006  1.00  0.00     0.045 A 
HETATM   57  C   UNL     1     -41.562  10.837  53.059  1.00  0.00     0.057 A 
HETATM   58  C   UNL     1     -41.849  10.465  51.751  1.00  0.00     0.102 A 
HETATM   59  C   UNL     1     -43.143  10.096  51.397  1.00  0.00     0.132 A 
HETATM   60  C   UNL     1     -44.162  10.118  52.340  1.00  0.00     0.102 A 
HETATM   61  C   UNL     1     -43.909  10.516  53.646  1.00  0.00     0.057 A 
BRANCH  58  62
HETATM   62  O   UNL     1     -40.892  10.440  50.776  1.00  0.00    -0.358 OA
HETATM   63  H   UNL     1     -40.124  10.955  51.077  1.00  0.00     0.217 HD
ENDBRANCH  58  62
BRANCH  59  64
HETATM   64  O   UNL     1     -43.429   9.702  50.118  1.00  0.00    -0.356 OA
HETATM   65  H   UNL     1     -42.722   9.064  49.895  1.00  0.00     0.218 HD
ENDBRANCH  59  64
BRANCH  60  66
HETATM   66  O   UNL     1     -45.425   9.735  51.995  1.00  0.00    -0.358 OA
HETATM   67  H   UNL     1     -45.689  10.356  51.285  1.00  0.00     0.217 HD
ENDBRANCH  60  66
ENDBRANCH  54  56
ENDBRANCH  53  54
ENDBRANCH   3  53
BRANCH   5  68
HETATM   68  O   UNL     1     -40.226  13.736  54.226  1.00  0.00    -0.388 OA
HETATM   69  H   UNL     1     -40.173  13.133  53.461  1.00  0.00     0.210 HD
ENDBRANCH   5  68
TORSDOF 26
ENDMDL
MODEL 5
REMARK VINA RESULT:    -7.882     18.264     21.486
REMARK INTER + INTRA:         -20.940
REMARK INTER:                 -17.241
REMARK INTRA:                  -3.699
REMARK UNBOUND:                -4.072
REMARK  26 active torsions:
REMARK  status: ('A' for Active; 'I' for Inactive)
REMARK    1  A    between atoms: O_2  and  C_29 
REMARK    2  A    between atoms: O_2  and  C_23 
REMARK    3  A    between atoms: O_3  and  C_24 
REMARK    4  A    between atoms: O_3  and  C_30 
REMARK    5  A    between atoms: O_4  and  C_26 
REMARK    6  A    between atoms: O_5  and  C_31 
REMARK    7  A    between atoms: O_5  and  C_27 
REMARK    8  A    between atoms: O_6  and  C_28 
REMARK    9  A    between atoms: O_6  and  C_34 
REMARK   10  A    between atoms: O_11  and  C_43 
REMARK   11  A    between atoms: O_12  and  C_44 
REMARK   12  A    between atoms: O_13  and  C_45 
REMARK   13  A    between atoms: O_14  and  C_46 
REMARK   14  A    between atoms: O_15  and  C_49 
REMARK   15  A    between atoms: O_16  and  C_50 
REMARK   16  A    between atoms: O_17  and  C_51 
REMARK   17  A    between atoms: O_18  and  C_52 
REMARK   18  A    between atoms: O_19  and  C_53 
REMARK   19  A    between atoms: O_20  and  C_54 
REMARK   20  A    between atoms: O_21  and  C_55 
REMARK   21  A    between atoms: O_22  and  C_56 
REMARK   22  A    between atoms: C_25  and  C_28 
REMARK   23  A    between atoms: C_29  and  C_32 
REMARK   24  A    between atoms: C_30  and  C_33 
REMARK   25  A    between atoms: C_31  and  C_35 
REMARK   26  A    between atoms: C_34  and  C_36 
ROOT
HETATM    1  O   UNL     1     -40.066  12.715  55.830  1.00  0.00    -0.348 OA
HETATM    2  C   UNL     1     -38.898  13.004  57.924  1.00  0.00     0.195 C 
HETATM    3  C   UNL     1     -39.463  11.670  58.434  1.00  0.00     0.198 C 
HETATM    4  C   UNL     1     -39.908  13.613  56.935  1.00  0.00     0.181 C 
HETATM    5  C   UNL     1     -39.898  10.741  57.282  1.00  0.00     0.206 C 
HETATM    6  C   UNL     1     -40.720  11.503  56.214  1.00  0.00     0.301 C 
ENDROOT
BRANCH   4   7
HETATM    7  C   UNL     1     -39.443  14.994  56.446  1.00  0.00     0.213 C 
BRANCH   7   8
HETATM    8  O   UNL     1     -38.067  14.960  56.038  1.00  0.00    -0.315 OA
BRANCH   8   9
HETATM    9  C   UNL     1     -37.879  14.986  54.693  1.00  0.00     0.293 C 
HETATM   10  O   UNL     1     -38.734  15.169  53.841  1.00  0.00    -0.259 OA
BRANCH   9  11
HETATM   11  C   UNL     1     -36.451  14.758  54.386  1.00  0.00     0.045 A 
HETATM   12  C   UNL     1     -35.856  13.500  54.583  1.00  0.00     0.057 A 
HETATM   13  C   UNL     1     -34.524  13.322  54.226  1.00  0.00     0.102 A 
HETATM   14  C   UNL     1     -33.794  14.380  53.694  1.00  0.00     0.132 A 
HETATM   15  C   UNL     1     -34.388  15.621  53.507  1.00  0.00     0.102 A 
HETATM   16  C   UNL     1     -35.718  15.822  53.841  1.00  0.00     0.057 A 
BRANCH  13  17
HETATM   17  O   UNL     1     -33.887  12.120  54.368  1.00  0.00    -0.358 OA
HETATM   18  H   UNL     1     -34.555  11.413  54.384  1.00  0.00     0.217 HD
ENDBRANCH  13  17
BRANCH  14  19
HETATM   19  O   UNL     1     -32.483  14.211  53.336  1.00  0.00    -0.356 OA
HETATM   20  H   UNL     1     -31.990  14.287  54.178  1.00  0.00     0.218 HD
ENDBRANCH  14  19
BRANCH  15  21
HETATM   21  O   UNL     1     -33.668  16.655  52.985  1.00  0.00    -0.358 OA
HETATM   22  H   UNL     1     -34.102  16.856  52.130  1.00  0.00     0.217 HD
ENDBRANCH  15  21
ENDBRANCH   9  11
ENDBRANCH   8   9
ENDBRANCH   7   8
ENDBRANCH   4   7
BRANCH   2  23
HETATM   23  O   UNL     1     -38.737  13.934  59.023  1.00  0.00    -0.307 OA
BRANCH  23  24
HETATM   24  C   UNL     1     -37.616  14.244  59.717  1.00  0.00     0.294 C 
HETATM   25  O   UNL     1     -37.442  13.788  60.842  1.00  0.00    -0.259 OA
BRANCH  24  26
HETATM   26  C   UNL     1     -36.562  15.098  59.122  1.00  0.00     0.045 A 
HETATM   27  C   UNL     1     -35.514  14.573  58.351  1.00  0.00     0.057 A 
HETATM   28  C   UNL     1     -34.536  15.428  57.856  1.00  0.00     0.102 A 
HETATM   29  C   UNL     1     -34.644  16.800  58.050  1.00  0.00     0.132 A 
HETATM   30  C   UNL     1     -35.725  17.325  58.744  1.00  0.00     0.102 A 
HETATM   31  C   UNL     1     -36.691  16.486  59.281  1.00  0.00     0.057 A 
BRANCH  28  32
HETATM   32  O   UNL     1     -33.447  14.966  57.175  1.00  0.00    -0.358 OA
HETATM   33  H   UNL     1     -33.639  14.978  56.219  1.00  0.00     0.217 HD
ENDBRANCH  28  32
BRANCH  29  34
HETATM   34  O   UNL     1     -33.691  17.649  57.557  1.00  0.00    -0.356 OA
HETATM   35  H   UNL     1     -33.346  17.189  56.764  1.00  0.00     0.218 HD
ENDBRANCH  29  34
BRANCH  30  36
HETATM   36  O   UNL     1     -35.844  18.673  58.905  1.00  0.00    -0.358 OA
HETATM   37  H   UNL     1     -35.533  19.057  58.061  1.00  0.00     0.217 HD
ENDBRANCH  30  36
ENDBRANCH  24  26
ENDBRANCH  23  24
ENDBRANCH   2  23
BRANCH   6  38
HETATM   38  O   UNL     1     -40.811  10.637  55.060  1.00  0.00    -0.283 OA
BRANCH  38  39
HETATM   39  C   UNL     1     -40.009  10.678  53.973  1.00  0.00     0.295 C 
HETATM   40  O   UNL     1     -38.793  10.555  54.058  1.00  0.00    -0.259 OA
BRANCH  39  41
HETATM   41  C   UNL     1     -40.600  11.028  52.667  1.00  0.00     0.045 A 
HETATM   42  C   UNL     1     -40.793  12.366  52.293  1.00  0.00     0.057 A 
HETATM   43  C   UNL     1     -41.318  12.644  51.036  1.00  0.00     0.102 A 
HETATM   44  C   UNL     1     -41.718  11.607  50.201  1.00  0.00     0.132 A 
HETATM   45  C   UNL     1     -41.594  10.286  50.610  1.00  0.00     0.102 A 
HETATM   46  C   UNL     1     -41.029   9.981  51.840  1.00  0.00     0.057 A 
BRANCH  43  47
HETATM   47  O   UNL     1     -41.451  13.924  50.576  1.00  0.00    -0.358 OA
HETATM   48  H   UNL     1     -42.394  14.098  50.404  1.00  0.00     0.217 HD
ENDBRANCH  43  47
BRANCH  44  49
HETATM   49  O   UNL     1     -42.245  11.874  48.966  1.00  0.00    -0.356 OA
HETATM   50  H   UNL     1     -41.595  12.477  48.549  1.00  0.00     0.218 HD
ENDBRANCH  44  49
BRANCH  45  51
HETATM   51  O   UNL     1     -42.029   9.275  49.804  1.00  0.00    -0.358 OA
HETATM   52  H   UNL     1     -42.753   8.847  50.304  1.00  0.00     0.217 HD
ENDBRANCH  45  51
ENDBRANCH  39  41
ENDBRANCH  38  39
ENDBRANCH   6  38
BRANCH   3  53
HETATM   53  O   UNL     1     -38.569  11.011  59.378  1.00  0.00    -0.306 OA
BRANCH  53  54
HETATM   54  C   UNL     1     -39.079  10.483  60.514  1.00  0.00     0.294 C 
HETATM   55  O   UNL     1     -39.598  11.105  61.423  1.00  0.00    -0.259 OA
BRANCH  54  56
HETATM   56  C   UNL     1     -38.861   9.022  60.547  1.00  0.00     0.045 A 
HETATM   57  C   UNL     1     -39.943   8.196  60.894  1.00  0.00     0.057 A 
HETATM   58  C   UNL     1     -39.773   6.817  60.886  1.00  0.00     0.102 A 
HETATM   59  C   UNL     1     -38.551   6.266  60.510  1.00  0.00     0.132 A 
HETATM   60  C   UNL     1     -37.487   7.088  60.162  1.00  0.00     0.102 A 
HETATM   61  C   UNL     1     -37.623   8.470  60.192  1.00  0.00     0.057 A 
BRANCH  58  62
HETATM   62  O   UNL     1     -40.777   5.958  61.234  1.00  0.00    -0.358 OA
HETATM   63  H   UNL     1     -41.056   6.156  62.145  1.00  0.00     0.217 HD
ENDBRANCH  58  62
BRANCH  59  64
HETATM   64  O   UNL     1     -38.382   4.909  60.474  1.00  0.00    -0.356 OA
HETATM   65  H   UNL     1     -37.482   4.785  60.108  1.00  0.00     0.218 HD
ENDBRANCH  59  64
BRANCH  60  66
HETATM   66  O   UNL     1     -36.299   6.544  59.774  1.00  0.00    -0.358 OA
HETATM   67  H   UNL     1     -36.484   5.588  59.670  1.00  0.00     0.217 HD
ENDBRANCH  60  66
ENDBRANCH  54  56
ENDBRANCH  53  54
ENDBRANCH   3  53
BRANCH   5  68
HETATM   68  O   UNL     1     -40.673   9.660  57.830  1.00  0.00    -0.388 OA
HETATM   69  H   UNL     1     -41.583   9.997  57.936  1.00  0.00     0.210 HD
ENDBRANCH   5  68
TORSDOF 26
ENDMDL
MODEL 6
REMARK VINA RESULT:    -7.813      3.776     10.381
REMARK INTER + INTRA:         -20.790
REMARK INTER:                 -16.196
REMARK INTRA:                  -4.595
REMARK UNBOUND:                -4.072
REMARK  26 active torsions:
REMARK  status: ('A' for Active; 'I' for Inactive)
REMARK    1  A    between atoms: O_2  and  C_29 
REMARK    2  A    between atoms: O_2  and  C_23 
REMARK    3  A    between atoms: O_3  and  C_24 
REMARK    4  A    between atoms: O_3  and  C_30 
REMARK    5  A    between atoms: O_4  and  C_26 
REMARK    6  A    between atoms: O_5  and  C_31 
REMARK    7  A    between atoms: O_5  and  C_27 
REMARK    8  A    between atoms: O_6  and  C_28 
REMARK    9  A    between atoms: O_6  and  C_34 
REMARK   10  A    between atoms: O_11  and  C_43 
REMARK   11  A    between atoms: O_12  and  C_44 
REMARK   12  A    between atoms: O_13  and  C_45 
REMARK   13  A    between atoms: O_14  and  C_46 
REMARK   14  A    between atoms: O_15  and  C_49 
REMARK   15  A    between atoms: O_16  and  C_50 
REMARK   16  A    between atoms: O_17  and  C_51 
REMARK   17  A    between atoms: O_18  and  C_52 
REMARK   18  A    between atoms: O_19  and  C_53 
REMARK   19  A    between atoms: O_20  and  C_54 
REMARK   20  A    between atoms: O_21  and  C_55 
REMARK   21  A    between atoms: O_22  and  C_56 
REMARK   22  A    between atoms: C_25  and  C_28 
REMARK   23  A    between atoms: C_29  and  C_32 
REMARK   24  A    between atoms: C_30  and  C_33 
REMARK   25  A    between atoms: C_31  and  C_35 
REMARK   26  A    between atoms: C_34  and  C_36 
ROOT
HETATM    1  O   UNL     1     -18.576  -1.377  58.622  1.00  0.00    -0.348 OA
HETATM    2  C   UNL     1     -20.735  -2.292  58.045  1.00  0.00     0.195 C 
HETATM    3  C   UNL     1     -20.972  -1.137  57.061  1.00  0.00     0.198 C 
HETATM    4  C   UNL     1     -19.830  -1.784  59.181  1.00  0.00     0.181 C 
HETATM    5  C   UNL     1     -19.654  -0.476  56.608  1.00  0.00     0.206 C 
HETATM    6  C   UNL     1     -18.707  -0.212  57.803  1.00  0.00     0.301 C 
ENDROOT
BRANCH   4   7
HETATM    7  C   UNL     1     -19.617  -2.868  60.250  1.00  0.00     0.213 C 
BRANCH   7   8
HETATM    8  O   UNL     1     -19.704  -2.313  61.571  1.00  0.00    -0.315 OA
BRANCH   8   9
HETATM    9  C   UNL     1     -20.963  -2.271  62.081  1.00  0.00     0.293 C 
HETATM   10  O   UNL     1     -21.835  -3.112  61.940  1.00  0.00    -0.259 OA
BRANCH   9  11
HETATM   11  C   UNL     1     -21.142  -1.027  62.860  1.00  0.00     0.045 A 
HETATM   12  C   UNL     1     -22.057  -0.039  62.454  1.00  0.00     0.057 A 
HETATM   13  C   UNL     1     -22.229   1.087  63.252  1.00  0.00     0.102 A 
HETATM   14  C   UNL     1     -21.496   1.233  64.425  1.00  0.00     0.132 A 
HETATM   15  C   UNL     1     -20.590   0.255  64.815  1.00  0.00     0.102 A 
HETATM   16  C   UNL     1     -20.410  -0.884  64.046  1.00  0.00     0.057 A 
BRANCH  13  17
HETATM   17  O   UNL     1     -23.117   2.076  62.931  1.00  0.00    -0.358 OA
HETATM   18  H   UNL     1     -23.364   1.982  61.994  1.00  0.00     0.217 HD
ENDBRANCH  13  17
BRANCH  14  19
HETATM   19  O   UNL     1     -21.664   2.337  65.216  1.00  0.00    -0.356 OA
HETATM   20  H   UNL     1     -21.761   3.078  64.584  1.00  0.00     0.218 HD
ENDBRANCH  14  19
BRANCH  15  21
HETATM   21  O   UNL     1     -19.875   0.404  65.967  1.00  0.00    -0.358 OA
HETATM   22  H   UNL     1     -19.328  -0.406  66.029  1.00  0.00     0.217 HD
ENDBRANCH  15  21
ENDBRANCH   9  11
ENDBRANCH   8   9
ENDBRANCH   7   8
ENDBRANCH   4   7
BRANCH   2  23
HETATM   23  O   UNL     1     -21.989  -2.717  58.633  1.00  0.00    -0.307 OA
BRANCH  23  24
HETATM   24  C   UNL     1     -22.757  -3.786  58.316  1.00  0.00     0.294 C 
HETATM   25  O   UNL     1     -22.326  -4.655  57.567  1.00  0.00    -0.259 OA
BRANCH  24  26
HETATM   26  C   UNL     1     -24.108  -3.953  58.899  1.00  0.00     0.045 A 
HETATM   27  C   UNL     1     -24.746  -2.937  59.626  1.00  0.00     0.057 A 
HETATM   28  C   UNL     1     -25.999  -3.176  60.179  1.00  0.00     0.102 A 
HETATM   29  C   UNL     1     -26.650  -4.380  59.940  1.00  0.00     0.132 A 
HETATM   30  C   UNL     1     -26.053  -5.354  59.152  1.00  0.00     0.102 A 
HETATM   31  C   UNL     1     -24.785  -5.151  58.625  1.00  0.00     0.057 A 
BRANCH  28  32
HETATM   32  O   UNL     1     -26.630  -2.258  60.968  1.00  0.00    -0.358 OA
HETATM   33  H   UNL     1     -26.003  -1.546  61.195  1.00  0.00     0.217 HD
ENDBRANCH  28  32
BRANCH  29  34
HETATM   34  O   UNL     1     -27.888  -4.618  60.472  1.00  0.00    -0.356 OA
HETATM   35  H   UNL     1     -27.991  -3.929  61.160  1.00  0.00     0.218 HD
ENDBRANCH  29  34
BRANCH  30  36
HETATM   36  O   UNL     1     -26.707  -6.521  58.894  1.00  0.00    -0.358 OA
HETATM   37  H   UNL     1     -26.453  -6.756  57.979  1.00  0.00     0.217 HD
ENDBRANCH  30  36
ENDBRANCH  24  26
ENDBRANCH  23  24
ENDBRANCH   2  23
BRANCH   6  38
HETATM   38  O   UNL     1     -17.413   0.114  57.248  1.00  0.00    -0.283 OA
BRANCH  38  39
HETATM   39  C   UNL     1     -16.592   1.099  57.675  1.00  0.00     0.295 C 
HETATM   40  O   UNL     1     -15.722   0.899  58.515  1.00  0.00    -0.259 OA
BRANCH  39  41
HETATM   41  C   UNL     1     -16.847   2.481  57.229  1.00  0.00     0.045 A 
HETATM   42  C   UNL     1     -16.799   3.555  58.129  1.00  0.00     0.057 A 
HETATM   43  C   UNL     1     -17.010   4.844  57.652  1.00  0.00     0.102 A 
HETATM   44  C   UNL     1     -17.341   5.049  56.317  1.00  0.00     0.132 A 
HETATM   45  C   UNL     1     -17.461   3.972  55.448  1.00  0.00     0.102 A 
HETATM   46  C   UNL     1     -17.209   2.681  55.890  1.00  0.00     0.057 A 
BRANCH  43  47
HETATM   47  O   UNL     1     -16.892   5.941  58.457  1.00  0.00    -0.358 OA
HETATM   48  H   UNL     1     -15.994   6.306  58.358  1.00  0.00     0.217 HD
ENDBRANCH  43  47
BRANCH  44  49
HETATM   49  O   UNL     1     -17.558   6.313  55.842  1.00  0.00    -0.356 OA
HETATM   50  H   UNL     1     -16.790   6.491  55.260  1.00  0.00     0.218 HD
ENDBRANCH  44  49
BRANCH  45  51
HETATM   51  O   UNL     1     -17.829   4.177  54.151  1.00  0.00    -0.358 OA
HETATM   52  H   UNL     1     -18.502   3.491  53.968  1.00  0.00     0.217 HD
ENDBRANCH  45  51
ENDBRANCH  39  41
ENDBRANCH  38  39
ENDBRANCH   6  38
BRANCH   3  53
HETATM   53  O   UNL     1     -21.818  -1.525  55.940  1.00  0.00    -0.306 OA
BRANCH  53  54
HETATM   54  C   UNL     1     -22.907  -0.778  55.643  1.00  0.00     0.294 C 
HETATM   55  O   UNL     1     -22.915   0.420  55.424  1.00  0.00    -0.259 OA
BRANCH  54  56
HETATM   56  C   UNL     1     -24.128  -1.608  55.684  1.00  0.00     0.045 A 
HETATM   57  C   UNL     1     -24.139  -2.810  54.956  1.00  0.00     0.057 A 
HETATM   58  C   UNL     1     -25.260  -3.629  55.018  1.00  0.00     0.102 A 
HETATM   59  C   UNL     1     -26.343  -3.272  55.816  1.00  0.00     0.132 A 
HETATM   60  C   UNL     1     -26.323  -2.086  56.538  1.00  0.00     0.102 A 
HETATM   61  C   UNL     1     -25.228  -1.235  56.468  1.00  0.00     0.057 A 
BRANCH  58  62
HETATM   62  O   UNL     1     -25.345  -4.799  54.317  1.00  0.00    -0.358 OA
HETATM   63  H   UNL     1     -24.510  -5.287  54.419  1.00  0.00     0.217 HD
ENDBRANCH  58  62
BRANCH  59  64
HETATM   64  O   UNL     1     -27.440  -4.085  55.903  1.00  0.00    -0.356 OA
HETATM   65  H   UNL     1     -27.075  -4.965  56.127  1.00  0.00     0.218 HD
ENDBRANCH  59  64
BRANCH  60  66
HETATM   66  O   UNL     1     -27.377  -1.751  57.335  1.00  0.00    -0.358 OA
HETATM   67  H   UNL     1     -27.192  -0.833  57.621  1.00  0.00     0.217 HD
ENDBRANCH  60  66
ENDBRANCH  54  56
ENDBRANCH  53  54
ENDBRANCH   3  53
BRANCH   5  68
HETATM   68  O   UNL     1     -19.964   0.758  55.936  1.00  0.00    -0.388 OA
HETATM   69  H   UNL     1     -19.668   1.477  56.526  1.00  0.00     0.210 HD
ENDBRANCH   5  68
TORSDOF 26
ENDMDL
MODEL 7
REMARK VINA RESULT:    -7.810      3.803     10.340
REMARK INTER + INTRA:         -20.784
REMARK INTER:                 -16.666
REMARK INTRA:                  -4.119
REMARK UNBOUND:                -4.072
REMARK  26 active torsions:
REMARK  status: ('A' for Active; 'I' for Inactive)
REMARK    1  A    between atoms: O_2  and  C_29 
REMARK    2  A    between atoms: O_2  and  C_23 
REMARK    3  A    between atoms: O_3  and  C_24 
REMARK    4  A    between atoms: O_3  and  C_30 
REMARK    5  A    between atoms: O_4  and  C_26 
REMARK    6  A    between atoms: O_5  and  C_31 
REMARK    7  A    between atoms: O_5  and  C_27 
REMARK    8  A    between atoms: O_6  and  C_28 
REMARK    9  A    between atoms: O_6  and  C_34 
REMARK   10  A    between atoms: O_11  and  C_43 
REMARK   11  A    between atoms: O_12  and  C_44 
REMARK   12  A    between atoms: O_13  and  C_45 
REMARK   13  A    between atoms: O_14  and  C_46 
REMARK   14  A    between atoms: O_15  and  C_49 
REMARK   15  A    between atoms: O_16  and  C_50 
REMARK   16  A    between atoms: O_17  and  C_51 
REMARK   17  A    between atoms: O_18  and  C_52 
REMARK   18  A    between atoms: O_19  and  C_53 
REMARK   19  A    between atoms: O_20  and  C_54 
REMARK   20  A    between atoms: O_21  and  C_55 
REMARK   21  A    between atoms: O_22  and  C_56 
REMARK   22  A    between atoms: C_25  and  C_28 
REMARK   23  A    between atoms: C_29  and  C_32 
REMARK   24  A    between atoms: C_30  and  C_33 
REMARK   25  A    between atoms: C_31  and  C_35 
REMARK   26  A    between atoms: C_34  and  C_36 
ROOT
HETATM    1  O   UNL     1     -18.577  -1.272  58.409  1.00  0.00    -0.348 OA
HETATM    2  C   UNL     1     -20.768  -2.122  57.854  1.00  0.00     0.195 C 
HETATM    3  C   UNL     1     -20.976  -0.966  56.863  1.00  0.00     0.198 C 
HETATM    4  C   UNL     1     -19.839  -1.635  58.980  1.00  0.00     0.181 C 
HETATM    5  C   UNL     1     -19.641  -0.351  56.396  1.00  0.00     0.206 C 
HETATM    6  C   UNL     1     -18.678  -0.109  57.582  1.00  0.00     0.301 C 
ENDROOT
BRANCH   4   7
HETATM    7  C   UNL     1     -19.654  -2.718  60.054  1.00  0.00     0.213 C 
BRANCH   7   8
HETATM    8  O   UNL     1     -19.738  -2.155  61.372  1.00  0.00    -0.315 OA
BRANCH   8   9
HETATM    9  C   UNL     1     -20.979  -2.204  61.926  1.00  0.00     0.293 C 
HETATM   10  O   UNL     1     -21.830  -3.056  61.730  1.00  0.00    -0.259 OA
BRANCH   9  11
HETATM   11  C   UNL     1     -21.165  -1.051  62.831  1.00  0.00     0.045 A 
HETATM   12  C   UNL     1     -20.427  -0.933  64.022  1.00  0.00     0.057 A 
HETATM   13  C   UNL     1     -20.598   0.198  64.812  1.00  0.00     0.102 A 
HETATM   14  C   UNL     1     -21.496   1.190  64.429  1.00  0.00     0.132 A 
HETATM   15  C   UNL     1     -22.225   1.063  63.254  1.00  0.00     0.102 A 
HETATM   16  C   UNL     1     -22.063  -0.048  62.441  1.00  0.00     0.057 A 
BRANCH  13  17
HETATM   17  O   UNL     1     -19.898   0.390  65.970  1.00  0.00    -0.358 OA
HETATM   18  H   UNL     1     -19.277  -0.351  66.086  1.00  0.00     0.217 HD
ENDBRANCH  13  17
BRANCH  14  19
HETATM   19  O   UNL     1     -21.666   2.309  65.199  1.00  0.00    -0.356 OA
HETATM   20  H   UNL     1     -21.640   1.977  66.120  1.00  0.00     0.218 HD
ENDBRANCH  14  19
BRANCH  15  21
HETATM   21  O   UNL     1     -23.104   2.039  62.883  1.00  0.00    -0.358 OA
HETATM   22  H   UNL     1     -23.481   2.369  63.725  1.00  0.00     0.217 HD
ENDBRANCH  15  21
ENDBRANCH   9  11
ENDBRANCH   8   9
ENDBRANCH   7   8
ENDBRANCH   4   7
BRANCH   2  23
HETATM   23  O   UNL     1     -22.031  -2.503  58.453  1.00  0.00    -0.307 OA
BRANCH  23  24
HETATM   24  C   UNL     1     -22.769  -3.619  58.245  1.00  0.00     0.294 C 
HETATM   25  O   UNL     1     -22.421  -4.439  57.403  1.00  0.00    -0.259 OA
BRANCH  24  26
HETATM   26  C   UNL     1     -23.978  -3.895  59.053  1.00  0.00     0.045 A 
HETATM   27  C   UNL     1     -24.317  -5.186  59.485  1.00  0.00     0.057 A 
HETATM   28  C   UNL     1     -25.489  -5.379  60.209  1.00  0.00     0.102 A 
HETATM   29  C   UNL     1     -26.272  -4.290  60.574  1.00  0.00     0.132 A 
HETATM   30  C   UNL     1     -25.893  -3.005  60.215  1.00  0.00     0.102 A 
HETATM   31  C   UNL     1     -24.748  -2.794  59.459  1.00  0.00     0.057 A 
BRANCH  28  32
HETATM   32  O   UNL     1     -25.915  -6.622  60.580  1.00  0.00    -0.358 OA
HETATM   33  H   UNL     1     -26.235  -6.588  61.500  1.00  0.00     0.217 HD
ENDBRANCH  28  32
BRANCH  29  34
HETATM   34  O   UNL     1     -27.421  -4.471  61.294  1.00  0.00    -0.356 OA
HETATM   35  H   UNL     1     -27.606  -5.430  61.216  1.00  0.00     0.218 HD
ENDBRANCH  29  34
BRANCH  30  36
HETATM   36  O   UNL     1     -26.646  -1.937  60.602  1.00  0.00    -0.358 OA
HETATM   37  H   UNL     1     -26.001  -1.222  60.776  1.00  0.00     0.217 HD
ENDBRANCH  30  36
ENDBRANCH  24  26
ENDBRANCH  23  24
ENDBRANCH   2  23
BRANCH   6  38
HETATM   38  O   UNL     1     -17.378   0.172  57.016  1.00  0.00    -0.283 OA
BRANCH  38  39
HETATM   39  C   UNL     1     -16.547   1.170  57.393  1.00  0.00     0.295 C 
HETATM   40  O   UNL     1     -15.651   0.993  58.210  1.00  0.00    -0.259 OA
BRANCH  39  41
HETATM   41  C   UNL     1     -16.820   2.540  56.921  1.00  0.00     0.045 A 
HETATM   42  C   UNL     1     -17.056   2.806  55.564  1.00  0.00     0.057 A 
HETATM   43  C   UNL     1     -17.346   4.109  55.175  1.00  0.00     0.102 A 
HETATM   44  C   UNL     1     -17.322   5.139  56.108  1.00  0.00     0.132 A 
HETATM   45  C   UNL     1     -17.012   4.878  57.437  1.00  0.00     0.102 A 
HETATM   46  C   UNL     1     -16.766   3.579  57.859  1.00  0.00     0.057 A 
BRANCH  43  47
HETATM   47  O   UNL     1     -17.671   4.422  53.885  1.00  0.00    -0.358 OA
HETATM   48  H   UNL     1     -18.641   4.433  53.801  1.00  0.00     0.217 HD
ENDBRANCH  43  47
BRANCH  44  49
HETATM   49  O   UNL     1     -17.597   6.425  55.730  1.00  0.00    -0.356 OA
HETATM   50  H   UNL     1     -18.527   6.567  56.007  1.00  0.00     0.218 HD
ENDBRANCH  44  49
BRANCH  45  51
HETATM   51  O   UNL     1     -16.948   5.899  58.338  1.00  0.00    -0.358 OA
HETATM   52  H   UNL     1     -16.131   5.732  58.851  1.00  0.00     0.217 HD
ENDBRANCH  45  51
ENDBRANCH  39  41
ENDBRANCH  38  39
ENDBRANCH   6  38
BRANCH   3  53
HETATM   53  O   UNL     1     -21.842  -1.335  55.751  1.00  0.00    -0.306 OA
BRANCH  53  54
HETATM   54  C   UNL     1     -22.937  -0.584  55.487  1.00  0.00     0.294 C 
HETATM   55  O   UNL     1     -22.952   0.619  55.303  1.00  0.00    -0.259 OA
BRANCH  54  56
HETATM   56  C   UNL     1     -24.154  -1.420  55.517  1.00  0.00     0.045 A 
HETATM   57  C   UNL     1     -25.155  -1.102  56.449  1.00  0.00     0.057 A 
HETATM   58  C   UNL     1     -26.330  -1.846  56.464  1.00  0.00     0.102 A 
HETATM   59  C   UNL     1     -26.516  -2.874  55.544  1.00  0.00     0.132 A 
HETATM   60  C   UNL     1     -25.525  -3.179  54.621  1.00  0.00     0.102 A 
HETATM   61  C   UNL     1     -24.331  -2.471  54.606  1.00  0.00     0.057 A 
BRANCH  58  62
HETATM   62  O   UNL     1     -27.333  -1.605  57.360  1.00  0.00    -0.358 OA
HETATM   63  H   UNL     1     -28.186  -1.656  56.896  1.00  0.00     0.217 HD
ENDBRANCH  58  62
BRANCH  59  64
HETATM   64  O   UNL     1     -27.680  -3.595  55.534  1.00  0.00    -0.356 OA
HETATM   65  H   UNL     1     -28.386  -2.918  55.500  1.00  0.00     0.218 HD
ENDBRANCH  59  64
BRANCH  60  66
HETATM   66  O   UNL     1     -25.722  -4.172  53.707  1.00  0.00    -0.358 OA
HETATM   67  H   UNL     1     -26.339  -4.794  54.144  1.00  0.00     0.217 HD
ENDBRANCH  60  66
ENDBRANCH  54  56
ENDBRANCH  53  54
ENDBRANCH   3  53
BRANCH   5  68
HETATM   68  O   UNL     1     -19.917   0.888  55.718  1.00  0.00    -0.388 OA
HETATM   69  H   UNL     1     -20.718   0.737  55.181  1.00  0.00     0.210 HD
ENDBRANCH   5  68
TORSDOF 26
ENDMDL
MODEL 8
REMARK VINA RESULT:    -7.784     19.045     23.508
REMARK INTER + INTRA:         -20.729
REMARK INTER:                 -17.312
REMARK INTRA:                  -3.416
REMARK UNBOUND:                -4.072
REMARK  26 active torsions:
REMARK  status: ('A' for Active; 'I' for Inactive)
REMARK    1  A    between atoms: O_2  and  C_29 
REMARK    2  A    between atoms: O_2  and  C_23 
REMARK    3  A    between atoms: O_3  and  C_24 
REMARK    4  A    between atoms: O_3  and  C_30 
REMARK    5  A    between atoms: O_4  and  C_26 
REMARK    6  A    between atoms: O_5  and  C_31 
REMARK    7  A    between atoms: O_5  and  C_27 
REMARK    8  A    between atoms: O_6  and  C_28 
REMARK    9  A    between atoms: O_6  and  C_34 
REMARK   10  A    between atoms: O_11  and  C_43 
REMARK   11  A    between atoms: O_12  and  C_44 
REMARK   12  A    between atoms: O_13  and  C_45 
REMARK   13  A    between atoms: O_14  and  C_46 
REMARK   14  A    between atoms: O_15  and  C_49 
REMARK   15  A    between atoms: O_16  and  C_50 
REMARK   16  A    between atoms: O_17  and  C_51 
REMARK   17  A    between atoms: O_18  and  C_52 
REMARK   18  A    between atoms: O_19  and  C_53 
REMARK   19  A    between atoms: O_20  and  C_54 
REMARK   20  A    between atoms: O_21  and  C_55 
REMARK   21  A    between atoms: O_22  and  C_56 
REMARK   22  A    between atoms: C_25  and  C_28 
REMARK   23  A    between atoms: C_29  and  C_32 
REMARK   24  A    between atoms: C_30  and  C_33 
REMARK   25  A    between atoms: C_31  and  C_35 
REMARK   26  A    between atoms: C_34  and  C_36 
ROOT
HETATM    1  O   UNL     1     -39.167  12.691  58.078  1.00  0.00    -0.348 OA
HETATM    2  C   UNL     1     -39.328  13.090  55.702  1.00  0.00     0.195 C 
HETATM    3  C   UNL     1     -39.675  11.613  55.467  1.00  0.00     0.198 C 
HETATM    4  C   UNL     1     -38.435  13.187  56.951  1.00  0.00     0.181 C 
HETATM    5  C   UNL     1     -40.240  10.937  56.734  1.00  0.00     0.206 C 
HETATM    6  C   UNL     1     -39.400  11.283  57.988  1.00  0.00     0.301 C 
ENDROOT
BRANCH   4   7
HETATM    7  C   UNL     1     -37.979  14.634  57.198  1.00  0.00     0.213 C 
BRANCH   7   8
HETATM    8  O   UNL     1     -36.812  14.671  58.033  1.00  0.00    -0.315 OA
BRANCH   8   9
HETATM    9  C   UNL     1     -35.741  15.291  57.473  1.00  0.00     0.293 C 
HETATM   10  O   UNL     1     -34.816  14.758  56.882  1.00  0.00    -0.259 OA
BRANCH   9  11
HETATM   11  C   UNL     1     -35.849  16.751  57.677  1.00  0.00     0.045 A 
HETATM   12  C   UNL     1     -35.475  17.658  56.670  1.00  0.00     0.057 A 
HETATM   13  C   UNL     1     -35.648  19.019  56.890  1.00  0.00     0.102 A 
HETATM   14  C   UNL     1     -36.173  19.472  58.096  1.00  0.00     0.132 A 
HETATM   15  C   UNL     1     -36.535  18.571  59.088  1.00  0.00     0.102 A 
HETATM   16  C   UNL     1     -36.386  17.207  58.889  1.00  0.00     0.057 A 
BRANCH  13  17
HETATM   17  O   UNL     1     -35.327  19.956  55.947  1.00  0.00    -0.358 OA
HETATM   18  H   UNL     1     -36.085  20.066  55.346  1.00  0.00     0.217 HD
ENDBRANCH  13  17
BRANCH  14  19
HETATM   19  O   UNL     1     -36.350  20.811  58.318  1.00  0.00    -0.356 OA
HETATM   20  H   UNL     1     -36.352  20.898  59.293  1.00  0.00     0.218 HD
ENDBRANCH  14  19
BRANCH  15  21
HETATM   21  O   UNL     1     -37.050  19.021  60.269  1.00  0.00    -0.358 OA
HETATM   22  H   UNL     1     -37.779  18.401  60.476  1.00  0.00     0.217 HD
ENDBRANCH  15  21
ENDBRANCH   9  11
ENDBRANCH   8   9
ENDBRANCH   7   8
ENDBRANCH   4   7
BRANCH   2  23
HETATM   23  O   UNL     1     -38.579  13.614  54.579  1.00  0.00    -0.307 OA
BRANCH  23  24
HETATM   24  C   UNL     1     -38.801  14.739  53.858  1.00  0.00     0.294 C 
HETATM   25  O   UNL     1     -39.930  14.998  53.454  1.00  0.00    -0.259 OA
BRANCH  24  26
HETATM   26  C   UNL     1     -37.707  15.696  53.581  1.00  0.00     0.045 A 
HETATM   27  C   UNL     1     -37.944  16.993  53.101  1.00  0.00     0.057 A 
HETATM   28  C   UNL     1     -36.865  17.827  52.826  1.00  0.00     0.102 A 
HETATM   29  C   UNL     1     -35.570  17.410  53.105  1.00  0.00     0.132 A 
HETATM   30  C   UNL     1     -35.342  16.157  53.656  1.00  0.00     0.102 A 
HETATM   31  C   UNL     1     -36.401  15.293  53.900  1.00  0.00     0.057 A 
BRANCH  28  32
HETATM   32  O   UNL     1     -37.030  19.066  52.276  1.00  0.00    -0.358 OA
HETATM   33  H   UNL     1     -36.693  19.739  52.896  1.00  0.00     0.217 HD
ENDBRANCH  28  32
BRANCH  29  34
HETATM   34  O   UNL     1     -34.505  18.229  52.845  1.00  0.00    -0.356 OA
HETATM   35  H   UNL     1     -34.723  19.062  53.311  1.00  0.00     0.218 HD
ENDBRANCH  29  34
BRANCH  30  36
HETATM   36  O   UNL     1     -34.073  15.763  53.957  1.00  0.00    -0.358 OA
HETATM   37  H   UNL     1     -34.182  14.980  54.534  1.00  0.00     0.217 HD
ENDBRANCH  30  36
ENDBRANCH  24  26
ENDBRANCH  23  24
ENDBRANCH   2  23
BRANCH   6  38
HETATM   38  O   UNL     1     -40.171  10.865  59.137  1.00  0.00    -0.283 OA
BRANCH  38  39
HETATM   39  C   UNL     1     -39.672  10.353  60.283  1.00  0.00     0.295 C 
HETATM   40  O   UNL     1     -39.396  11.062  61.244  1.00  0.00    -0.259 OA
BRANCH  39  41
HETATM   41  C   UNL     1     -39.311   8.923  60.326  1.00  0.00     0.045 A 
HETATM   42  C   UNL     1     -40.185   7.970  60.867  1.00  0.00     0.057 A 
HETATM   43  C   UNL     1     -39.814   6.630  60.850  1.00  0.00     0.102 A 
HETATM   44  C   UNL     1     -38.561   6.258  60.376  1.00  0.00     0.132 A 
HETATM   45  C   UNL     1     -37.670   7.218  59.912  1.00  0.00     0.102 A 
HETATM   46  C   UNL     1     -38.036   8.556  59.875  1.00  0.00     0.057 A 
BRANCH  43  47
HETATM   47  O   UNL     1     -40.653   5.642  61.280  1.00  0.00    -0.358 OA
HETATM   48  H   UNL     1     -40.121   4.932  61.681  1.00  0.00     0.217 HD
ENDBRANCH  43  47
BRANCH  44  49
HETATM   49  O   UNL     1     -38.185   4.943  60.364  1.00  0.00    -0.356 OA
HETATM   50  H   UNL     1     -38.535   4.596  59.517  1.00  0.00     0.218 HD
ENDBRANCH  44  49
BRANCH  45  51
HETATM   51  O   UNL     1     -36.426   6.851  59.490  1.00  0.00    -0.358 OA
HETATM   52  H   UNL     1     -36.103   6.226  60.170  1.00  0.00     0.217 HD
ENDBRANCH  45  51
ENDBRANCH  39  41
ENDBRANCH  38  39
ENDBRANCH   6  38
BRANCH   3  53
HETATM   53  O   UNL     1     -40.529  11.419  54.303  1.00  0.00    -0.306 OA
BRANCH  53  54
HETATM   54  C   UNL     1     -40.128  10.579  53.320  1.00  0.00     0.294 C 
HETATM   55  O   UNL     1     -39.260   9.730  53.413  1.00  0.00    -0.259 OA
BRANCH  54  56
HETATM   56  C   UNL     1     -40.848  10.875  52.064  1.00  0.00     0.045 A 
HETATM   57  C   UNL     1     -40.887  12.207  51.619  1.00  0.00     0.057 A 
HETATM   58  C   UNL     1     -41.519  12.501  50.416  1.00  0.00     0.102 A 
HETATM   59  C   UNL     1     -42.078  11.481  49.653  1.00  0.00     0.132 A 
HETATM   60  C   UNL     1     -42.030  10.165  50.096  1.00  0.00     0.102 A 
HETATM   61  C   UNL     1     -41.433   9.849  51.309  1.00  0.00     0.057 A 
BRANCH  58  62
HETATM   62  O   UNL     1     -41.613  13.777  49.938  1.00  0.00    -0.358 OA
HETATM   63  H   UNL     1     -42.168  14.299  50.543  1.00  0.00     0.217 HD
ENDBRANCH  58  62
BRANCH  59  64
HETATM   64  O   UNL     1     -42.680  11.757  48.455  1.00  0.00    -0.356 OA
HETATM   65  H   UNL     1     -42.659  12.734  48.392  1.00  0.00     0.218 HD
ENDBRANCH  59  64
BRANCH  60  66
HETATM   66  O   UNL     1     -42.561   9.166  49.335  1.00  0.00    -0.358 OA
HETATM   67  H   UNL     1     -41.786   8.669  49.000  1.00  0.00     0.217 HD
ENDBRANCH  60  66
ENDBRANCH  54  56
ENDBRANCH  53  54
ENDBRANCH   3  53
BRANCH   5  68
HETATM   68  O   UNL     1     -40.262   9.514  56.527  1.00  0.00    -0.388 OA
HETATM   69  H   UNL     1     -39.357   9.194  56.700  1.00  0.00     0.210 HD
ENDBRANCH   5  68
TORSDOF 26
ENDMDL
MODEL 9
REMARK VINA RESULT:    -7.779      1.614      6.224
REMARK INTER + INTRA:         -20.720
REMARK INTER:                 -16.137
REMARK INTRA:                  -4.583
REMARK UNBOUND:                -4.072
REMARK  26 active torsions:
REMARK  status: ('A' for Active; 'I' for Inactive)
REMARK    1  A    between atoms: O_2  and  C_29 
REMARK    2  A    between atoms: O_2  and  C_23 
REMARK    3  A    between atoms: O_3  and  C_24 
REMARK    4  A    between atoms: O_3  and  C_30 
REMARK    5  A    between atoms: O_4  and  C_26 
REMARK    6  A    between atoms: O_5  and  C_31 
REMARK    7  A    between atoms: O_5  and  C_27 
REMARK    8  A    between atoms: O_6  and  C_28 
REMARK    9  A    between atoms: O_6  and  C_34 
REMARK   10  A    between atoms: O_11  and  C_43 
REMARK   11  A    between atoms: O_12  and  C_44 
REMARK   12  A    between atoms: O_13  and  C_45 
REMARK   13  A    between atoms: O_14  and  C_46 
REMARK   14  A    between atoms: O_15  and  C_49 
REMARK   15  A    between atoms: O_16  and  C_50 
REMARK   16  A    between atoms: O_17  and  C_51 
REMARK   17  A    between atoms: O_18  and  C_52 
REMARK   18  A    between atoms: O_19  and  C_53 
REMARK   19  A    between atoms: O_20  and  C_54 
REMARK   20  A    between atoms: O_21  and  C_55 
REMARK   21  A    between atoms: O_22  and  C_56 
REMARK   22  A    between atoms: C_25  and  C_28 
REMARK   23  A    between atoms: C_29  and  C_32 
REMARK   24  A    between atoms: C_30  and  C_33 
REMARK   25  A    between atoms: C_31  and  C_35 
REMARK   26  A    between atoms: C_34  and  C_36 
ROOT
HETATM    1  O   UNL     1     -26.267  -4.204  58.334  1.00  0.00    -0.348 OA
HETATM    2  C   UNL     1     -24.934  -4.397  60.338  1.00  0.00     0.195 C 
HETATM    3  C   UNL     1     -23.850  -3.504  59.715  1.00  0.00     0.198 C 
HETATM    4  C   UNL     1     -25.647  -5.156  59.206  1.00  0.00     0.181 C 
HETATM    5  C   UNL     1     -24.404  -2.621  58.578  1.00  0.00     0.206 C 
HETATM    6  C   UNL     1     -25.303  -3.432  57.613  1.00  0.00     0.301 C 
ENDROOT
BRANCH   4   7
HETATM    7  C   UNL     1     -26.692  -6.134  59.766  1.00  0.00     0.213 C 
BRANCH   7   8
HETATM    8  O   UNL     1     -27.687  -6.446  58.778  1.00  0.00    -0.315 OA
BRANCH   8   9
HETATM    9  C   UNL     1     -27.481  -7.620  58.126  1.00  0.00     0.293 C 
HETATM   10  O   UNL     1     -27.308  -8.716  58.634  1.00  0.00    -0.259 OA
BRANCH   9  11
HETATM   11  C   UNL     1     -27.500  -7.387  56.666  1.00  0.00     0.045 A 
HETATM   12  C   UNL     1     -27.914  -6.155  56.131  1.00  0.00     0.057 A 
HETATM   13  C   UNL     1     -27.861  -5.967  54.754  1.00  0.00     0.102 A 
HETATM   14  C   UNL     1     -27.414  -6.990  53.924  1.00  0.00     0.132 A 
HETATM   15  C   UNL     1     -27.013  -8.206  54.461  1.00  0.00     0.102 A 
HETATM   16  C   UNL     1     -27.043  -8.415  55.831  1.00  0.00     0.057 A 
BRANCH  13  17
HETATM   17  O   UNL     1     -28.226  -4.787  54.167  1.00  0.00    -0.358 OA
HETATM   18  H   UNL     1     -28.457  -4.960  53.237  1.00  0.00     0.217 HD
ENDBRANCH  13  17
BRANCH  14  19
HETATM   19  O   UNL     1     -27.355  -6.810  52.568  1.00  0.00    -0.356 OA
HETATM   20  H   UNL     1     -28.237  -7.087  52.247  1.00  0.00     0.218 HD
ENDBRANCH  14  19
BRANCH  15  21
HETATM   21  O   UNL     1     -26.575  -9.206  53.642  1.00  0.00    -0.358 OA
HETATM   22  H   UNL     1     -26.956 -10.025  54.021  1.00  0.00     0.217 HD
ENDBRANCH  15  21
ENDBRANCH   9  11
ENDBRANCH   8   9
ENDBRANCH   7   8
ENDBRANCH   4   7
BRANCH   2  23
HETATM   23  O   UNL     1     -24.331  -5.376  61.220  1.00  0.00    -0.307 OA
BRANCH  23  24
HETATM   24  C   UNL     1     -24.348  -5.427  62.572  1.00  0.00     0.294 C 
HETATM   25  O   UNL     1     -25.262  -5.997  63.157  1.00  0.00    -0.259 OA
BRANCH  24  26
HETATM   26  C   UNL     1     -23.248  -4.838  63.371  1.00  0.00     0.045 A 
HETATM   27  C   UNL     1     -21.915  -5.254  63.237  1.00  0.00     0.057 A 
HETATM   28  C   UNL     1     -20.938  -4.685  64.047  1.00  0.00     0.102 A 
HETATM   29  C   UNL     1     -21.266  -3.655  64.919  1.00  0.00     0.132 A 
HETATM   30  C   UNL     1     -22.571  -3.189  64.992  1.00  0.00     0.102 A 
HETATM   31  C   UNL     1     -23.569  -3.770  64.222  1.00  0.00     0.057 A 
BRANCH  28  32
HETATM   32  O   UNL     1     -19.640  -5.110  64.024  1.00  0.00    -0.358 OA
HETATM   33  H   UNL     1     -19.572  -5.900  63.456  1.00  0.00     0.217 HD
ENDBRANCH  28  32
BRANCH  29  34
HETATM   34  O   UNL     1     -20.308  -3.084  65.713  1.00  0.00    -0.356 OA
HETATM   35  H   UNL     1     -19.941  -3.834  66.225  1.00  0.00     0.218 HD
ENDBRANCH  29  34
BRANCH  30  36
HETATM   36  O   UNL     1     -22.884  -2.157  65.826  1.00  0.00    -0.358 OA
HETATM   37  H   UNL     1     -22.896  -2.551  66.721  1.00  0.00     0.217 HD
ENDBRANCH  30  36
ENDBRANCH  24  26
ENDBRANCH  23  24
ENDBRANCH   2  23
BRANCH   6  38
HETATM   38  O   UNL     1     -26.000  -2.473  56.785  1.00  0.00    -0.283 OA
BRANCH  38  39
HETATM   39  C   UNL     1     -25.734  -2.203  55.488  1.00  0.00     0.295 C 
HETATM   40  O   UNL     1     -25.864  -3.047  54.610  1.00  0.00    -0.259 OA
BRANCH  39  41
HETATM   41  C   UNL     1     -25.130  -0.903  55.142  1.00  0.00     0.045 A 
HETATM   42  C   UNL     1     -25.059   0.137  56.080  1.00  0.00     0.057 A 
HETATM   43  C   UNL     1     -24.446   1.331  55.717  1.00  0.00     0.102 A 
HETATM   44  C   UNL     1     -23.984   1.512  54.418  1.00  0.00     0.132 A 
HETATM   45  C   UNL     1     -24.128   0.504  53.473  1.00  0.00     0.102 A 
HETATM   46  C   UNL     1     -24.693  -0.713  53.824  1.00  0.00     0.057 A 
BRANCH  43  47
HETATM   47  O   UNL     1     -24.265   2.351  56.608  1.00  0.00    -0.358 OA
HETATM   48  H   UNL     1     -25.131   2.599  56.978  1.00  0.00     0.217 HD
ENDBRANCH  43  47
BRANCH  44  49
HETATM   49  O   UNL     1     -23.388   2.688  54.050  1.00  0.00    -0.356 OA
HETATM   50  H   UNL     1     -24.102   3.356  54.119  1.00  0.00     0.218 HD
ENDBRANCH  44  49
BRANCH  45  51
HETATM   51  O   UNL     1     -23.713   0.705  52.189  1.00  0.00    -0.358 OA
HETATM   52  H   UNL     1     -24.519   0.971  51.702  1.00  0.00     0.217 HD
ENDBRANCH  45  51
ENDBRANCH  39  41
ENDBRANCH  38  39
ENDBRANCH   6  38
BRANCH   3  53
HETATM   53  O   UNL     1     -23.120  -2.735  60.714  1.00  0.00    -0.306 OA
BRANCH  53  54
HETATM   54  C   UNL     1     -21.780  -2.594  60.591  1.00  0.00     0.294 C 
HETATM   55  O   UNL     1     -21.071  -3.165  59.783  1.00  0.00    -0.259 OA
BRANCH  54  56
HETATM   56  C   UNL     1     -21.259  -1.687  61.635  1.00  0.00     0.045 A 
HETATM   57  C   UNL     1     -22.152  -0.783  62.235  1.00  0.00     0.057 A 
HETATM   58  C   UNL     1     -21.695   0.048  63.251  1.00  0.00     0.102 A 
HETATM   59  C   UNL     1     -20.375  -0.041  63.685  1.00  0.00     0.132 A 
HETATM   60  C   UNL     1     -19.500  -0.941  63.092  1.00  0.00     0.102 A 
HETATM   61  C   UNL     1     -19.924  -1.760  62.054  1.00  0.00     0.057 A 
BRANCH  58  62
HETATM   62  O   UNL     1     -22.504   0.965  63.860  1.00  0.00    -0.358 OA
HETATM   63  H   UNL     1     -23.405   0.872  63.506  1.00  0.00     0.217 HD
ENDBRANCH  58  62
BRANCH  59  64
HETATM   64  O   UNL     1     -19.923   0.755  64.702  1.00  0.00    -0.356 OA
HETATM   65  H   UNL     1     -18.951   0.639  64.689  1.00  0.00     0.218 HD
ENDBRANCH  59  64
BRANCH  60  66
HETATM   66  O   UNL     1     -18.214  -1.039  63.534  1.00  0.00    -0.358 OA
HETATM   67  H   UNL     1     -17.935  -0.115  63.698  1.00  0.00     0.217 HD
ENDBRANCH  60  66
ENDBRANCH  54  56
ENDBRANCH  53  54
ENDBRANCH   3  53
BRANCH   5  68
HETATM   68  O   UNL     1     -23.298  -2.044  57.861  1.00  0.00    -0.388 OA
HETATM   69  H   UNL     1     -23.629  -1.222  57.455  1.00  0.00     0.210 HD
ENDBRANCH   5  68
TORSDOF 26
ENDMDL
MODEL 10
REMARK VINA RESULT:    -7.730     19.764     22.909
REMARK INTER + INTRA:         -20.614
REMARK INTER:                 -15.517
REMARK INTRA:                  -5.096
REMARK UNBOUND:                -4.072
REMARK  26 active torsions:
REMARK  status: ('A' for Active; 'I' for Inactive)
REMARK    1  A    between atoms: O_2  and  C_29 
REMARK    2  A    between atoms: O_2  and  C_23 
REMARK    3  A    between atoms: O_3  and  C_24 
REMARK    4  A    between atoms: O_3  and  C_30 
REMARK    5  A    between atoms: O_4  and  C_26 
REMARK    6  A    between atoms: O_5  and  C_31 
REMARK    7  A    between atoms: O_5  and  C_27 
REMARK    8  A    between atoms: O_6  and  C_28 
REMARK    9  A    between atoms: O_6  and  C_34 
REMARK   10  A    between atoms: O_11  and  C_43 
REMARK   11  A    between atoms: O_12  and  C_44 
REMARK   12  A    between atoms: O_13  and  C_45 
REMARK   13  A    between atoms: O_14  and  C_46 
REMARK   14  A    between atoms: O_15  and  C_49 
REMARK   15  A    between atoms: O_16  and  C_50 
REMARK   16  A    between atoms: O_17  and  C_51 
REMARK   17  A    between atoms: O_18  and  C_52 
REMARK   18  A    between atoms: O_19  and  C_53 
REMARK   19  A    between atoms: O_20  and  C_54 
REMARK   20  A    between atoms: O_21  and  C_55 
REMARK   21  A    between atoms: O_22  and  C_56 
REMARK   22  A    between atoms: C_25  and  C_28 
REMARK   23  A    between atoms: C_29  and  C_32 
REMARK   24  A    between atoms: C_30  and  C_33 
REMARK   25  A    between atoms: C_31  and  C_35 
REMARK   26  A    between atoms: C_34  and  C_36 
ROOT
HETATM    1  O   UNL     1     -37.597  13.912  57.483  1.00  0.00    -0.348 OA
HETATM    2  C   UNL     1     -38.135  12.983  59.646  1.00  0.00     0.195 C 
HETATM    3  C   UNL     1     -39.630  13.010  59.296  1.00  0.00     0.198 C 
HETATM    4  C   UNL     1     -37.439  14.129  58.890  1.00  0.00     0.181 C 
HETATM    5  C   UNL     1     -39.873  13.036  57.773  1.00  0.00     0.206 C 
HETATM    6  C   UNL     1     -38.956  14.064  57.067  1.00  0.00     0.301 C 
ENDROOT
BRANCH   4   7
HETATM    7  C   UNL     1     -35.949  14.214  59.259  1.00  0.00     0.213 C 
BRANCH   7   8
HETATM    8  O   UNL     1     -35.518  15.580  59.347  1.00  0.00    -0.315 OA
BRANCH   8   9
HETATM    9  C   UNL     1     -34.876  16.039  58.241  1.00  0.00     0.293 C 
HETATM   10  O   UNL     1     -34.000  15.464  57.616  1.00  0.00    -0.259 OA
BRANCH   9  11
HETATM   11  C   UNL     1     -35.399  17.373  57.879  1.00  0.00     0.045 A 
HETATM   12  C   UNL     1     -36.133  18.142  58.801  1.00  0.00     0.057 A 
HETATM   13  C   UNL     1     -36.555  19.414  58.431  1.00  0.00     0.102 A 
HETATM   14  C   UNL     1     -36.264  19.909  57.164  1.00  0.00     0.132 A 
HETATM   15  C   UNL     1     -35.544  19.141  56.258  1.00  0.00     0.102 A 
HETATM   16  C   UNL     1     -35.098  17.875  56.606  1.00  0.00     0.057 A 
BRANCH  13  17
HETATM   17  O   UNL     1     -37.252  20.225  59.284  1.00  0.00    -0.358 OA
HETATM   18  H   UNL     1     -38.194  19.980  59.249  1.00  0.00     0.217 HD
ENDBRANCH  13  17
BRANCH  14  19
HETATM   19  O   UNL     1     -36.673  21.162  56.796  1.00  0.00    -0.356 OA
HETATM   20  H   UNL     1     -37.337  21.004  56.095  1.00  0.00     0.218 HD
ENDBRANCH  14  19
BRANCH  15  21
HETATM   21  O   UNL     1     -35.260  19.631  55.017  1.00  0.00    -0.358 OA
HETATM   22  H   UNL     1     -34.611  20.348  55.173  1.00  0.00     0.217 HD
ENDBRANCH  15  21
ENDBRANCH   9  11
ENDBRANCH   8   9
ENDBRANCH   7   8
ENDBRANCH   4   7
BRANCH   2  23
HETATM   23  O   UNL     1     -37.947  13.209  61.064  1.00  0.00    -0.307 OA
BRANCH  23  24
HETATM   24  C   UNL     1     -38.655  14.005  61.900  1.00  0.00     0.294 C 
HETATM   25  O   UNL     1     -39.504  13.521  62.641  1.00  0.00    -0.259 OA
BRANCH  24  26
HETATM   26  C   UNL     1     -38.393  15.461  61.971  1.00  0.00     0.045 A 
HETATM   27  C   UNL     1     -37.397  16.007  62.794  1.00  0.00     0.057 A 
HETATM   28  C   UNL     1     -37.231  17.387  62.841  1.00  0.00     0.102 A 
HETATM   29  C   UNL     1     -37.986  18.210  62.015  1.00  0.00     0.132 A 
HETATM   30  C   UNL     1     -38.915  17.662  61.141  1.00  0.00     0.102 A 
HETATM   31  C   UNL     1     -39.125  16.291  61.108  1.00  0.00     0.057 A 
BRANCH  28  32
HETATM   32  O   UNL     1     -36.339  17.981  63.687  1.00  0.00    -0.358 OA
HETATM   33  H   UNL     1     -35.946  18.756  63.245  1.00  0.00     0.217 HD
ENDBRANCH  28  32
BRANCH  29  34
HETATM   34  O   UNL     1     -37.822  19.568  62.048  1.00  0.00    -0.356 OA
HETATM   35  H   UNL     1     -37.883  19.842  61.110  1.00  0.00     0.218 HD
ENDBRANCH  29  34
BRANCH  30  36
HETATM   36  O   UNL     1     -39.632  18.470  60.310  1.00  0.00    -0.358 OA
HETATM   37  H   UNL     1     -40.301  17.884  59.903  1.00  0.00     0.217 HD
ENDBRANCH  30  36
ENDBRANCH  24  26
ENDBRANCH  23  24
ENDBRANCH   2  23
BRANCH   6  38
HETATM   38  O   UNL     1     -39.041  13.797  55.649  1.00  0.00    -0.283 OA
BRANCH  38  39
HETATM   39  C   UNL     1     -38.014  13.445  54.845  1.00  0.00     0.295 C 
HETATM   40  O   UNL     1     -37.757  12.273  54.596  1.00  0.00    -0.259 OA
BRANCH  39  41
HETATM   41  C   UNL     1     -37.088  14.492  54.374  1.00  0.00     0.045 A 
HETATM   42  C   UNL     1     -37.566  15.712  53.874  1.00  0.00     0.057 A 
HETATM   43  C   UNL     1     -36.651  16.682  53.479  1.00  0.00     0.102 A 
HETATM   44  C   UNL     1     -35.288  16.409  53.505  1.00  0.00     0.132 A 
HETATM   45  C   UNL     1     -34.827  15.169  53.930  1.00  0.00     0.102 A 
HETATM   46  C   UNL     1     -35.717  14.202  54.375  1.00  0.00     0.057 A 
BRANCH  43  47
HETATM   47  O   UNL     1     -37.047  17.922  53.065  1.00  0.00    -0.358 OA
HETATM   48  H   UNL     1     -37.535  18.352  53.790  1.00  0.00     0.217 HD
ENDBRANCH  43  47
BRANCH  44  49
HETATM   49  O   UNL     1     -34.383  17.355  53.109  1.00  0.00    -0.356 OA
HETATM   50  H   UNL     1     -33.637  16.838  52.738  1.00  0.00     0.218 HD
ENDBRANCH  44  49
BRANCH  45  51
HETATM   51  O   UNL     1     -33.491  14.893  53.912  1.00  0.00    -0.358 OA
HETATM   52  H   UNL     1     -33.055  15.742  54.129  1.00  0.00     0.217 HD
ENDBRANCH  45  51
ENDBRANCH  39  41
ENDBRANCH  38  39
ENDBRANCH   6  38
BRANCH   3  53
HETATM   53  O   UNL     1     -40.377  11.951  59.963  1.00  0.00    -0.306 OA
BRANCH  53  54
HETATM   54  C   UNL     1     -40.356  10.700  59.447  1.00  0.00     0.294 C 
HETATM   55  O   UNL     1     -41.002  10.309  58.492  1.00  0.00    -0.259 OA
BRANCH  54  56
HETATM   56  C   UNL     1     -39.480   9.825  60.253  1.00  0.00     0.045 A 
HETATM   57  C   UNL     1     -39.769   9.674  61.620  1.00  0.00     0.057 A 
HETATM   58  C   UNL     1     -38.986   8.819  62.387  1.00  0.00     0.102 A 
HETATM   59  C   UNL     1     -37.949   8.103  61.797  1.00  0.00     0.132 A 
HETATM   60  C   UNL     1     -37.674   8.252  60.444  1.00  0.00     0.102 A 
HETATM   61  C   UNL     1     -38.421   9.123  59.662  1.00  0.00     0.057 A 
BRANCH  58  62
HETATM   62  O   UNL     1     -39.198   8.644  63.726  1.00  0.00    -0.358 OA
HETATM   63  H   UNL     1     -39.316   9.516  64.141  1.00  0.00     0.217 HD
ENDBRANCH  58  62
BRANCH  59  64
HETATM   64  O   UNL     1     -37.190   7.239  62.539  1.00  0.00    -0.356 OA
HETATM   65  H   UNL     1     -37.829   6.576  62.870  1.00  0.00     0.218 HD
ENDBRANCH  59  64
BRANCH  60  66
HETATM   66  O   UNL     1     -36.671   7.532  59.865  1.00  0.00    -0.358 OA
HETATM   67  H   UNL     1     -36.266   8.144  59.216  1.00  0.00     0.217 HD
ENDBRANCH  60  66
ENDBRANCH  54  56
ENDBRANCH  53  54
ENDBRANCH   3  53
BRANCH   5  68
HETATM   68  O   UNL     1     -41.256  13.353  57.532  1.00  0.00    -0.388 OA
HETATM   69  H   UNL     1     -41.284  14.296  57.282  1.00  0.00     0.210 HD
ENDBRANCH   5  68
TORSDOF 26
ENDMDL
