MODEL 1
REMARK VINA RESULT:      -8.8      0.000      0.000
REMARK  Name = 9823887
REMARK                            x       y       z     vdW  Elec       q    Type
REMARK                         _______ _______ _______ _____ _____    ______ ____
ROOT
ATOM      1  O   LIG    1       33.194   7.227  -6.074  0.00  0.00    -0.341 OA
ATOM      2  C   LIG    1       33.818   7.015  -7.338  0.00  0.00    +0.282 C 
ATOM      3  C   LIG    1       33.152   5.852  -8.075  0.00  0.00    +0.201 C 
ATOM      4  C   LIG    1       31.642   6.057  -8.187  0.00  0.00    +0.179 C 
ATOM      5  C   LIG    1       31.033   6.441  -6.839  0.00  0.00    +0.177 C 
ATOM     22  C   LIG    1       31.817   7.587  -6.195  0.00  0.00    +0.178 C 
ENDROOT
BRANCH   5   6
ATOM      6  O   LIG    1       29.679   6.845  -7.030  0.00  0.00    -0.386 OA
ATOM      7  H   LIG    1       29.581   7.134  -7.954  0.00  0.00    +0.210 HD
ENDBRANCH   5   6
BRANCH   4   8
ATOM      8  O   LIG    1       31.028   4.842  -8.619  0.00  0.00    -0.386 OA
ATOM      9  H   LIG    1       30.797   4.333  -7.823  0.00  0.00    +0.210 HD
ENDBRANCH   4   8
BRANCH   3  10
ATOM     10  O   LIG    1       33.718   5.769  -9.382  0.00  0.00    -0.384 OA
ATOM     11  H   LIG    1       34.638   6.080  -9.333  0.00  0.00    +0.210 HD
ENDBRANCH   3  10
BRANCH   2  12
ATOM     12  O   LIG    1       35.193   6.685  -7.147  0.00  0.00    -0.345 OA
BRANCH  12  13
ATOM     13  C   LIG    1       35.340   5.506  -6.373  0.00  0.00    +0.190 C 
BRANCH  13  14
ATOM     14  C   LIG    1       36.608   5.600  -5.588  0.00  0.00    +0.001 C 
ATOM     15  C   LIG    1       37.016   6.724  -4.979  0.00  0.00    +0.006 C 
BRANCH  15  16
ATOM     16  C   LIG    1       38.249   6.860  -4.184  0.00  0.00    -0.025 A 
ATOM     17  C   LIG    1       38.902   5.719  -3.744  0.00  0.00    +0.008 A 
ATOM     18  C   LIG    1       40.069   5.849  -2.991  0.00  0.00    +0.001 A 
ATOM     19  C   LIG    1       40.567   7.115  -2.686  0.00  0.00    +0.000 A 
ATOM     20  C   LIG    1       39.899   8.254  -3.136  0.00  0.00    +0.001 A 
ATOM     21  C   LIG    1       38.732   8.125  -3.889  0.00  0.00    +0.008 A 
ENDBRANCH  15  16
ENDBRANCH  13  14
ENDBRANCH  12  13
ENDBRANCH   2  12
BRANCH  22  23
ATOM     23  C   LIG    1       31.300   7.910  -4.797  0.00  0.00    +0.197 C 
BRANCH  23  24
ATOM     24  O   LIG    1       30.981   9.289  -4.742  0.00  0.00    -0.346 OA
BRANCH  24  25
ATOM     25  C   LIG    1       29.588   9.516  -4.928  0.00  0.00    +0.281 C 
ATOM     26  C   LIG    1       28.779   8.599  -3.998  0.00  0.00    +0.201 C 
ATOM     27  C   LIG    1       28.832   9.066  -2.540  0.00  0.00    +0.178 C 
ATOM     28  C   LIG    1       28.515  10.560  -2.453  0.00  0.00    +0.171 C 
ATOM     29  C   LIG    1       29.402  11.353  -3.405  0.00  0.00    +0.197 C 
ATOM     36  O   LIG    1       29.240  10.893  -4.744  0.00  0.00    -0.346 OA
BRANCH  28  30
ATOM     30  O   LIG    1       28.690  11.014  -1.118  0.00  0.00    -0.387 OA
ATOM     31  H   LIG    1       28.874  10.236  -0.565  0.00  0.00    +0.210 HD
ENDBRANCH  28  30
BRANCH  27  32
ATOM     32  O   LIG    1       30.135   8.829  -2.009  0.00  0.00    -0.386 OA
ATOM     33  H   LIG    1       30.071   8.885  -1.040  0.00  0.00    +0.210 HD
ENDBRANCH  27  32
BRANCH  26  34
ATOM     34  O   LIG    1       27.426   8.601  -4.445  0.00  0.00    -0.384 OA
ATOM     35  H   LIG    1       26.930   7.944  -3.929  0.00  0.00    +0.210 HD
ENDBRANCH  26  34
ENDBRANCH  24  25
ENDBRANCH  23  24
ENDBRANCH  22  23
TORSDOF 13
ENDMDL
MODEL 2
REMARK VINA RESULT:      -8.7     17.899     20.055
REMARK  Name = 9823887
REMARK                            x       y       z     vdW  Elec       q    Type
REMARK                         _______ _______ _______ _____ _____    ______ ____
ROOT
ATOM      1  O   LIG    1       37.069  -2.314  12.759  0.00  0.00    -0.341 OA
ATOM      2  C   LIG    1       38.012  -2.515  11.709  0.00  0.00    +0.282 C 
ATOM      3  C   LIG    1       37.769  -3.859  11.021  0.00  0.00    +0.201 C 
ATOM      4  C   LIG    1       36.321  -3.991  10.551  0.00  0.00    +0.179 C 
ATOM      5  C   LIG    1       35.342  -3.613  11.661  0.00  0.00    +0.177 C 
ATOM     22  C   LIG    1       35.722  -2.268  12.287  0.00  0.00    +0.178 C 
ENDROOT
BRANCH   5   6
ATOM      6  O   LIG    1       34.026  -3.525  11.121  0.00  0.00    -0.386 OA
ATOM      7  H   LIG    1       34.080  -3.716  10.168  0.00  0.00    +0.210 HD
ENDBRANCH   5   6
BRANCH   4   8
ATOM      8  O   LIG    1       36.063  -5.345  10.177  0.00  0.00    -0.386 OA
ATOM      9  H   LIG    1       35.949  -5.856  10.997  0.00  0.00    +0.210 HD
ENDBRANCH   4   8
BRANCH   3  10
ATOM     10  O   LIG    1       38.643  -3.950   9.897  0.00  0.00    -0.384 OA
ATOM     11  H   LIG    1       38.486  -3.177   9.329  0.00  0.00    +0.210 HD
ENDBRANCH   3  10
BRANCH   2  12
ATOM     12  O   LIG    1       39.334  -2.525  12.242  0.00  0.00    -0.345 OA
BRANCH  12  13
ATOM     13  C   LIG    1       39.570  -1.391  13.061  0.00  0.00    +0.190 C 
BRANCH  13  14
ATOM     14  C   LIG    1       40.015  -0.256  12.195  0.00  0.00    +0.001 C 
ATOM     15  C   LIG    1       39.168   0.626  11.642  0.00  0.00    +0.006 C 
BRANCH  15  16
ATOM     16  C   LIG    1       39.561   1.766  10.796  0.00  0.00    -0.025 A 
ATOM     17  C   LIG    1       38.906   2.978  10.942  0.00  0.00    +0.008 A 
ATOM     18  C   LIG    1       39.279   4.056  10.141  0.00  0.00    +0.001 A 
ATOM     19  C   LIG    1       40.301   3.909   9.203  0.00  0.00    +0.000 A 
ATOM     20  C   LIG    1       40.951   2.683   9.067  0.00  0.00    +0.001 A 
ATOM     21  C   LIG    1       40.579   1.604   9.869  0.00  0.00    +0.008 A 
ENDBRANCH  15  16
ENDBRANCH  13  14
ENDBRANCH  12  13
ENDBRANCH   2  12
BRANCH  22  23
ATOM     23  C   LIG    1       34.828  -1.924  13.475  0.00  0.00    +0.197 C 
BRANCH  23  24
ATOM     24  O   LIG    1       35.478  -0.938  14.256  0.00  0.00    -0.346 OA
BRANCH  24  25
ATOM     25  C   LIG    1       34.626   0.172  14.520  0.00  0.00    +0.281 C 
ATOM     26  C   LIG    1       34.930   0.745  15.913  0.00  0.00    +0.201 C 
ATOM     27  C   LIG    1       36.244   1.532  15.938  0.00  0.00    +0.178 C 
ATOM     28  C   LIG    1       36.284   2.528  14.777  0.00  0.00    +0.171 C 
ATOM     29  C   LIG    1       35.991   1.826  13.457  0.00  0.00    +0.197 C 
ATOM     36  O   LIG    1       34.723   1.176  13.504  0.00  0.00    -0.346 OA
BRANCH  28  30
ATOM     30  O   LIG    1       37.554   3.163  14.730  0.00  0.00    -0.387 OA
ATOM     31  H   LIG    1       37.401   4.122  14.680  0.00  0.00    +0.210 HD
ENDBRANCH  28  30
BRANCH  27  32
ATOM     32  O   LIG    1       37.343   0.630  15.823  0.00  0.00    -0.386 OA
ATOM     33  H   LIG    1       36.993  -0.219  15.504  0.00  0.00    +0.210 HD
ENDBRANCH  27  32
BRANCH  26  34
ATOM     34  O   LIG    1       33.856   1.608  16.278  0.00  0.00    -0.384 OA
ATOM     35  H   LIG    1       33.267   1.127  16.884  0.00  0.00    +0.210 HD
ENDBRANCH  26  34
ENDBRANCH  24  25
ENDBRANCH  23  24
ENDBRANCH  22  23
TORSDOF 13
ENDMDL
MODEL 3
REMARK VINA RESULT:      -8.6      2.168      3.503
REMARK  Name = 9823887
REMARK                            x       y       z     vdW  Elec       q    Type
REMARK                         _______ _______ _______ _____ _____    ______ ____
ROOT
ATOM      1  O   LIG    1       33.478   7.315  -6.118  0.00  0.00    -0.341 OA
ATOM      2  C   LIG    1       33.965   6.977  -7.414  0.00  0.00    +0.282 C 
ATOM      3  C   LIG    1       33.209   5.771  -7.973  0.00  0.00    +0.201 C 
ATOM      4  C   LIG    1       31.698   6.001  -7.949  0.00  0.00    +0.179 C 
ATOM      5  C   LIG    1       31.238   6.516  -6.585  0.00  0.00    +0.177 C 
ATOM     22  C   LIG    1       32.102   7.695  -6.130  0.00  0.00    +0.178 C 
ENDROOT
BRANCH   5   6
ATOM      6  O   LIG    1       29.878   6.933  -6.673  0.00  0.00    -0.386 OA
ATOM      7  H   LIG    1       29.337   6.296  -6.174  0.00  0.00    +0.210 HD
ENDBRANCH   5   6
BRANCH   4   8
ATOM      8  O   LIG    1       31.025   4.767  -8.205  0.00  0.00    -0.386 OA
ATOM      9  H   LIG    1       30.169   4.802  -7.746  0.00  0.00    +0.210 HD
ENDBRANCH   4   8
BRANCH   3  10
ATOM     10  O   LIG    1       33.635   5.561  -9.319  0.00  0.00    -0.384 OA
ATOM     11  H   LIG    1       32.850   5.362  -9.856  0.00  0.00    +0.210 HD
ENDBRANCH   3  10
BRANCH   2  12
ATOM     12  O   LIG    1       35.347   6.634  -7.337  0.00  0.00    -0.345 OA
BRANCH  12  13
ATOM     13  C   LIG    1       35.540   5.425  -6.620  0.00  0.00    +0.190 C 
BRANCH  13  14
ATOM     14  C   LIG    1       36.757   5.562  -5.763  0.00  0.00    +0.001 C 
ATOM     15  C   LIG    1       37.064   6.683  -5.093  0.00  0.00    +0.006 C 
BRANCH  15  16
ATOM     16  C   LIG    1       38.243   6.858  -4.227  0.00  0.00    -0.025 A 
ATOM     17  C   LIG    1       38.666   8.139  -3.907  0.00  0.00    +0.008 A 
ATOM     18  C   LIG    1       39.782   8.304  -3.087  0.00  0.00    +0.001 A 
ATOM     19  C   LIG    1       40.460   7.188  -2.597  0.00  0.00    +0.000 A 
ATOM     20  C   LIG    1       40.023   5.906  -2.927  0.00  0.00    +0.001 A 
ATOM     21  C   LIG    1       38.906   5.740  -3.748  0.00  0.00    +0.008 A 
ENDBRANCH  15  16
ENDBRANCH  13  14
ENDBRANCH  12  13
ENDBRANCH   2  12
BRANCH  22  23
ATOM     23  C   LIG    1       31.737   8.151  -4.720  0.00  0.00    +0.197 C 
BRANCH  23  24
ATOM     24  O   LIG    1       32.921   8.555  -4.057  0.00  0.00    -0.346 OA
BRANCH  24  25
ATOM     25  C   LIG    1       32.770   8.523  -2.642  0.00  0.00    +0.281 C 
ATOM     26  C   LIG    1       32.420   7.099  -2.185  0.00  0.00    +0.201 C 
ATOM     27  C   LIG    1       33.630   6.160  -2.247  0.00  0.00    +0.178 C 
ATOM     28  C   LIG    1       34.835   6.808  -1.564  0.00  0.00    +0.171 C 
ATOM     29  C   LIG    1       35.085   8.202  -2.126  0.00  0.00    +0.197 C 
ATOM     36  O   LIG    1       33.930   9.023  -1.967  0.00  0.00    -0.346 OA
BRANCH  28  30
ATOM     30  O   LIG    1       35.984   5.991  -1.735  0.00  0.00    -0.387 OA
ATOM     31  H   LIG    1       36.745   6.579  -1.878  0.00  0.00    +0.210 HD
ENDBRANCH  28  30
BRANCH  27  32
ATOM     32  O   LIG    1       33.952   5.885  -3.609  0.00  0.00    -0.386 OA
ATOM     33  H   LIG    1       34.536   5.107  -3.621  0.00  0.00    +0.210 HD
ENDBRANCH  27  32
BRANCH  26  34
ATOM     34  O   LIG    1       31.946   7.170  -0.843  0.00  0.00    -0.384 OA
ATOM     35  H   LIG    1       31.563   8.051  -0.698  0.00  0.00    +0.210 HD
ENDBRANCH  26  34
ENDBRANCH  24  25
ENDBRANCH  23  24
ENDBRANCH  22  23
TORSDOF 13
ENDMDL
MODEL 4
REMARK VINA RESULT:      -8.5      3.060      9.074
REMARK  Name = 9823887
REMARK                            x       y       z     vdW  Elec       q    Type
REMARK                         _______ _______ _______ _____ _____    ______ ____
ROOT
ATOM      1  O   LIG    1       35.111   7.792  -5.470  0.00  0.00    -0.341 OA
ATOM      2  C   LIG    1       33.821   7.356  -5.893  0.00  0.00    +0.282 C 
ATOM      3  C   LIG    1       33.927   6.543  -7.184  0.00  0.00    +0.201 C 
ATOM      4  C   LIG    1       34.922   5.392  -7.037  0.00  0.00    +0.179 C 
ATOM      5  C   LIG    1       36.240   5.873  -6.431  0.00  0.00    +0.177 C 
ATOM     22  C   LIG    1       35.987   6.704  -5.170  0.00  0.00    +0.178 C 
ENDROOT
BRANCH   5   6
ATOM      6  O   LIG    1       37.046   4.746  -6.099  0.00  0.00    -0.386 OA
ATOM      7  H   LIG    1       36.753   3.997  -6.647  0.00  0.00    +0.210 HD
ENDBRANCH   5   6
BRANCH   4   8
ATOM      8  O   LIG    1       35.204   4.840  -8.324  0.00  0.00    -0.386 OA
ATOM      9  H   LIG    1       35.463   5.575  -8.906  0.00  0.00    +0.210 HD
ENDBRANCH   4   8
BRANCH   3  10
ATOM     10  O   LIG    1       32.636   6.018  -7.488  0.00  0.00    -0.384 OA
ATOM     11  H   LIG    1       32.388   5.397  -6.782  0.00  0.00    +0.210 HD
ENDBRANCH   3  10
BRANCH   2  12
ATOM     12  O   LIG    1       32.991   8.486  -6.151  0.00  0.00    -0.345 OA
BRANCH  12  13
ATOM     13  C   LIG    1       33.126   9.469  -5.137  0.00  0.00    +0.190 C 
BRANCH  13  14
ATOM     14  C   LIG    1       31.879   9.487  -4.313  0.00  0.00    +0.001 C 
ATOM     15  C   LIG    1       30.681   9.103  -4.781  0.00  0.00    +0.006 C 
BRANCH  15  16
ATOM     16  C   LIG    1       29.430   9.090  -4.004  0.00  0.00    -0.025 A 
ATOM     17  C   LIG    1       29.327   9.879  -2.869  0.00  0.00    +0.008 A 
ATOM     18  C   LIG    1       28.142   9.866  -2.134  0.00  0.00    +0.001 A 
ATOM     19  C   LIG    1       27.077   9.064  -2.541  0.00  0.00    +0.000 A 
ATOM     20  C   LIG    1       27.195   8.274  -3.684  0.00  0.00    +0.001 A 
ATOM     21  C   LIG    1       28.380   8.287  -4.420  0.00  0.00    +0.008 A 
ENDBRANCH  15  16
ENDBRANCH  13  14
ENDBRANCH  12  13
ENDBRANCH   2  12
BRANCH  22  23
ATOM     23  C   LIG    1       37.279   7.292  -4.612  0.00  0.00    +0.197 C 
BRANCH  23  24
ATOM     24  O   LIG    1       38.069   6.237  -4.096  0.00  0.00    -0.346 OA
BRANCH  24  25
ATOM     25  C   LIG    1       38.364   6.423  -2.716  0.00  0.00    +0.281 C 
ATOM     26  C   LIG    1       39.047   5.168  -2.152  0.00  0.00    +0.201 C 
ATOM     27  C   LIG    1       40.501   5.043  -2.620  0.00  0.00    +0.178 C 
ATOM     28  C   LIG    1       41.239   6.365  -2.402  0.00  0.00    +0.171 C 
ATOM     29  C   LIG    1       40.469   7.519  -3.030  0.00  0.00    +0.197 C 
ATOM     36  O   LIG    1       39.152   7.598  -2.490  0.00  0.00    -0.346 OA
BRANCH  28  30
ATOM     30  O   LIG    1       42.546   6.283  -2.952  0.00  0.00    -0.387 OA
ATOM     31  H   LIG    1       42.964   5.479  -2.600  0.00  0.00    +0.210 HD
ENDBRANCH  28  30
BRANCH  27  32
ATOM     32  O   LIG    1       40.530   4.710  -4.007  0.00  0.00    -0.386 OA
ATOM     33  H   LIG    1       39.734   5.090  -4.416  0.00  0.00    +0.210 HD
ENDBRANCH  27  32
BRANCH  26  34
ATOM     34  O   LIG    1       39.013   5.249  -0.730  0.00  0.00    -0.384 OA
ATOM     35  H   LIG    1       38.180   4.858  -0.419  0.00  0.00    +0.210 HD
ENDBRANCH  26  34
ENDBRANCH  24  25
ENDBRANCH  23  24
ENDBRANCH  22  23
TORSDOF 13
ENDMDL
MODEL 5
REMARK VINA RESULT:      -8.4      1.162      2.035
REMARK  Name = 9823887
REMARK                            x       y       z     vdW  Elec       q    Type
REMARK                         _______ _______ _______ _____ _____    ______ ____
ROOT
ATOM      1  O   LIG    1       34.050   7.196  -6.070  0.00  0.00    -0.341 OA
ATOM      2  C   LIG    1       34.670   6.464  -7.125  0.00  0.00    +0.282 C 
ATOM      3  C   LIG    1       33.846   5.222  -7.470  0.00  0.00    +0.201 C 
ATOM      4  C   LIG    1       32.394   5.586  -7.776  0.00  0.00    +0.179 C 
ATOM      5  C   LIG    1       31.814   6.504  -6.700  0.00  0.00    +0.177 C 
ATOM     22  C   LIG    1       32.755   7.680  -6.426  0.00  0.00    +0.178 C 
ENDROOT
BRANCH   5   6
ATOM      6  O   LIG    1       30.551   7.001  -7.134  0.00  0.00    -0.386 OA
ATOM      7  H   LIG    1       30.241   6.436  -7.864  0.00  0.00    +0.210 HD
ENDBRANCH   5   6
BRANCH   4   8
ATOM      8  O   LIG    1       31.604   4.396  -7.813  0.00  0.00    -0.386 OA
ATOM      9  H   LIG    1       31.388   4.161  -6.894  0.00  0.00    +0.210 HD
ENDBRANCH   4   8
BRANCH   3  10
ATOM     10  O   LIG    1       34.431   4.602  -8.615  0.00  0.00    -0.384 OA
ATOM     11  H   LIG    1       35.018   3.892  -8.306  0.00  0.00    +0.210 HD
ENDBRANCH   3  10
BRANCH   2  12
ATOM     12  O   LIG    1       35.966   6.032  -6.716  0.00  0.00    -0.345 OA
BRANCH  12  13
ATOM     13  C   LIG    1       36.081   6.010  -5.302  0.00  0.00    +0.190 C 
BRANCH  13  14
ATOM     14  C   LIG    1       37.408   6.581  -4.917  0.00  0.00    +0.001 C 
ATOM     15  C   LIG    1       38.023   6.301  -3.758  0.00  0.00    +0.006 C 
BRANCH  15  16
ATOM     16  C   LIG    1       39.335   6.827  -3.343  0.00  0.00    -0.025 A 
ATOM     17  C   LIG    1       40.331   5.943  -2.959  0.00  0.00    +0.008 A 
ATOM     18  C   LIG    1       41.572   6.442  -2.567  0.00  0.00    +0.001 A 
ATOM     19  C   LIG    1       41.803   7.818  -2.563  0.00  0.00    +0.000 A 
ATOM     20  C   LIG    1       40.791   8.695  -2.952  0.00  0.00    +0.001 A 
ATOM     21  C   LIG    1       39.549   8.196  -3.345  0.00  0.00    +0.008 A 
ENDBRANCH  15  16
ENDBRANCH  13  14
ENDBRANCH  12  13
ENDBRANCH   2  12
BRANCH  22  23
ATOM     23  C   LIG    1       32.254   8.548  -5.275  0.00  0.00    +0.197 C 
BRANCH  23  24
ATOM     24  O   LIG    1       31.203   7.862  -4.619  0.00  0.00    -0.346 OA
BRANCH  24  25
ATOM     25  C   LIG    1       31.049   8.297  -3.272  0.00  0.00    +0.281 C 
ATOM     26  C   LIG    1       30.720   9.798  -3.241  0.00  0.00    +0.201 C 
ATOM     27  C   LIG    1       29.277  10.080  -3.675  0.00  0.00    +0.178 C 
ATOM     28  C   LIG    1       28.312   9.164  -2.922  0.00  0.00    +0.171 C 
ATOM     29  C   LIG    1       28.739   7.708  -3.054  0.00  0.00    +0.197 C 
ATOM     36  O   LIG    1       30.067   7.528  -2.568  0.00  0.00    -0.346 OA
BRANCH  28  30
ATOM     30  O   LIG    1       26.992   9.340  -3.418  0.00  0.00    -0.387 OA
ATOM     31  H   LIG    1       26.975   9.007  -4.332  0.00  0.00    +0.210 HD
ENDBRANCH  28  30
BRANCH  27  32
ATOM     32  O   LIG    1       29.147   9.851  -5.077  0.00  0.00    -0.386 OA
ATOM     33  H   LIG    1       30.024   9.601  -5.416  0.00  0.00    +0.210 HD
ENDBRANCH  27  32
BRANCH  26  34
ATOM     34  O   LIG    1       30.912  10.264  -1.908  0.00  0.00    -0.384 OA
ATOM     35  H   LIG    1       30.288   9.798  -1.326  0.00  0.00    +0.210 HD
ENDBRANCH  26  34
ENDBRANCH  24  25
ENDBRANCH  23  24
ENDBRANCH  22  23
TORSDOF 13
ENDMDL
MODEL 6
REMARK VINA RESULT:      -8.3     17.519     19.733
REMARK  Name = 9823887
REMARK                            x       y       z     vdW  Elec       q    Type
REMARK                         _______ _______ _______ _____ _____    ______ ____
ROOT
ATOM      1  O   LIG    1       36.452  -1.381  12.231  0.00  0.00    -0.341 OA
ATOM      2  C   LIG    1       37.753  -1.920  12.004  0.00  0.00    +0.282 C 
ATOM      3  C   LIG    1       37.660  -3.390  11.593  0.00  0.00    +0.201 C 
ATOM      4  C   LIG    1       36.726  -3.576  10.399  0.00  0.00    +0.179 C 
ATOM      5  C   LIG    1       35.399  -2.849  10.614  0.00  0.00    +0.177 C 
ATOM     22  C   LIG    1       35.638  -1.403  11.058  0.00  0.00    +0.178 C 
ENDROOT
BRANCH   5   6
ATOM      6  O   LIG    1       34.656  -2.852   9.398  0.00  0.00    -0.386 OA
ATOM      7  H   LIG    1       34.074  -2.073   9.400  0.00  0.00    +0.210 HD
ENDBRANCH   5   6
BRANCH   4   8
ATOM      8  O   LIG    1       36.445  -4.966  10.227  0.00  0.00    -0.386 OA
ATOM      9  H   LIG    1       36.929  -5.266   9.438  0.00  0.00    +0.210 HD
ENDBRANCH   4   8
BRANCH   3  10
ATOM     10  O   LIG    1       38.969  -3.841  11.247  0.00  0.00    -0.384 OA
ATOM     11  H   LIG    1       39.273  -4.446  11.943  0.00  0.00    +0.210 HD
ENDBRANCH   3  10
BRANCH   2  12
ATOM     12  O   LIG    1       38.522  -1.845  13.203  0.00  0.00    -0.345 OA
BRANCH  12  13
ATOM     13  C   LIG    1       39.644  -0.991  13.046  0.00  0.00    +0.190 C 
BRANCH  13  14
ATOM     14  C   LIG    1       39.284   0.107  12.098  0.00  0.00    +0.001 C 
ATOM     15  C   LIG    1       40.181   0.734  11.321  0.00  0.00    +0.006 C 
BRANCH  15  16
ATOM     16  C   LIG    1       39.872   1.809  10.363  0.00  0.00    -0.025 A 
ATOM     17  C   LIG    1       40.831   2.194   9.440  0.00  0.00    +0.008 A 
ATOM     18  C   LIG    1       40.536   3.212   8.533  0.00  0.00    +0.001 A 
ATOM     19  C   LIG    1       39.289   3.834   8.563  0.00  0.00    +0.000 A 
ATOM     20  C   LIG    1       38.333   3.437   9.498  0.00  0.00    +0.001 A 
ATOM     21  C   LIG    1       38.627   2.418  10.405  0.00  0.00    +0.008 A 
ENDBRANCH  15  16
ENDBRANCH  13  14
ENDBRANCH  12  13
ENDBRANCH   2  12
BRANCH  22  23
ATOM     23  C   LIG    1       34.330  -0.691  11.392  0.00  0.00    +0.197 C 
BRANCH  23  24
ATOM     24  O   LIG    1       34.539   0.125  12.529  0.00  0.00    -0.346 OA
BRANCH  24  25
ATOM     25  C   LIG    1       33.403   0.136  13.388  0.00  0.00    +0.281 C 
ATOM     26  C   LIG    1       33.418  -1.108  14.289  0.00  0.00    +0.201 C 
ATOM     27  C   LIG    1       34.468  -1.003  15.400  0.00  0.00    +0.178 C 
ATOM     28  C   LIG    1       34.347   0.344  16.114  0.00  0.00    +0.171 C 
ATOM     29  C   LIG    1       34.371   1.489  15.109  0.00  0.00    +0.197 C 
ATOM     36  O   LIG    1       33.322   1.342  14.155  0.00  0.00    -0.346 OA
BRANCH  28  30
ATOM     30  O   LIG    1       35.402   0.488  17.055  0.00  0.00    -0.387 OA
ATOM     31  H   LIG    1       35.039   0.292  17.936  0.00  0.00    +0.210 HD
ENDBRANCH  28  30
BRANCH  27  32
ATOM     32  O   LIG    1       35.773  -1.122  14.835  0.00  0.00    -0.386 OA
ATOM     33  H   LIG    1       36.108  -2.008  15.055  0.00  0.00    +0.210 HD
ENDBRANCH  27  32
BRANCH  26  34
ATOM     34  O   LIG    1       32.124  -1.243  14.874  0.00  0.00    -0.384 OA
ATOM     35  H   LIG    1       32.216  -1.718  15.717  0.00  0.00    +0.210 HD
ENDBRANCH  26  34
ENDBRANCH  24  25
ENDBRANCH  23  24
ENDBRANCH  22  23
TORSDOF 13
ENDMDL
MODEL 7
REMARK VINA RESULT:      -8.3     13.548     17.210
REMARK  Name = 9823887
REMARK                            x       y       z     vdW  Elec       q    Type
REMARK                         _______ _______ _______ _____ _____    ______ ____
ROOT
ATOM      1  O   LIG    1       24.792  -6.738  -4.772  0.00  0.00    -0.341 OA
ATOM      2  C   LIG    1       23.774  -7.190  -5.663  0.00  0.00    +0.282 C 
ATOM      3  C   LIG    1       24.285  -7.185  -7.104  0.00  0.00    +0.201 C 
ATOM      4  C   LIG    1       25.584  -7.979  -7.238  0.00  0.00    +0.179 C 
ATOM      5  C   LIG    1       26.592  -7.576  -6.162  0.00  0.00    +0.177 C 
ATOM     22  C   LIG    1       25.941  -7.585  -4.777  0.00  0.00    +0.178 C 
ENDROOT
BRANCH   5   6
ATOM      6  O   LIG    1       27.687  -8.488  -6.176  0.00  0.00    -0.386 OA
ATOM      7  H   LIG    1       27.844  -8.754  -7.099  0.00  0.00    +0.210 HD
ENDBRANCH   5   6
BRANCH   4   8
ATOM      8  O   LIG    1       26.171  -7.718  -8.514  0.00  0.00    -0.386 OA
ATOM      9  H   LIG    1       25.498  -7.911  -9.188  0.00  0.00    +0.210 HD
ENDBRANCH   4   8
BRANCH   3  10
ATOM     10  O   LIG    1       23.283  -7.772  -7.935  0.00  0.00    -0.384 OA
ATOM     11  H   LIG    1       23.675  -7.938  -8.808  0.00  0.00    +0.210 HD
ENDBRANCH   3  10
BRANCH   2  12
ATOM     12  O   LIG    1       22.648  -6.317  -5.591  0.00  0.00    -0.345 OA
BRANCH  12  13
ATOM     13  C   LIG    1       22.993  -4.995  -5.972  0.00  0.00    +0.190 C 
BRANCH  13  14
ATOM     14  C   LIG    1       21.753  -4.277  -6.397  0.00  0.00    +0.001 C 
ATOM     15  C   LIG    1       21.735  -3.344  -7.361  0.00  0.00    +0.006 C 
BRANCH  15  16
ATOM     16  C   LIG    1       20.537  -2.622  -7.822  0.00  0.00    -0.025 A 
ATOM     17  C   LIG    1       20.183  -2.678  -9.161  0.00  0.00    +0.008 A 
ATOM     18  C   LIG    1       19.048  -1.995  -9.597  0.00  0.00    +0.001 A 
ATOM     19  C   LIG    1       18.283  -1.262  -8.689  0.00  0.00    +0.000 A 
ATOM     20  C   LIG    1       18.652  -1.214  -7.345  0.00  0.00    +0.001 A 
ATOM     21  C   LIG    1       19.787  -1.898  -6.909  0.00  0.00    +0.008 A 
ENDBRANCH  15  16
ENDBRANCH  13  14
ENDBRANCH  12  13
ENDBRANCH   2  12
BRANCH  22  23
ATOM     23  C   LIG    1       26.895  -7.075  -3.701  0.00  0.00    +0.197 C 
BRANCH  23  24
ATOM     24  O   LIG    1       27.632  -5.988  -4.231  0.00  0.00    -0.346 OA
BRANCH  24  25
ATOM     25  C   LIG    1       27.445  -4.801  -3.468  0.00  0.00    +0.281 C 
ATOM     26  C   LIG    1       28.146  -4.938  -2.107  0.00  0.00    +0.201 C 
ATOM     27  C   LIG    1       29.669  -4.822  -2.229  0.00  0.00    +0.178 C 
ATOM     28  C   LIG    1       30.038  -3.588  -3.054  0.00  0.00    +0.171 C 
ATOM     29  C   LIG    1       29.295  -3.589  -4.384  0.00  0.00    +0.197 C 
ATOM     36  O   LIG    1       27.886  -3.634  -4.172  0.00  0.00    -0.346 OA
BRANCH  28  30
ATOM     30  O   LIG    1       31.442  -3.556  -3.271  0.00  0.00    -0.387 OA
ATOM     31  H   LIG    1       31.788  -2.758  -2.835  0.00  0.00    +0.210 HD
ENDBRANCH  28  30
BRANCH  27  32
ATOM     32  O   LIG    1       30.187  -5.988  -2.866  0.00  0.00    -0.386 OA
ATOM     33  H   LIG    1       30.961  -6.282  -2.355  0.00  0.00    +0.210 HD
ENDBRANCH  27  32
BRANCH  26  34
ATOM     34  O   LIG    1       27.660  -3.905  -1.254  0.00  0.00    -0.384 OA
ATOM     35  H   LIG    1       27.007  -3.380  -1.747  0.00  0.00    +0.210 HD
ENDBRANCH  26  34
ENDBRANCH  24  25
ENDBRANCH  23  24
ENDBRANCH  22  23
TORSDOF 13
ENDMDL
MODEL 8
REMARK VINA RESULT:      -8.2      1.197      2.053
REMARK  Name = 9823887
REMARK                            x       y       z     vdW  Elec       q    Type
REMARK                         _______ _______ _______ _____ _____    ______ ____
ROOT
ATOM      1  O   LIG    1       32.887   7.003  -5.516  0.00  0.00    -0.341 OA
ATOM      2  C   LIG    1       34.281   7.123  -5.790  0.00  0.00    +0.282 C 
ATOM      3  C   LIG    1       34.794   5.877  -6.512  0.00  0.00    +0.201 C 
ATOM      4  C   LIG    1       33.968   5.578  -7.763  0.00  0.00    +0.179 C 
ATOM      5  C   LIG    1       32.471   5.616  -7.460  0.00  0.00    +0.177 C 
ATOM     22  C   LIG    1       32.101   6.895  -6.704  0.00  0.00    +0.178 C 
ENDROOT
BRANCH   5   6
ATOM      6  O   LIG    1       31.740   5.563  -8.683  0.00  0.00    -0.386 OA
ATOM      7  H   LIG    1       30.809   5.764  -8.484  0.00  0.00    +0.210 HD
ENDBRANCH   5   6
BRANCH   4   8
ATOM      8  O   LIG    1       34.288   4.272  -8.244  0.00  0.00    -0.386 OA
ATOM      9  H   LIG    1       34.623   3.758  -7.490  0.00  0.00    +0.210 HD
ENDBRANCH   4   8
BRANCH   3  10
ATOM     10  O   LIG    1       36.153   6.103  -6.884  0.00  0.00    -0.384 OA
ATOM     11  H   LIG    1       36.276   5.775  -7.791  0.00  0.00    +0.210 HD
ENDBRANCH   3  10
BRANCH   2  12
ATOM     12  O   LIG    1       35.004   7.253  -4.568  0.00  0.00    -0.345 OA
BRANCH  12  13
ATOM     13  C   LIG    1       35.660   8.508  -4.486  0.00  0.00    +0.190 C 
BRANCH  13  14
ATOM     14  C   LIG    1       37.071   8.286  -4.045  0.00  0.00    +0.001 C 
ATOM     15  C   LIG    1       37.599   7.068  -3.851  0.00  0.00    +0.006 C 
BRANCH  15  16
ATOM     16  C   LIG    1       38.986   6.800  -3.431  0.00  0.00    -0.025 A 
ATOM     17  C   LIG    1       39.812   7.862  -3.098  0.00  0.00    +0.008 A 
ATOM     18  C   LIG    1       41.124   7.608  -2.701  0.00  0.00    +0.001 A 
ATOM     19  C   LIG    1       41.594   6.296  -2.643  0.00  0.00    +0.000 A 
ATOM     20  C   LIG    1       40.752   5.238  -2.981  0.00  0.00    +0.001 A 
ATOM     21  C   LIG    1       39.439   5.492  -3.378  0.00  0.00    +0.008 A 
ENDBRANCH  15  16
ENDBRANCH  13  14
ENDBRANCH  12  13
ENDBRANCH   2  12
BRANCH  22  23
ATOM     23  C   LIG    1       30.633   6.902  -6.288  0.00  0.00    +0.197 C 
BRANCH  23  24
ATOM     24  O   LIG    1       30.487   7.755  -5.168  0.00  0.00    -0.346 OA
BRANCH  24  25
ATOM     25  C   LIG    1       29.241   8.444  -5.188  0.00  0.00    +0.281 C 
ATOM     26  C   LIG    1       28.411   8.059  -3.953  0.00  0.00    +0.201 C 
ATOM     27  C   LIG    1       28.944   8.713  -2.674  0.00  0.00    +0.178 C 
ATOM     28  C   LIG    1       29.160  10.211  -2.899  0.00  0.00    +0.171 C 
ATOM     29  C   LIG    1       30.016  10.449  -4.137  0.00  0.00    +0.197 C 
ATOM     36  O   LIG    1       29.412   9.862  -5.287  0.00  0.00    -0.346 OA
BRANCH  28  30
ATOM     30  O   LIG    1       29.772  10.787  -1.754  0.00  0.00    -0.387 OA
ATOM     31  H   LIG    1       29.099  11.320  -1.297  0.00  0.00    +0.210 HD
ENDBRANCH  28  30
BRANCH  27  32
ATOM     32  O   LIG    1       30.182   8.108  -2.308  0.00  0.00    -0.386 OA
ATOM     33  H   LIG    1       30.096   7.796  -1.391  0.00  0.00    +0.210 HD
ENDBRANCH  27  32
BRANCH  26  34
ATOM     34  O   LIG    1       27.068   8.482  -4.176  0.00  0.00    -0.384 OA
ATOM     35  H   LIG    1       26.858   8.358  -5.116  0.00  0.00    +0.210 HD
ENDBRANCH  26  34
ENDBRANCH  24  25
ENDBRANCH  23  24
ENDBRANCH  22  23
TORSDOF 13
ENDMDL
MODEL 9
REMARK VINA RESULT:      -8.1     15.216     18.315
REMARK  Name = 9823887
REMARK                            x       y       z     vdW  Elec       q    Type
REMARK                         _______ _______ _______ _____ _____    ______ ____
ROOT
ATOM      1  O   LIG    1       25.953  -7.465  -5.099  0.00  0.00    -0.341 OA
ATOM      2  C   LIG    1       25.091  -6.733  -5.968  0.00  0.00    +0.282 C 
ATOM      3  C   LIG    1       25.469  -6.979  -7.429  0.00  0.00    +0.201 C 
ATOM      4  C   LIG    1       25.504  -8.472  -7.751  0.00  0.00    +0.179 C 
ATOM      5  C   LIG    1       26.306  -9.246  -6.706  0.00  0.00    +0.177 C 
ATOM     22  C   LIG    1       25.853  -8.877  -5.291  0.00  0.00    +0.178 C 
ENDROOT
BRANCH   5   6
ATOM      6  O   LIG    1       26.123 -10.644  -6.910  0.00  0.00    -0.386 OA
ATOM      7  H   LIG    1       25.356 -10.764  -7.497  0.00  0.00    +0.210 HD
ENDBRANCH   5   6
BRANCH   4   8
ATOM      8  O   LIG    1       26.126  -8.670  -9.021  0.00  0.00    -0.386 OA
ATOM      9  H   LIG    1       26.708  -9.445  -8.942  0.00  0.00    +0.210 HD
ENDBRANCH   4   8
BRANCH   3  10
ATOM     10  O   LIG    1       24.498  -6.337  -8.256  0.00  0.00    -0.384 OA
ATOM     11  H   LIG    1       24.638  -6.633  -9.170  0.00  0.00    +0.210 HD
ENDBRANCH   3  10
BRANCH   2  12
ATOM     12  O   LIG    1       25.219  -5.336  -5.709  0.00  0.00    -0.345 OA
BRANCH  12  13
ATOM     13  C   LIG    1       24.233  -4.888  -4.792  0.00  0.00    +0.190 C 
BRANCH  13  14
ATOM     14  C   LIG    1       23.401  -3.838  -5.456  0.00  0.00    +0.001 C 
ATOM     15  C   LIG    1       22.323  -4.116  -6.205  0.00  0.00    +0.006 C 
BRANCH  15  16
ATOM     16  C   LIG    1       21.466  -3.116  -6.864  0.00  0.00    -0.025 A 
ATOM     17  C   LIG    1       21.261  -3.194  -8.233  0.00  0.00    +0.008 A 
ATOM     18  C   LIG    1       20.449  -2.247  -8.856  0.00  0.00    +0.001 A 
ATOM     19  C   LIG    1       19.854  -1.234  -8.105  0.00  0.00    +0.000 A 
ATOM     20  C   LIG    1       20.069  -1.168  -6.729  0.00  0.00    +0.001 A 
ATOM     21  C   LIG    1       20.881  -2.116  -6.104  0.00  0.00    +0.008 A 
ENDBRANCH  15  16
ENDBRANCH  13  14
ENDBRANCH  12  13
ENDBRANCH   2  12
BRANCH  22  23
ATOM     23  C   LIG    1       26.717  -9.549  -4.228  0.00  0.00    +0.197 C 
BRANCH  23  24
ATOM     24  O   LIG    1       27.732  -8.643  -3.835  0.00  0.00    -0.346 OA
BRANCH  24  25
ATOM     25  C   LIG    1       28.322  -9.017  -2.594  0.00  0.00    +0.281 C 
ATOM     26  C   LIG    1       29.315 -10.169  -2.813  0.00  0.00    +0.201 C 
ATOM     27  C   LIG    1       30.611  -9.693  -3.479  0.00  0.00    +0.178 C 
ATOM     28  C   LIG    1       31.157  -8.463  -2.750  0.00  0.00    +0.171 C 
ATOM     29  C   LIG    1       30.080  -7.393  -2.624  0.00  0.00    +0.197 C 
ATOM     36  O   LIG    1       28.941  -7.905  -1.937  0.00  0.00    -0.346 OA
BRANCH  28  30
ATOM     30  O   LIG    1       32.285  -7.952  -3.446  0.00  0.00    -0.387 OA
ATOM     31  H   LIG    1       32.774  -7.378  -2.831  0.00  0.00    +0.210 HD
ENDBRANCH  28  30
BRANCH  27  32
ATOM     32  O   LIG    1       30.353  -9.358  -4.841  0.00  0.00    -0.386 OA
ATOM     33  H   LIG    1       30.899  -9.942  -5.395  0.00  0.00    +0.210 HD
ENDBRANCH  27  32
BRANCH  26  34
ATOM     34  O   LIG    1       29.619 -10.737  -1.542  0.00  0.00    -0.384 OA
ATOM     35  H   LIG    1       28.857 -11.267  -1.252  0.00  0.00    +0.210 HD
ENDBRANCH  26  34
ENDBRANCH  24  25
ENDBRANCH  23  24
ENDBRANCH  22  23
TORSDOF 13
ENDMDL
