REMARK VINA RESULT:      -7.9      5.757     10.202
REMARK  11 active torsions:
REMARK  status: ('A' for Active; 'I' for Inactive)
REMARK    1  A    between atoms: O_2  and  C_16 
REMARK    2  A    between atoms: O_2  and  C_18 
REMARK    3  A    between atoms: O_3  and  C_12 
REMARK    4  A    between atoms: O_4  and  C_13 
REMARK    5  A    between atoms: O_5  and  C_14 
REMARK    6  A    between atoms: O_6  and  C_17 
REMARK    7  A    between atoms: O_8  and  C_23 
REMARK    8  A    between atoms: O_10  and  C_30 
REMARK    9  A    between atoms: O_11  and  C_32 
REMARK   10  A    between atoms: C_15  and  C_17 
REMARK   11  A    between atoms: C_25  and  C_27 
ROOT
HETATM    1  O   UNK     0     185.331 184.502 172.559  0.00  0.00    -0.348 OA
HETATM    2  C   UNK     0     187.020 184.363 174.878  0.00  0.00     0.183 C 
HETATM    3  C   UNK     0     185.715 183.575 174.766  0.00  0.00     0.180 C 
HETATM    4  C   UNK     0     187.021 185.570 173.938  0.00  0.00     0.205 C 
HETATM    5  C   UNK     0     185.382 183.281 173.301  0.00  0.00     0.179 C 
HETATM    6  C   UNK     0     186.588 185.175 172.526  0.00  0.00     0.298 C 
ENDROOT
BRANCH   5   7
HETATM    7  C   UNK     0     184.026 182.598 173.157  0.00  0.00     0.198 C 
BRANCH   7   8
HETATM    8  O   UNK     0     184.211 181.200 173.278  0.00  0.00    -0.398 OA
HETATM    9  H   UNK     0     185.111 180.993 172.970  0.00  0.00     0.209 HD
ENDBRANCH   7   8
ENDBRANCH   5   7
BRANCH   6  10
HETATM   10  O   UNK     0     186.476 186.367 171.751  0.00  0.00    -0.318 OA
BRANCH  10  11
HETATM   11  C   UNK     0     186.981 186.322 170.485  0.00  0.00     0.077 A 
HETATM   12  C   UNK     0     186.344 187.019 169.457  0.00  0.00     0.075 A 
HETATM   13  C   UNK     0     186.862 186.972 168.163  0.00  0.00     0.095 A 
HETATM   14  O   UNK     0     186.193 187.676 167.194  0.00  0.00    -0.309 OA
HETATM   15  C   UNK     0     188.012 186.229 167.899  0.00  0.00     0.081 A 
HETATM   16  C   UNK     0     186.688 187.652 165.900  0.00  0.00     0.090 A 
HETATM   17  C   UNK     0     187.780 186.970 165.521  0.00  0.00     0.094 A 
HETATM   18  C   UNK     0     188.535 186.194 166.525  0.00  0.00     0.190 A 
HETATM   19  O   UNK     0     189.537 185.561 166.223  0.00  0.00    -0.287 OA
HETATM   20  C   UNK     0     188.652 185.529 168.926  0.00  0.00     0.085 A 
HETATM   21  C   UNK     0     188.132 185.580 170.220  0.00  0.00     0.074 A 
BRANCH  16  22
HETATM   22  C   UNK     0     185.889 188.438 164.937  0.00  0.00     0.001 A 
HETATM   23  C   UNK     0     184.576 188.063 164.645  0.00  0.00     0.053 A 
HETATM   24  C   UNK     0     183.821 188.807 163.737  0.00  0.00     0.099 A 
HETATM   25  C   UNK     0     184.378 189.925 163.118  0.00  0.00     0.098 A 
HETATM   26  C   UNK     0     185.690 190.302 163.409  0.00  0.00     0.040 A 
HETATM   27  C   UNK     0     186.444 189.560 164.316  0.00  0.00     0.017 A 
BRANCH  24  28
HETATM   28  O   UNK     0     182.542 188.428 163.460  0.00  0.00    -0.358 OA
HETATM   29  H   UNK     0     181.949 188.867 164.094  0.00  0.00     0.217 HD
ENDBRANCH  24  28
BRANCH  25  30
HETATM   30  O   UNK     0     183.651 190.660 162.231  0.00  0.00    -0.358 OA
HETATM   31  H   UNK     0     183.025 191.220 162.721  0.00  0.00     0.217 HD
ENDBRANCH  25  30
ENDBRANCH  16  22
BRANCH  20  32
HETATM   32  O   UNK     0     189.777 184.791 168.719  0.00  0.00    -0.360 OA
HETATM   33  H   UNK     0     190.231 184.618 169.557  0.00  0.00     0.217 HD
ENDBRANCH  20  32
ENDBRANCH  10  11
ENDBRANCH   6  10
BRANCH   3  34
HETATM   34  O   UNK     0     185.844 182.346 175.475  0.00  0.00    -0.390 OA
HETATM   35  H   UNK     0     186.714 181.966 175.262  0.00  0.00     0.210 HD
ENDBRANCH   3  34
BRANCH   4  36
HETATM   36  O   UNK     0     188.339 186.113 173.867  0.00  0.00    -0.388 OA
HETATM   37  H   UNK     0     188.931 185.535 174.379  0.00  0.00     0.210 HD
ENDBRANCH   4  36
BRANCH   2  38
HETATM   38  O   UNK     0     187.151 184.813 176.228  0.00  0.00    -0.390 OA
HETATM   39  H   UNK     0     187.959 184.411 176.591  0.00  0.00     0.210 HD
ENDBRANCH   2  38
TORSDOF 11
