MODEL 1
REMARK VINA RESULT:      -6.2      0.000      0.000
REMARK  Name = 4485
REMARK  10 active torsions:
REMARK  status: ('A' for Active; 'I' for Inactive)
REMARK    1  A    between atoms: O_1  and  C_17
REMARK    2  A    between atoms: O_1  and  C_24
REMARK    3  A    between atoms: O_2  and  C_18
REMARK    4  A    between atoms: O_2  and  C_25
REMARK    5  A    between atoms: N_8  and  C_15
REMARK    6  A    between atoms: C_9  and  C_12
REMARK    7  A    between atoms: C_10  and  C_17
REMARK    8  A    between atoms: C_11  and  C_18
REMARK    9  A    between atoms: C_13  and  C_19
REMARK   10  A    between atoms: C_14  and  C_20
REMARK                            x       y       z     vdW  Elec       q    Type
REMARK                         _______ _______ _______ _____ _____    ______ ____
ROOT
ATOM      1  C   UNL     1     175.947 176.271 169.242  0.00  0.00    +0.065 C 
ATOM      2  C   UNL     1     175.676 177.385 168.525  0.00  0.00    +0.016 C 
ATOM      3  C   UNL     1     174.301 177.883 168.169  0.00  0.00    +0.061 C 
ATOM      4  N   UNL     1     176.720 178.170 168.061  0.00  0.00    -0.321 N 
ATOM      5  H   UNL     1     176.481 179.002 167.533  0.00  0.00    +0.152 HD
ATOM      6  C   UNL     1     178.064 177.855 168.184  0.00  0.00    +0.016 C 
ATOM      7  C   UNL     1     179.005 178.810 167.499  0.00  0.00    +0.061 C 
ATOM      8  C   UNL     1     178.430 176.754 168.877  0.00  0.00    +0.065 C 
ATOM      9  C   UNL     1     177.390 175.880 169.583  0.00  0.00    +0.102 C 
ENDROOT
BRANCH   9  10
ATOM     10  C   UNL     1     177.598 175.935 171.070  0.00  0.00    +0.042 A 
ATOM     11  C   UNL     1     177.399 177.150 171.721  0.00  0.00    +0.011 A 
ATOM     12  C   UNL     1     177.584 177.234 173.101  0.00  0.00    +0.001 A 
ATOM     13  C   UNL     1     177.968 176.104 173.823  0.00  0.00    +0.007 A 
ATOM     14  C   UNL     1     178.165 174.889 173.165  0.00  0.00    +0.084 A 
ATOM     15  C   UNL     1     177.980 174.805 171.785  0.00  0.00    +0.277 A 
BRANCH  15  16
ATOM     16  N   UNL     1     178.186 173.557 171.136  0.00  0.00    +0.080 N 
ATOM     17  O   UNL     1     177.207 172.791 170.972  0.00  0.00    +0.041 OA
ATOM     18  O   UNL     1     179.341 173.259 170.747  0.00  0.00    -0.576 OA
ENDBRANCH  15  16
ENDBRANCH   9  10
BRANCH   1  19
ATOM     19  C   UNL     1     174.892 175.343 169.682  0.00  0.00    +0.337 C 
ATOM     20  O   UNL     1     174.135 175.579 170.605  0.00  0.00    -0.245 OA
BRANCH  19  21
ATOM     21  O   UNL     1     174.935 174.242 168.894  0.00  0.00    -0.465 OA
ATOM     22  C   UNL     1     173.658 173.707 168.527  0.00  0.00    +0.280 C 
ENDBRANCH  19  21
ENDBRANCH   1  19
BRANCH   8  23
ATOM     23  C   UNL     1     179.830 176.306 168.955  0.00  0.00    +0.337 C 
ATOM     24  O   UNL     1     180.291 175.426 168.252  0.00  0.00    -0.245 OA
BRANCH  23  25
ATOM     25  O   UNL     1     180.459 177.032 169.910  0.00  0.00    -0.465 OA
ATOM     26  C   UNL     1     181.300 176.279 170.790  0.00  0.00    +0.280 C 
ENDBRANCH  23  25
ENDBRANCH   8  23
TORSDOF 6
ENDMDL
MODEL 2
REMARK VINA RESULT:      -6.2      2.408      4.319
REMARK  Name = 4485
REMARK  10 active torsions:
REMARK  status: ('A' for Active; 'I' for Inactive)
REMARK    1  A    between atoms: O_1  and  C_17
REMARK    2  A    between atoms: O_1  and  C_24
REMARK    3  A    between atoms: O_2  and  C_18
REMARK    4  A    between atoms: O_2  and  C_25
REMARK    5  A    between atoms: N_8  and  C_15
REMARK    6  A    between atoms: C_9  and  C_12
REMARK    7  A    between atoms: C_10  and  C_17
REMARK    8  A    between atoms: C_11  and  C_18
REMARK    9  A    between atoms: C_13  and  C_19
REMARK   10  A    between atoms: C_14  and  C_20
REMARK                            x       y       z     vdW  Elec       q    Type
REMARK                         _______ _______ _______ _____ _____    ______ ____
ROOT
ATOM      1  C   UNL     1     178.162 175.122 169.886  0.00  0.00    +0.065 C 
ATOM      2  C   UNL     1     176.880 174.782 169.621  0.00  0.00    +0.016 C 
ATOM      3  C   UNL     1     176.426 173.477 169.023  0.00  0.00    +0.061 C 
ATOM      4  N   UNL     1     175.861 175.676 169.913  0.00  0.00    -0.321 N 
ATOM      5  H   UNL     1     174.912 175.386 169.708  0.00  0.00    +0.152 HD
ATOM      6  C   UNL     1     176.050 176.968 170.375  0.00  0.00    +0.016 C 
ATOM      7  C   UNL     1     174.792 177.785 170.509  0.00  0.00    +0.061 C 
ATOM      8  C   UNL     1     177.298 177.400 170.659  0.00  0.00    +0.065 C 
ATOM      9  C   UNL     1     178.506 176.466 170.539  0.00  0.00    +0.102 C 
ENDROOT
BRANCH   9  10
ATOM     10  C   UNL     1     179.114 176.237 171.894  0.00  0.00    +0.042 A 
ATOM     11  C   UNL     1     178.320 175.674 172.888  0.00  0.00    +0.011 A 
ATOM     12  C   UNL     1     178.855 175.448 174.157  0.00  0.00    +0.001 A 
ATOM     13  C   UNL     1     180.181 175.788 174.424  0.00  0.00    +0.007 A 
ATOM     14  C   UNL     1     180.972 176.353 173.423  0.00  0.00    +0.084 A 
ATOM     15  C   UNL     1     180.437 176.578 172.155  0.00  0.00    +0.277 A 
BRANCH  15  16
ATOM     16  N   UNL     1     181.262 177.153 171.150  0.00  0.00    +0.080 N 
ATOM     17  O   UNL     1     181.987 176.400 170.458  0.00  0.00    +0.041 OA
ATOM     18  O   UNL     1     181.241 178.397 170.986  0.00  0.00    -0.576 OA
ENDBRANCH  15  16
ENDBRANCH   9  10
BRANCH   1  19
ATOM     19  C   UNL     1     179.296 174.260 169.515  0.00  0.00    +0.337 C 
ATOM     20  O   UNL     1     179.995 174.458 168.538  0.00  0.00    -0.245 OA
BRANCH  19  21
ATOM     21  O   UNL     1     179.393 173.265 170.428  0.00  0.00    -0.465 OA
ATOM     22  C   UNL     1     180.714 173.025 170.926  0.00  0.00    +0.280 C 
ENDBRANCH  19  21
ENDBRANCH   1  19
BRANCH   8  23
ATOM     23  C   UNL     1     177.578 178.791 171.051  0.00  0.00    +0.337 C 
ATOM     24  O   UNL     1     177.540 179.183 172.202  0.00  0.00    -0.245 OA
BRANCH  23  25
ATOM     25  O   UNL     1     177.870 179.500 169.933  0.00  0.00    -0.465 OA
ATOM     26  C   UNL     1     177.106 180.697 169.757  0.00  0.00    +0.280 C 
ENDBRANCH  23  25
ENDBRANCH   8  23
TORSDOF 6
ENDMDL
MODEL 3
REMARK VINA RESULT:      -6.1      9.766     12.317
REMARK  Name = 4485
REMARK  10 active torsions:
REMARK  status: ('A' for Active; 'I' for Inactive)
REMARK    1  A    between atoms: O_1  and  C_17
REMARK    2  A    between atoms: O_1  and  C_24
REMARK    3  A    between atoms: O_2  and  C_18
REMARK    4  A    between atoms: O_2  and  C_25
REMARK    5  A    between atoms: N_8  and  C_15
REMARK    6  A    between atoms: C_9  and  C_12
REMARK    7  A    between atoms: C_10  and  C_17
REMARK    8  A    between atoms: C_11  and  C_18
REMARK    9  A    between atoms: C_13  and  C_19
REMARK   10  A    between atoms: C_14  and  C_20
REMARK                            x       y       z     vdW  Elec       q    Type
REMARK                         _______ _______ _______ _____ _____    ______ ____
ROOT
ATOM      1  C   UNL     1     182.802 183.970 163.324  0.00  0.00    +0.065 C 
ATOM      2  C   UNL     1     183.679 184.482 162.430  0.00  0.00    +0.016 C 
ATOM      3  C   UNL     1     184.663 183.686 161.616  0.00  0.00    +0.061 C 
ATOM      4  N   UNL     1     183.707 185.850 162.207  0.00  0.00    -0.321 N 
ATOM      5  H   UNL     1     184.372 186.199 161.525  0.00  0.00    +0.152 HD
ATOM      6  C   UNL     1     182.964 186.784 162.911  0.00  0.00    +0.016 C 
ATOM      7  C   UNL     1     183.253 188.219 162.562  0.00  0.00    +0.061 C 
ATOM      8  C   UNL     1     182.068 186.366 163.832  0.00  0.00    +0.065 C 
ATOM      9  C   UNL     1     181.812 184.874 164.069  0.00  0.00    +0.102 C 
ENDROOT
BRANCH   9  10
ATOM     10  C   UNL     1     180.405 184.526 163.676  0.00  0.00    +0.042 A 
ATOM     11  C   UNL     1     180.032 184.683 162.344  0.00  0.00    +0.011 A 
ATOM     12  C   UNL     1     178.733 184.367 161.947  0.00  0.00    +0.001 A 
ATOM     13  C   UNL     1     177.812 183.898 162.884  0.00  0.00    +0.007 A 
ATOM     14  C   UNL     1     178.191 183.743 164.218  0.00  0.00    +0.084 A 
ATOM     15  C   UNL     1     179.491 184.058 164.614  0.00  0.00    +0.277 A 
BRANCH  15  16
ATOM     16  N   UNL     1     179.856 183.891 165.978  0.00  0.00    +0.080 N 
ATOM     17  O   UNL     1     179.728 184.862 166.763  0.00  0.00    +0.041 OA
ATOM     18  O   UNL     1     180.295 182.779 166.358  0.00  0.00    -0.576 OA
ENDBRANCH  15  16
ENDBRANCH   9  10
BRANCH   1  19
ATOM     19  C   UNL     1     182.785 182.542 163.678  0.00  0.00    +0.337 C 
ATOM     20  O   UNL     1     182.387 181.671 162.927  0.00  0.00    -0.245 OA
BRANCH  19  21
ATOM     21  O   UNL     1     183.274 182.407 164.934  0.00  0.00    -0.465 OA
ATOM     22  C   UNL     1     184.649 182.013 165.011  0.00  0.00    +0.280 C 
ENDBRANCH  19  21
ENDBRANCH   1  19
BRANCH   8  23
ATOM     23  C   UNL     1     181.324 187.305 164.687  0.00  0.00    +0.337 C 
ATOM     24  O   UNL     1     181.687 187.623 165.804  0.00  0.00    -0.245 OA
BRANCH  23  25
ATOM     25  O   UNL     1     180.224 187.719 164.012  0.00  0.00    -0.465 OA
ATOM     26  C   UNL     1     179.029 187.805 164.796  0.00  0.00    +0.280 C 
ENDBRANCH  23  25
ENDBRANCH   8  23
TORSDOF 6
ENDMDL
MODEL 4
REMARK VINA RESULT:      -6.1      1.888      5.424
REMARK  Name = 4485
REMARK  10 active torsions:
REMARK  status: ('A' for Active; 'I' for Inactive)
REMARK    1  A    between atoms: O_1  and  C_17
REMARK    2  A    between atoms: O_1  and  C_24
REMARK    3  A    between atoms: O_2  and  C_18
REMARK    4  A    between atoms: O_2  and  C_25
REMARK    5  A    between atoms: N_8  and  C_15
REMARK    6  A    between atoms: C_9  and  C_12
REMARK    7  A    between atoms: C_10  and  C_17
REMARK    8  A    between atoms: C_11  and  C_18
REMARK    9  A    between atoms: C_13  and  C_19
REMARK   10  A    between atoms: C_14  and  C_20
REMARK                            x       y       z     vdW  Elec       q    Type
REMARK                         _______ _______ _______ _____ _____    ______ ____
ROOT
ATOM      1  C   UNL     1     178.331 175.463 169.276  0.00  0.00    +0.065 C 
ATOM      2  C   UNL     1     178.603 174.138 169.244  0.00  0.00    +0.016 C 
ATOM      3  C   UNL     1     179.960 173.529 169.016  0.00  0.00    +0.061 C 
ATOM      4  N   UNL     1     177.578 173.225 169.438  0.00  0.00    -0.321 N 
ATOM      5  H   UNL     1     177.818 172.240 169.414  0.00  0.00    +0.152 HD
ATOM      6  C   UNL     1     176.238 173.553 169.567  0.00  0.00    +0.016 C 
ATOM      7  C   UNL     1     175.302 172.377 169.654  0.00  0.00    +0.061 C 
ATOM      8  C   UNL     1     175.870 174.852 169.601  0.00  0.00    +0.065 C 
ATOM      9  C   UNL     1     176.913 175.973 169.561  0.00  0.00    +0.102 C 
ENDROOT
BRANCH   9  10
ATOM     10  C   UNL     1     176.893 176.738 170.853  0.00  0.00    +0.042 A 
ATOM     11  C   UNL     1     177.198 176.058 172.029  0.00  0.00    +0.011 A 
ATOM     12  C   UNL     1     177.189 176.741 173.246  0.00  0.00    +0.001 A 
ATOM     13  C   UNL     1     176.874 178.099 173.281  0.00  0.00    +0.007 A 
ATOM     14  C   UNL     1     176.569 178.776 172.099  0.00  0.00    +0.084 A 
ATOM     15  C   UNL     1     176.579 178.093 170.882  0.00  0.00    +0.277 A 
BRANCH  15  16
ATOM     16  N   UNL     1     176.267 178.803 169.690  0.00  0.00    +0.080 N 
ATOM     17  O   UNL     1     177.197 179.346 169.047  0.00  0.00    +0.041 OA
ATOM     18  O   UNL     1     175.071 178.866 169.318  0.00  0.00    -0.576 OA
ENDBRANCH  15  16
ENDBRANCH   9  10
BRANCH   1  19
ATOM     19  C   UNL     1     179.352 176.482 168.985  0.00  0.00    +0.337 C 
ATOM     20  O   UNL     1     179.459 177.032 167.904  0.00  0.00    -0.245 OA
BRANCH  19  21
ATOM     21  O   UNL     1     180.099 176.668 170.099  0.00  0.00    -0.465 OA
ATOM     22  C   UNL     1     180.324 178.037 170.458  0.00  0.00    +0.280 C 
ENDBRANCH  19  21
ENDBRANCH   1  19
BRANCH   8  23
ATOM     23  C   UNL     1     174.457 175.267 169.629  0.00  0.00    +0.337 C 
ATOM     24  O   UNL     1     173.749 175.163 170.613  0.00  0.00    -0.245 OA
BRANCH  23  25
ATOM     25  O   UNL     1     174.132 175.761 168.410  0.00  0.00    -0.465 OA
ATOM     26  C   UNL     1     172.735 175.737 168.099  0.00  0.00    +0.280 C 
ENDBRANCH  23  25
ENDBRANCH   8  23
TORSDOF 6
ENDMDL
MODEL 5
REMARK VINA RESULT:      -6.0      2.165      4.405
REMARK  Name = 4485
REMARK  10 active torsions:
REMARK  status: ('A' for Active; 'I' for Inactive)
REMARK    1  A    between atoms: O_1  and  C_17
REMARK    2  A    between atoms: O_1  and  C_24
REMARK    3  A    between atoms: O_2  and  C_18
REMARK    4  A    between atoms: O_2  and  C_25
REMARK    5  A    between atoms: N_8  and  C_15
REMARK    6  A    between atoms: C_9  and  C_12
REMARK    7  A    between atoms: C_10  and  C_17
REMARK    8  A    between atoms: C_11  and  C_18
REMARK    9  A    between atoms: C_13  and  C_19
REMARK   10  A    between atoms: C_14  and  C_20
REMARK                            x       y       z     vdW  Elec       q    Type
REMARK                         _______ _______ _______ _____ _____    ______ ____
ROOT
ATOM      1  C   UNL     1     176.694 174.213 169.717  0.00  0.00    +0.065 C 
ATOM      2  C   UNL     1     175.526 173.530 169.713  0.00  0.00    +0.016 C 
ATOM      3  C   UNL     1     175.372 172.060 170.000  0.00  0.00    +0.061 C 
ATOM      4  N   UNL     1     174.344 174.198 169.432  0.00  0.00    -0.321 N 
ATOM      5  H   UNL     1     173.487 173.656 169.444  0.00  0.00    +0.152 HD
ATOM      6  C   UNL     1     174.257 175.525 169.044  0.00  0.00    +0.016 C 
ATOM      7  C   UNL     1     172.872 175.991 168.683  0.00  0.00    +0.061 C 
ATOM      8  C   UNL     1     175.374 176.285 169.010  0.00  0.00    +0.065 C 
ATOM      9  C   UNL     1     176.728 175.723 169.452  0.00  0.00    +0.102 C 
ENDROOT
BRANCH   9  10
ATOM     10  C   UNL     1     177.209 176.448 170.677  0.00  0.00    +0.042 A 
ATOM     11  C   UNL     1     176.442 176.367 171.836  0.00  0.00    +0.011 A 
ATOM     12  C   UNL     1     176.861 177.028 172.991  0.00  0.00    +0.001 A 
ATOM     13  C   UNL     1     178.044 177.768 172.980  0.00  0.00    +0.007 A 
ATOM     14  C   UNL     1     178.809 177.845 171.815  0.00  0.00    +0.084 A 
ATOM     15  C   UNL     1     178.389 177.183 170.661  0.00  0.00    +0.277 A 
BRANCH  15  16
ATOM     16  N   UNL     1     179.184 177.275 169.486  0.00  0.00    +0.080 N 
ATOM     17  O   UNL     1     180.099 176.435 169.307  0.00  0.00    +0.041 OA
ATOM     18  O   UNL     1     178.949 178.193 168.664  0.00  0.00    -0.576 OA
ENDBRANCH  15  16
ENDBRANCH   9  10
BRANCH   1  19
ATOM     19  C   UNL     1     177.992 173.549 169.913  0.00  0.00    +0.337 C 
ATOM     20  O   UNL     1     178.743 173.263 168.999  0.00  0.00    -0.245 OA
BRANCH  19  21
ATOM     21  O   UNL     1     178.167 173.336 171.240  0.00  0.00    -0.465 OA
ATOM     22  C   UNL     1     179.450 173.715 171.752  0.00  0.00    +0.280 C 
ENDBRANCH  19  21
ENDBRANCH   1  19
BRANCH   8  23
ATOM     23  C   UNL     1     175.367 177.668 168.507  0.00  0.00    +0.337 C 
ATOM     24  O   UNL     1     175.681 177.969 167.370  0.00  0.00    -0.245 OA
BRANCH  23  25
ATOM     25  O   UNL     1     174.960 178.486 169.508  0.00  0.00    -0.465 OA
ATOM     26  C   UNL     1     175.747 179.669 169.683  0.00  0.00    +0.280 C 
ENDBRANCH  23  25
ENDBRANCH   8  23
TORSDOF 6
ENDMDL
MODEL 6
REMARK VINA RESULT:      -6.0      2.400      4.456
REMARK  Name = 4485
REMARK  10 active torsions:
REMARK  status: ('A' for Active; 'I' for Inactive)
REMARK    1  A    between atoms: O_1  and  C_17
REMARK    2  A    between atoms: O_1  and  C_24
REMARK    3  A    between atoms: O_2  and  C_18
REMARK    4  A    between atoms: O_2  and  C_25
REMARK    5  A    between atoms: N_8  and  C_15
REMARK    6  A    between atoms: C_9  and  C_12
REMARK    7  A    between atoms: C_10  and  C_17
REMARK    8  A    between atoms: C_11  and  C_18
REMARK    9  A    between atoms: C_13  and  C_19
REMARK   10  A    between atoms: C_14  and  C_20
REMARK                            x       y       z     vdW  Elec       q    Type
REMARK                         _______ _______ _______ _____ _____    ______ ____
ROOT
ATOM      1  C   UNL     1     176.812 176.548 170.076  0.00  0.00    +0.065 C 
ATOM      2  C   UNL     1     176.362 175.378 169.568  0.00  0.00    +0.016 C 
ATOM      3  C   UNL     1     174.925 175.056 169.254  0.00  0.00    +0.061 C 
ATOM      4  N   UNL     1     177.263 174.362 169.290  0.00  0.00    -0.321 N 
ATOM      5  H   UNL     1     176.892 173.501 168.903  0.00  0.00    +0.152 HD
ATOM      6  C   UNL     1     178.615 174.399 169.589  0.00  0.00    +0.016 C 
ATOM      7  C   UNL     1     179.365 173.127 169.294  0.00  0.00    +0.061 C 
ATOM      8  C   UNL     1     179.153 175.523 170.109  0.00  0.00    +0.065 C 
ATOM      9  C   UNL     1     178.308 176.783 170.318  0.00  0.00    +0.102 C 
ENDROOT
BRANCH   9  10
ATOM     10  C   UNL     1     178.803 177.887 169.427  0.00  0.00    +0.042 A 
ATOM     11  C   UNL     1     178.786 177.684 168.050  0.00  0.00    +0.011 A 
ATOM     12  C   UNL     1     179.239 178.689 167.196  0.00  0.00    +0.001 A 
ATOM     13  C   UNL     1     179.708 179.893 167.723  0.00  0.00    +0.007 A 
ATOM     14  C   UNL     1     179.722 180.091 169.104  0.00  0.00    +0.084 A 
ATOM     15  C   UNL     1     179.269 179.085 169.958  0.00  0.00    +0.277 A 
BRANCH  15  16
ATOM     16  N   UNL     1     179.292 179.310 171.362  0.00  0.00    +0.080 N 
ATOM     17  O   UNL     1     180.314 178.980 172.011  0.00  0.00    +0.041 OA
ATOM     18  O   UNL     1     178.291 179.829 171.910  0.00  0.00    -0.576 OA
ENDBRANCH  15  16
ENDBRANCH   9  10
BRANCH   1  19
ATOM     19  C   UNL     1     175.901 177.631 170.481  0.00  0.00    +0.337 C 
ATOM     20  O   UNL     1     175.557 177.821 171.633  0.00  0.00    -0.245 OA
BRANCH  19  21
ATOM     21  O   UNL     1     175.547 178.328 169.375  0.00  0.00    -0.465 OA
ATOM     22  C   UNL     1     175.680 179.750 169.485  0.00  0.00    +0.280 C 
ENDBRANCH  19  21
ENDBRANCH   1  19
BRANCH   8  23
ATOM     23  C   UNL     1     180.557 175.593 170.546  0.00  0.00    +0.337 C 
ATOM     24  O   UNL     1     181.482 175.831 169.792  0.00  0.00    -0.245 OA
BRANCH  23  25
ATOM     25  O   UNL     1     180.602 175.354 171.879  0.00  0.00    -0.465 OA
ATOM     26  C   UNL     1     181.750 175.883 172.552  0.00  0.00    +0.280 C 
ENDBRANCH  23  25
ENDBRANCH   8  23
TORSDOF 6
ENDMDL
MODEL 7
REMARK VINA RESULT:      -6.0      2.769      5.332
REMARK  Name = 4485
REMARK  10 active torsions:
REMARK  status: ('A' for Active; 'I' for Inactive)
REMARK    1  A    between atoms: O_1  and  C_17
REMARK    2  A    between atoms: O_1  and  C_24
REMARK    3  A    between atoms: O_2  and  C_18
REMARK    4  A    between atoms: O_2  and  C_25
REMARK    5  A    between atoms: N_8  and  C_15
REMARK    6  A    between atoms: C_9  and  C_12
REMARK    7  A    between atoms: C_10  and  C_17
REMARK    8  A    between atoms: C_11  and  C_18
REMARK    9  A    between atoms: C_13  and  C_19
REMARK   10  A    between atoms: C_14  and  C_20
REMARK                            x       y       z     vdW  Elec       q    Type
REMARK                         _______ _______ _______ _____ _____    ______ ____
ROOT
ATOM      1  C   UNL     1     180.876 175.115 170.884  0.00  0.00    +0.065 C 
ATOM      2  C   UNL     1     182.139 174.723 170.598  0.00  0.00    +0.016 C 
ATOM      3  C   UNL     1     182.564 173.319 170.264  0.00  0.00    +0.061 C 
ATOM      4  N   UNL     1     183.161 175.660 170.595  0.00  0.00    -0.321 N 
ATOM      5  H   UNL     1     184.094 175.333 170.370  0.00  0.00    +0.152 HD
ATOM      6  C   UNL     1     183.021 176.987 170.967  0.00  0.00    +0.016 C 
ATOM      7  C   UNL     1     184.302 177.778 170.990  0.00  0.00    +0.061 C 
ATOM      8  C   UNL     1     181.798 177.467 171.279  0.00  0.00    +0.065 C 
ATOM      9  C   UNL     1     180.549 176.587 171.169  0.00  0.00    +0.102 C 
ENDROOT
BRANCH   9  10
ATOM     10  C   UNL     1     179.635 177.123 170.104  0.00  0.00    +0.042 A 
ATOM     11  C   UNL     1     180.096 177.156 168.791  0.00  0.00    +0.011 A 
ATOM     12  C   UNL     1     179.271 177.648 167.780  0.00  0.00    +0.001 A 
ATOM     13  C   UNL     1     177.990 178.107 168.087  0.00  0.00    +0.007 A 
ATOM     14  C   UNL     1     177.533 178.073 169.405  0.00  0.00    +0.084 A 
ATOM     15  C   UNL     1     178.359 177.579 170.416  0.00  0.00    +0.277 A 
BRANCH  15  16
ATOM     16  N   UNL     1     177.872 177.553 171.752  0.00  0.00    +0.080 N 
ATOM     17  O   UNL     1     178.053 178.556 172.482  0.00  0.00    +0.041 OA
ATOM     18  O   UNL     1     177.277 176.527 172.161  0.00  0.00    -0.576 OA
ENDBRANCH  15  16
ENDBRANCH   9  10
BRANCH   1  19
ATOM     19  C   UNL     1     179.763 174.159 170.998  0.00  0.00    +0.337 C 
ATOM     20  O   UNL     1     179.322 173.769 172.062  0.00  0.00    -0.245 OA
BRANCH  19  21
ATOM     21  O   UNL     1     179.357 173.826 169.749  0.00  0.00    -0.465 OA
ATOM     22  C   UNL     1     177.948 173.931 169.520  0.00  0.00    +0.280 C 
ENDBRANCH  19  21
ENDBRANCH   1  19
BRANCH   8  23
ATOM     23  C   UNL     1     181.596 178.835 171.783  0.00  0.00    +0.337 C 
ATOM     24  O   UNL     1     181.440 179.098 172.961  0.00  0.00    -0.245 OA
BRANCH  23  25
ATOM     25  O   UNL     1     181.622 179.688 170.729  0.00  0.00    -0.465 OA
ATOM     26  C   UNL     1     180.534 180.615 170.672  0.00  0.00    +0.280 C 
ENDBRANCH  23  25
ENDBRANCH   8  23
TORSDOF 6
ENDMDL
MODEL 8
REMARK VINA RESULT:      -6.0      2.970      5.637
REMARK  Name = 4485
REMARK  10 active torsions:
REMARK  status: ('A' for Active; 'I' for Inactive)
REMARK    1  A    between atoms: O_1  and  C_17
REMARK    2  A    between atoms: O_1  and  C_24
REMARK    3  A    between atoms: O_2  and  C_18
REMARK    4  A    between atoms: O_2  and  C_25
REMARK    5  A    between atoms: N_8  and  C_15
REMARK    6  A    between atoms: C_9  and  C_12
REMARK    7  A    between atoms: C_10  and  C_17
REMARK    8  A    between atoms: C_11  and  C_18
REMARK    9  A    between atoms: C_13  and  C_19
REMARK   10  A    between atoms: C_14  and  C_20
REMARK                            x       y       z     vdW  Elec       q    Type
REMARK                         _______ _______ _______ _____ _____    ______ ____
ROOT
ATOM      1  C   UNL     1     181.549 177.489 171.094  0.00  0.00    +0.065 C 
ATOM      2  C   UNL     1     182.844 177.105 171.164  0.00  0.00    +0.016 C 
ATOM      3  C   UNL     1     184.007 178.002 171.493  0.00  0.00    +0.061 C 
ATOM      4  N   UNL     1     183.178 175.780 170.925  0.00  0.00    -0.321 N 
ATOM      5  H   UNL     1     184.157 175.525 170.992  0.00  0.00    +0.152 HD
ATOM      6  C   UNL     1     182.289 174.802 170.510  0.00  0.00    +0.016 C 
ATOM      7  C   UNL     1     182.913 173.465 170.207  0.00  0.00    +0.061 C 
ATOM      8  C   UNL     1     180.975 175.096 170.403  0.00  0.00    +0.065 C 
ATOM      9  C   UNL     1     180.438 176.477 170.792  0.00  0.00    +0.102 C 
ENDROOT
BRANCH   9  10
ATOM     10  C   UNL     1     179.519 176.356 171.974  0.00  0.00    +0.042 A 
ATOM     11  C   UNL     1     180.039 175.864 173.168  0.00  0.00    +0.011 A 
ATOM     12  C   UNL     1     179.212 175.740 174.284  0.00  0.00    +0.001 A 
ATOM     13  C   UNL     1     177.869 176.107 174.201  0.00  0.00    +0.007 A 
ATOM     14  C   UNL     1     177.353 176.599 173.001  0.00  0.00    +0.084 A 
ATOM     15  C   UNL     1     178.181 176.724 171.885  0.00  0.00    +0.277 A 
BRANCH  15  16
ATOM     16  N   UNL     1     177.634 177.229 170.674  0.00  0.00    +0.080 N 
ATOM     17  O   UNL     1     177.636 178.468 170.479  0.00  0.00    +0.041 OA
ATOM     18  O   UNL     1     177.165 176.421 169.837  0.00  0.00    -0.576 OA
ENDBRANCH  15  16
ENDBRANCH   9  10
BRANCH   1  19
ATOM     19  C   UNL     1     181.138 178.894 171.242  0.00  0.00    +0.337 C 
ATOM     20  O   UNL     1     180.989 179.439 172.321  0.00  0.00    -0.245 OA
BRANCH  19  21
ATOM     21  O   UNL     1     180.969 179.423 170.006  0.00  0.00    -0.465 OA
ATOM     22  C   UNL     1     181.818 180.535 169.701  0.00  0.00    +0.280 C 
ENDBRANCH  19  21
ENDBRANCH   1  19
BRANCH   8  23
ATOM     23  C   UNL     1     179.996 174.135 169.868  0.00  0.00    +0.337 C 
ATOM     24  O   UNL     1     179.656 174.107 168.700  0.00  0.00    -0.245 OA
BRANCH  23  25
ATOM     25  O   UNL     1     179.582 173.337 170.882  0.00  0.00    -0.465 OA
ATOM     26  C   UNL     1     178.167 173.129 170.951  0.00  0.00    +0.280 C 
ENDBRANCH  23  25
ENDBRANCH   8  23
TORSDOF 6
ENDMDL
MODEL 9
REMARK VINA RESULT:      -6.0      2.115      4.340
REMARK  Name = 4485
REMARK  10 active torsions:
REMARK  status: ('A' for Active; 'I' for Inactive)
REMARK    1  A    between atoms: O_1  and  C_17
REMARK    2  A    between atoms: O_1  and  C_24
REMARK    3  A    between atoms: O_2  and  C_18
REMARK    4  A    between atoms: O_2  and  C_25
REMARK    5  A    between atoms: N_8  and  C_15
REMARK    6  A    between atoms: C_9  and  C_12
REMARK    7  A    between atoms: C_10  and  C_17
REMARK    8  A    between atoms: C_11  and  C_18
REMARK    9  A    between atoms: C_13  and  C_19
REMARK   10  A    between atoms: C_14  and  C_20
REMARK                            x       y       z     vdW  Elec       q    Type
REMARK                         _______ _______ _______ _____ _____    ______ ____
ROOT
ATOM      1  C   UNL     1     176.911 175.240 169.805  0.00  0.00    +0.065 C 
ATOM      2  C   UNL     1     177.192 173.958 169.478  0.00  0.00    +0.016 C 
ATOM      3  C   UNL     1     176.254 173.005 168.787  0.00  0.00    +0.061 C 
ATOM      4  N   UNL     1     178.440 173.434 169.780  0.00  0.00    -0.321 N 
ATOM      5  H   UNL     1     178.620 172.472 169.515  0.00  0.00    +0.152 HD
ATOM      6  C   UNL     1     179.424 174.093 170.499  0.00  0.00    +0.016 C 
ATOM      7  C   UNL     1     180.650 173.273 170.797  0.00  0.00    +0.061 C 
ATOM      8  C   UNL     1     179.228 175.376 170.876  0.00  0.00    +0.065 C 
ATOM      9  C   UNL     1     177.961 176.137 170.471  0.00  0.00    +0.102 C 
ENDROOT
BRANCH   9  10
ATOM     10  C   UNL     1     178.317 177.275 169.557  0.00  0.00    +0.042 A 
ATOM     11  C   UNL     1     178.994 176.987 168.375  0.00  0.00    +0.011 A 
ATOM     12  C   UNL     1     179.338 178.022 167.505  0.00  0.00    +0.001 A 
ATOM     13  C   UNL     1     179.006 179.339 167.823  0.00  0.00    +0.007 A 
ATOM     14  C   UNL     1     178.327 179.621 169.009  0.00  0.00    +0.084 A 
ATOM     15  C   UNL     1     177.983 178.586 169.879  0.00  0.00    +0.277 A 
BRANCH  15  16
ATOM     16  N   UNL     1     177.291 178.897 171.081  0.00  0.00    +0.080 N 
ATOM     17  O   UNL     1     176.038 178.928 171.068  0.00  0.00    +0.041 OA
ATOM     18  O   UNL     1     177.955 179.132 172.119  0.00  0.00    -0.576 OA
ENDBRANCH  15  16
ENDBRANCH   9  10
BRANCH   1  19
ATOM     19  C   UNL     1     175.578 175.828 169.599  0.00  0.00    +0.337 C 
ATOM     20  O   UNL     1     175.258 176.425 168.588  0.00  0.00    -0.245 OA
BRANCH  19  21
ATOM     21  O   UNL     1     174.828 175.582 170.700  0.00  0.00    -0.465 OA
ATOM     22  C   UNL     1     173.530 175.034 170.441  0.00  0.00    +0.280 C 
ENDBRANCH  19  21
ENDBRANCH   1  19
BRANCH   8  23
ATOM     23  C   UNL     1     180.185 176.098 171.730  0.00  0.00    +0.337 C 
ATOM     24  O   UNL     1     181.246 176.535 171.325  0.00  0.00    -0.245 OA
BRANCH  23  25
ATOM     25  O   UNL     1     179.670 176.172 172.982  0.00  0.00    -0.465 OA
ATOM     26  C   UNL     1     180.551 175.748 174.027  0.00  0.00    +0.280 C 
ENDBRANCH  23  25
ENDBRANCH   8  23
TORSDOF 6
ENDMDL
MODEL 10
REMARK VINA RESULT:      -5.9      1.870      2.712
REMARK  Name = 4485
REMARK  10 active torsions:
REMARK  status: ('A' for Active; 'I' for Inactive)
REMARK    1  A    between atoms: O_1  and  C_17
REMARK    2  A    between atoms: O_1  and  C_24
REMARK    3  A    between atoms: O_2  and  C_18
REMARK    4  A    between atoms: O_2  and  C_25
REMARK    5  A    between atoms: N_8  and  C_15
REMARK    6  A    between atoms: C_9  and  C_12
REMARK    7  A    between atoms: C_10  and  C_17
REMARK    8  A    between atoms: C_11  and  C_18
REMARK    9  A    between atoms: C_13  and  C_19
REMARK   10  A    between atoms: C_14  and  C_20
REMARK                            x       y       z     vdW  Elec       q    Type
REMARK                         _______ _______ _______ _____ _____    ______ ____
ROOT
ATOM      1  C   UNL     1     175.480 174.528 169.192  0.00  0.00    +0.065 C 
ATOM      2  C   UNL     1     174.353 175.267 169.067  0.00  0.00    +0.016 C 
ATOM      3  C   UNL     1     172.967 174.719 168.860  0.00  0.00    +0.061 C 
ATOM      4  N   UNL     1     174.432 176.649 169.135  0.00  0.00    -0.321 N 
ATOM      5  H   UNL     1     173.568 177.171 169.044  0.00  0.00    +0.152 HD
ATOM      6  C   UNL     1     175.610 177.373 169.222  0.00  0.00    +0.016 C 
ATOM      7  C   UNL     1     175.443 178.868 169.166  0.00  0.00    +0.061 C 
ATOM      8  C   UNL     1     176.787 176.720 169.341  0.00  0.00    +0.065 C 
ATOM      9  C   UNL     1     176.839 175.192 169.444  0.00  0.00    +0.102 C 
ENDROOT
BRANCH   9  10
ATOM     10  C   UNL     1     177.365 174.787 170.792  0.00  0.00    +0.042 A 
ATOM     11  C   UNL     1     176.586 175.055 171.914  0.00  0.00    +0.011 A 
ATOM     12  C   UNL     1     177.047 174.691 173.179  0.00  0.00    +0.001 A 
ATOM     13  C   UNL     1     178.284 174.061 173.316  0.00  0.00    +0.007 A 
ATOM     14  C   UNL     1     179.060 173.794 172.187  0.00  0.00    +0.084 A 
ATOM     15  C   UNL     1     178.599 174.159 170.922  0.00  0.00    +0.277 A 
BRANCH  15  16
ATOM     16  N   UNL     1     179.406 173.876 169.786  0.00  0.00    +0.080 N 
ATOM     17  O   UNL     1     179.201 172.818 169.146  0.00  0.00    +0.041 OA
ATOM     18  O   UNL     1     180.300 174.693 169.459  0.00  0.00    -0.576 OA
ENDBRANCH  15  16
ENDBRANCH   9  10
BRANCH   1  19
ATOM     19  C   UNL     1     175.481 173.065 169.036  0.00  0.00    +0.337 C 
ATOM     20  O   UNL     1     175.975 172.494 168.081  0.00  0.00    -0.245 OA
BRANCH  19  21
ATOM     21  O   UNL     1     174.857 172.520 170.107  0.00  0.00    -0.465 OA
ATOM     22  C   UNL     1     175.613 171.528 170.812  0.00  0.00    +0.280 C 
ENDBRANCH  19  21
ENDBRANCH   1  19
BRANCH   8  23
ATOM     23  C   UNL     1     178.080 177.423 169.332  0.00  0.00    +0.337 C 
ATOM     24  O   UNL     1     178.538 177.994 170.304  0.00  0.00    -0.245 OA
BRANCH  23  25
ATOM     25  O   UNL     1     178.620 177.308 168.094  0.00  0.00    -0.465 OA
ATOM     26  C   UNL     1     179.124 178.526 167.537  0.00  0.00    +0.280 C 
ENDBRANCH  23  25
ENDBRANCH   8  23
TORSDOF 6
ENDMDL
