REMARK VINA RESULT:      -6.0      2.400      4.456
REMARK  Name = 4485
REMARK  10 active torsions:
REMARK  status: ('A' for Active; 'I' for Inactive)
REMARK    1  A    between atoms: O_1  and  C_17
REMARK    2  A    between atoms: O_1  and  C_24
REMARK    3  A    between atoms: O_2  and  C_18
REMARK    4  A    between atoms: O_2  and  C_25
REMARK    5  A    between atoms: N_8  and  C_15
REMARK    6  A    between atoms: C_9  and  C_12
REMARK    7  A    between atoms: C_10  and  C_17
REMARK    8  A    between atoms: C_11  and  C_18
REMARK    9  A    between atoms: C_13  and  C_19
REMARK   10  A    between atoms: C_14  and  C_20
REMARK                            x       y       z     vdW  Elec       q    Type
REMARK                         _______ _______ _______ _____ _____    ______ ____
ROOT
ATOM      1  C   UNL     1     176.812 176.548 170.076  0.00  0.00    +0.065 C 
ATOM      2  C   UNL     1     176.362 175.378 169.568  0.00  0.00    +0.016 C 
ATOM      3  C   UNL     1     174.925 175.056 169.254  0.00  0.00    +0.061 C 
ATOM      4  N   UNL     1     177.263 174.362 169.290  0.00  0.00    -0.321 N 
ATOM      5  H   UNL     1     176.892 173.501 168.903  0.00  0.00    +0.152 HD
ATOM      6  C   UNL     1     178.615 174.399 169.589  0.00  0.00    +0.016 C 
ATOM      7  C   UNL     1     179.365 173.127 169.294  0.00  0.00    +0.061 C 
ATOM      8  C   UNL     1     179.153 175.523 170.109  0.00  0.00    +0.065 C 
ATOM      9  C   UNL     1     178.308 176.783 170.318  0.00  0.00    +0.102 C 
ENDROOT
BRANCH   9  10
ATOM     10  C   UNL     1     178.803 177.887 169.427  0.00  0.00    +0.042 A 
ATOM     11  C   UNL     1     178.786 177.684 168.050  0.00  0.00    +0.011 A 
ATOM     12  C   UNL     1     179.239 178.689 167.196  0.00  0.00    +0.001 A 
ATOM     13  C   UNL     1     179.708 179.893 167.723  0.00  0.00    +0.007 A 
ATOM     14  C   UNL     1     179.722 180.091 169.104  0.00  0.00    +0.084 A 
ATOM     15  C   UNL     1     179.269 179.085 169.958  0.00  0.00    +0.277 A 
BRANCH  15  16
ATOM     16  N   UNL     1     179.292 179.310 171.362  0.00  0.00    +0.080 N 
ATOM     17  O   UNL     1     180.314 178.980 172.011  0.00  0.00    +0.041 OA
ATOM     18  O   UNL     1     178.291 179.829 171.910  0.00  0.00    -0.576 OA
ENDBRANCH  15  16
ENDBRANCH   9  10
BRANCH   1  19
ATOM     19  C   UNL     1     175.901 177.631 170.481  0.00  0.00    +0.337 C 
ATOM     20  O   UNL     1     175.557 177.821 171.633  0.00  0.00    -0.245 OA
BRANCH  19  21
ATOM     21  O   UNL     1     175.547 178.328 169.375  0.00  0.00    -0.465 OA
ATOM     22  C   UNL     1     175.680 179.750 169.485  0.00  0.00    +0.280 C 
ENDBRANCH  19  21
ENDBRANCH   1  19
BRANCH   8  23
ATOM     23  C   UNL     1     180.557 175.593 170.546  0.00  0.00    +0.337 C 
ATOM     24  O   UNL     1     181.482 175.831 169.792  0.00  0.00    -0.245 OA
BRANCH  23  25
ATOM     25  O   UNL     1     180.602 175.354 171.879  0.00  0.00    -0.465 OA
ATOM     26  C   UNL     1     181.750 175.883 172.552  0.00  0.00    +0.280 C 
ENDBRANCH  23  25
ENDBRANCH   8  23
TORSDOF 6
