REMARK VINA RESULT:      -6.0      2.970      5.637
REMARK  Name = 4485
REMARK  10 active torsions:
REMARK  status: ('A' for Active; 'I' for Inactive)
REMARK    1  A    between atoms: O_1  and  C_17
REMARK    2  A    between atoms: O_1  and  C_24
REMARK    3  A    between atoms: O_2  and  C_18
REMARK    4  A    between atoms: O_2  and  C_25
REMARK    5  A    between atoms: N_8  and  C_15
REMARK    6  A    between atoms: C_9  and  C_12
REMARK    7  A    between atoms: C_10  and  C_17
REMARK    8  A    between atoms: C_11  and  C_18
REMARK    9  A    between atoms: C_13  and  C_19
REMARK   10  A    between atoms: C_14  and  C_20
REMARK                            x       y       z     vdW  Elec       q    Type
REMARK                         _______ _______ _______ _____ _____    ______ ____
ROOT
ATOM      1  C   UNL     1     181.549 177.489 171.094  0.00  0.00    +0.065 C 
ATOM      2  C   UNL     1     182.844 177.105 171.164  0.00  0.00    +0.016 C 
ATOM      3  C   UNL     1     184.007 178.002 171.493  0.00  0.00    +0.061 C 
ATOM      4  N   UNL     1     183.178 175.780 170.925  0.00  0.00    -0.321 N 
ATOM      5  H   UNL     1     184.157 175.525 170.992  0.00  0.00    +0.152 HD
ATOM      6  C   UNL     1     182.289 174.802 170.510  0.00  0.00    +0.016 C 
ATOM      7  C   UNL     1     182.913 173.465 170.207  0.00  0.00    +0.061 C 
ATOM      8  C   UNL     1     180.975 175.096 170.403  0.00  0.00    +0.065 C 
ATOM      9  C   UNL     1     180.438 176.477 170.792  0.00  0.00    +0.102 C 
ENDROOT
BRANCH   9  10
ATOM     10  C   UNL     1     179.519 176.356 171.974  0.00  0.00    +0.042 A 
ATOM     11  C   UNL     1     180.039 175.864 173.168  0.00  0.00    +0.011 A 
ATOM     12  C   UNL     1     179.212 175.740 174.284  0.00  0.00    +0.001 A 
ATOM     13  C   UNL     1     177.869 176.107 174.201  0.00  0.00    +0.007 A 
ATOM     14  C   UNL     1     177.353 176.599 173.001  0.00  0.00    +0.084 A 
ATOM     15  C   UNL     1     178.181 176.724 171.885  0.00  0.00    +0.277 A 
BRANCH  15  16
ATOM     16  N   UNL     1     177.634 177.229 170.674  0.00  0.00    +0.080 N 
ATOM     17  O   UNL     1     177.636 178.468 170.479  0.00  0.00    +0.041 OA
ATOM     18  O   UNL     1     177.165 176.421 169.837  0.00  0.00    -0.576 OA
ENDBRANCH  15  16
ENDBRANCH   9  10
BRANCH   1  19
ATOM     19  C   UNL     1     181.138 178.894 171.242  0.00  0.00    +0.337 C 
ATOM     20  O   UNL     1     180.989 179.439 172.321  0.00  0.00    -0.245 OA
BRANCH  19  21
ATOM     21  O   UNL     1     180.969 179.423 170.006  0.00  0.00    -0.465 OA
ATOM     22  C   UNL     1     181.818 180.535 169.701  0.00  0.00    +0.280 C 
ENDBRANCH  19  21
ENDBRANCH   1  19
BRANCH   8  23
ATOM     23  C   UNL     1     179.996 174.135 169.868  0.00  0.00    +0.337 C 
ATOM     24  O   UNL     1     179.656 174.107 168.700  0.00  0.00    -0.245 OA
BRANCH  23  25
ATOM     25  O   UNL     1     179.582 173.337 170.882  0.00  0.00    -0.465 OA
ATOM     26  C   UNL     1     178.167 173.129 170.951  0.00  0.00    +0.280 C 
ENDBRANCH  23  25
ENDBRANCH   8  23
TORSDOF 6
