REMARK SMILES CC(C)(O)CC[C@@H](O)[C@](C)(O)[C@H]1CC[C@@]2(O)C3=CC(=O)[C@@H]4C[C@@H](O)[C@@H](O)C[C@]4(C)[C@H]3CC[C@]12C
REMARK SMILES IDX 6 1 7 2 9 3 10 4 12 5 15 6 33 7 17 8 14 9 32 10 34 11 30 12
REMARK SMILES IDX 18 13 13 14 31 15 28 16 19 17 21 18 27 19 29 20 20 21 22 22
REMARK SMILES IDX 25 23 23 26 16 27 26 32 24 37 11 42 8 47 5 52 2 53 1 54 3 55
REMARK SMILES IDX 4 56
REMARK H PARENT 16 28 26 33 24 38 11 43 8 48 4 57
REMARK Flexibility Score: inf
ROOT
ATOM      1  C   UNL     1      -4.850   0.340  -0.092  1.00  0.00     0.038 C 
ENDROOT
BRANCH   1   2
ATOM      2  C   UNL     1      -4.404  -1.107  -0.377  1.00  0.00     0.146 C 
BRANCH   2   3
ATOM      3  C   UNL     1      -2.975  -1.228  -0.973  1.00  0.00     0.091 C 
ATOM      4  C   UNL     1      -2.885  -0.495  -2.322  1.00  0.00     0.045 C 
BRANCH   3   5
ATOM      5  C   UNL     1      -1.908  -0.696  -0.024  1.00  0.00     0.032 C 
ATOM      6  C   UNL     1       0.311  -0.597   0.855  1.00  0.00     0.092 C 
ATOM      7  C   UNL     1      -0.434  -0.849  -0.482  1.00  0.00     0.006 C 
ATOM      8  C   UNL     1       1.811  -0.716   0.688  1.00  0.00    -0.031 C 
ATOM      9  C   UNL     1      -0.471  -1.484   1.835  1.00  0.00     0.041 C 
ATOM     10  C   UNL     1       0.014   0.213  -1.502  1.00  0.00     0.011 C 
ATOM     11  C   UNL     1      -0.180  -2.268  -1.060  1.00  0.00     0.015 C 
ATOM     12  C   UNL     1       2.400   0.153  -0.434  1.00  0.00     0.025 C 
ATOM     13  C   UNL     1       2.559  -1.450   1.526  1.00  0.00     0.050 C 
ATOM     14  C   UNL     1      -1.937  -1.388   1.358  1.00  0.00     0.010 C 
ATOM     15  C   UNL     1       1.532   0.150  -1.731  1.00  0.00     0.009 C 
ATOM     16  C   UNL     1       3.921  -0.154  -0.727  1.00  0.00    -0.013 C 
ATOM     17  C   UNL     1       4.037  -1.383   1.486  1.00  0.00     0.159 C 
ATOM     18  C   UNL     1       4.695  -0.335   0.609  1.00  0.00     0.070 C 
ATOM     19  C   UNL     1       4.592   0.994  -1.534  1.00  0.00     0.042 C 
ATOM     20  C   UNL     1       4.091  -1.453  -1.561  1.00  0.00     0.013 C 
ATOM     21  O   UNL     1       4.697  -2.126   2.211  1.00  0.00    -0.295 OA
ATOM     22  C   UNL     1       4.859   0.972   1.407  1.00  0.00     0.047 C 
ATOM     23  C   UNL     1       4.756   2.292  -0.736  1.00  0.00     0.143 C 
ATOM     24 WAT  UNL     1       3.318  -4.174   3.916  1.00  0.00     0.000 W 
ATOM     25 WAT  UNL     1       7.687  -1.889   2.275  1.00  0.00     0.000 W 
ATOM     26  C   UNL     1       5.520   2.065   0.569  1.00  0.00     0.143 C 
BRANCH   6  27
ATOM     27  O   UNL     1       0.074   0.762   1.287  1.00  0.00    -0.385 OA
ATOM     28  H   UNL     1       0.493   0.875   2.158  1.00  0.00     0.211 HD
ATOM     29 WAT  UNL     1      -2.885   1.059   1.686  1.00  0.00     0.000 W 
ATOM     30 WAT  UNL     1       1.518   2.564  -0.628  1.00  0.00     0.000 W 
ATOM     31 WAT  UNL     1       1.355   1.106   3.948  1.00  0.00     0.000 W 
ENDBRANCH   6  27
BRANCH  23  32
ATOM     32  O   UNL     1       5.457   3.252  -1.523  1.00  0.00    -0.390 OA
ATOM     33  H   UNL     1       4.947   3.389  -2.340  1.00  0.00     0.211 HD
ATOM     34 WAT  UNL     1       8.074   2.014  -2.310  1.00  0.00     0.000 W 
ATOM     35 WAT  UNL     1       5.417   5.841  -0.008  1.00  0.00     0.000 W 
ATOM     36 WAT  UNL     1       3.898   3.671  -4.019  1.00  0.00     0.000 W 
ENDBRANCH  23  32
BRANCH  26  37
ATOM     37  O   UNL     1       6.862   1.678   0.268  1.00  0.00    -0.390 OA
ATOM     38  H   UNL     1       7.327   1.552   1.113  1.00  0.00     0.211 HD
ATOM     39 WAT  UNL     1       8.164   3.997  -1.121  1.00  0.00     0.000 W 
ATOM     40 WAT  UNL     1       6.731  -0.998  -1.082  1.00  0.00     0.000 W 
ATOM     41 WAT  UNL     1       8.282   1.291   2.850  1.00  0.00     0.000 W 
ENDBRANCH  26  37
ENDBRANCH   3   5
BRANCH   3  42
ATOM     42  O   UNL     1      -2.710  -2.615  -1.221  1.00  0.00    -0.387 OA
ATOM     43  H   UNL     1      -3.045  -3.138  -0.474  1.00  0.00     0.211 HD
ATOM     44 WAT  UNL     1       0.272  -2.942  -1.246  1.00  0.00     0.000 W 
ATOM     45 WAT  UNL     1      -4.324  -3.394  -3.627  1.00  0.00     0.000 W 
ATOM     46 WAT  UNL     1      -3.735  -4.215   1.063  1.00  0.00     0.000 W 
ENDBRANCH   3  42
ENDBRANCH   2   3
BRANCH   2  47
ATOM     47  O   UNL     1      -5.349  -1.701  -1.273  1.00  0.00    -0.390 OA
ATOM     48  H   UNL     1      -5.056  -2.614  -1.441  1.00  0.00     0.211 HD
ATOM     49 WAT  UNL     1      -5.162  -0.216  -3.873  1.00  0.00     0.000 W 
ATOM     50 WAT  UNL     1      -7.969  -1.862   0.178  1.00  0.00     0.000 W 
ATOM     51 WAT  UNL     1      -4.456  -4.490  -1.786  1.00  0.00     0.000 W 
ENDBRANCH   2  47
ENDBRANCH   1   2
BRANCH   1  52
ATOM     52  C   UNL     1      -6.290   0.404   0.451  1.00  0.00     0.037 C 
BRANCH  52  53
ATOM     53  C   UNL     1      -6.823   1.833   0.684  1.00  0.00     0.059 C 
ATOM     54  C   UNL     1      -5.975   2.528   1.755  1.00  0.00     0.042 C 
ATOM     55  C   UNL     1      -6.835   2.671  -0.596  1.00  0.00     0.042 C 
BRANCH  53  56
ATOM     56  O   UNL     1      -8.161   1.739   1.177  1.00  0.00    -0.390 OA
ATOM     57  H   UNL     1      -8.702   1.310   0.492  1.00  0.00     0.211 HD
ATOM     58 WAT  UNL     1      -9.187   4.541   1.484  1.00  0.00     0.000 W 
ATOM     59 WAT  UNL     1      -8.104  -0.105   3.543  1.00  0.00     0.000 W 
ATOM     60 WAT  UNL     1      -9.815   0.426  -0.915  1.00  0.00     0.000 W 
ENDBRANCH  53  56
ENDBRANCH  52  53
ENDBRANCH   1  52
TORSDOF 11
