MODEL 1
REMARK VINA RESULT:   -10.210      0.000      0.000
REMARK INTER + INTRA:         -15.945
REMARK INTER:                 -13.491
REMARK INTRA:                  -2.454
REMARK CONF_INDEPENDENT:        3.281
REMARK UNBOUND:                -2.454
REMARK SMILES CC(C)(O)CC[C@@H](O)[C@](C)(O)[C@H]1CC[C@@]2(O)C3=CC(=O)[C@@H]4C[C@@H](O)[C@@H](O)C[C@]4(C)[C@H]3CC[C@]12C
REMARK SMILES IDX 6 1 7 2 9 3 10 4 12 5 15 6 33 7 17 8 14 9 32 10 34 11 30 12
REMARK SMILES IDX 18 13 13 14 31 15 28 16 19 17 21 18 27 19 29 20 20 21 22 22
REMARK SMILES IDX 25 23 23 26 16 27 26 32 24 37 11 42 8 47 5 52 2 53 1 54 3 55
REMARK SMILES IDX 4 56
REMARK H PARENT 16 28 26 33 24 38 11 43 8 48 4 57
REMARK Flexibility Score: inf
ROOT
ATOM      1  C   UNL     1      -0.814  -5.981   0.763  1.00  0.00     0.038 C 
ENDROOT
BRANCH   1   2
ATOM      2  C   UNL     1      -1.226  -4.530   0.450  1.00  0.00     0.146 C 
BRANCH   2   3
ATOM      3  C   UNL     1      -1.503  -3.661   1.707  1.00  0.00     0.091 C 
ATOM      4  C   UNL     1      -0.810  -4.257   2.944  1.00  0.00     0.045 C 
BRANCH   3   5
ATOM      5  C   UNL     1      -1.062  -2.214   1.516  1.00  0.00     0.032 C 
ATOM      6  C   UNL     1       0.561  -0.515   1.087  1.00  0.00     0.092 C 
ATOM      7  C   UNL     1       0.247  -1.988   0.716  1.00  0.00     0.006 C 
ATOM      8  C   UNL     1       1.842  -0.038   0.438  1.00  0.00    -0.031 C 
ATOM      9  C   UNL     1       0.373  -0.516   2.611  1.00  0.00     0.041 C 
ATOM     10  C   UNL     1       0.068  -2.083  -0.810  1.00  0.00     0.011 C 
ATOM     11  C   UNL     1       1.352  -2.978   1.175  1.00  0.00     0.015 C 
ATOM     12  C   UNL     1       1.901  -0.239  -1.085  1.00  0.00     0.025 C 
ATOM     13  C   UNL     1       2.795   0.597   1.138  1.00  0.00     0.050 C 
ATOM     14  C   UNL     1      -0.806  -1.485   2.854  1.00  0.00     0.010 C 
ATOM     15  C   UNL     1       1.337  -1.620  -1.542  1.00  0.00     0.009 C 
ATOM     16  C   UNL     1       3.324   0.064  -1.699  1.00  0.00    -0.013 C 
ATOM     17  C   UNL     1       3.936   1.248   0.456  1.00  0.00     0.159 C 
ATOM     18  C   UNL     1       3.919   1.349  -1.057  1.00  0.00     0.070 C 
ATOM     19  C   UNL     1       3.251   0.271  -3.239  1.00  0.00     0.042 C 
ATOM     20  C   UNL     1       4.315  -1.104  -1.445  1.00  0.00     0.013 C 
ATOM     21  O   UNL     1       4.835   1.752   1.127  1.00  0.00    -0.295 OA
ATOM     22  C   UNL     1       3.192   2.640  -1.477  1.00  0.00     0.047 C 
ATOM     23  C   UNL     1       2.529   1.558  -3.653  1.00  0.00     0.143 C 
ATOM     24 WAT  UNL     1       4.795   1.508   4.118  1.00  0.00     0.000 W 
ATOM     25 WAT  UNL     1       7.068   3.229  -0.227  1.00  0.00     0.000 W 
ATOM     26  C   UNL     1       3.147   2.793  -2.996  1.00  0.00     0.143 C 
BRANCH   6  27
ATOM     27  O   UNL     1      -0.481   0.342   0.568  1.00  0.00    -0.385 OA
ATOM     28  H   UNL     1      -0.459   0.284  -0.403  1.00  0.00     0.211 HD
ATOM     29 WAT  UNL     1       0.246   3.160   1.299  1.00  0.00     0.000 W 
ATOM     30 WAT  UNL     1      -3.103  -0.811   1.461  1.00  0.00     0.000 W 
ATOM     31 WAT  UNL     1      -0.412   0.162  -2.399  1.00  0.00     0.000 W 
ENDBRANCH   6  27
BRANCH  23  32
ATOM     32  O   UNL     1       2.590   1.706  -5.070  1.00  0.00    -0.390 OA
ATOM     33  H   UNL     1       2.335   0.854  -5.464  1.00  0.00     0.211 HD
ATOM     34 WAT  UNL     1       5.462   2.190  -5.788  1.00  0.00     0.000 W 
ATOM     35 WAT  UNL     1       0.492   3.705  -5.844  1.00  0.00     0.000 W 
ATOM     36 WAT  UNL     1       1.810  -0.897  -6.274  1.00  0.00     0.000 W 
ENDBRANCH  23  32
BRANCH  26  37
ATOM     37  O   UNL     1       4.476   2.973  -3.489  1.00  0.00    -0.390 OA
ATOM     38  H   UNL     1       4.472   2.741  -4.434  1.00  0.00     0.211 HD
ATOM     39 WAT  UNL     1       6.220   0.971  -2.092  1.00  0.00     0.000 W 
ATOM     40 WAT  UNL     1       5.102   5.901  -3.298  1.00  0.00     0.000 W 
ATOM     41 WAT  UNL     1       4.463   2.264  -6.375  1.00  0.00     0.000 W 
ENDBRANCH  26  37
ENDBRANCH   3   5
BRANCH   3  42
ATOM     42  O   UNL     1      -2.914  -3.675   1.959  1.00  0.00    -0.387 OA
ATOM     43  H   UNL     1      -3.356  -4.167   1.247  1.00  0.00     0.211 HD
ATOM     44 WAT  UNL     1      -3.862  -0.835   1.773  1.00  0.00     0.000 W 
ATOM     45 WAT  UNL     1      -3.332  -5.233   4.489  1.00  0.00     0.000 W 
ATOM     46 WAT  UNL     1      -4.265  -5.181  -0.217  1.00  0.00     0.000 W 
ENDBRANCH   3  42
ENDBRANCH   2   3
BRANCH   2  47
ATOM     47  O   UNL     1      -2.394  -4.562  -0.377  1.00  0.00    -0.390 OA
ATOM     48  H   UNL     1      -3.133  -4.872   0.176  1.00  0.00     0.211 HD
ATOM     49 WAT  UNL     1      -1.930  -6.643  -2.488  1.00  0.00     0.000 W 
ATOM     50 WAT  UNL     1      -3.001  -1.733  -1.167  1.00  0.00     0.000 W 
ATOM     51 WAT  UNL     1      -4.652  -5.507   1.310  1.00  0.00     0.000 W 
ENDBRANCH   2  47
ENDBRANCH   1   2
BRANCH   1  52
ATOM     52  C   UNL     1      -1.052  -6.920  -0.435  1.00  0.00     0.037 C 
BRANCH  52  53
ATOM     53  C   UNL     1      -0.550  -6.372  -1.787  1.00  0.00     0.059 C 
ATOM     54  C   UNL     1       0.293  -7.440  -2.492  1.00  0.00     0.042 C 
ATOM     55  C   UNL     1      -1.694  -5.925  -2.700  1.00  0.00     0.042 C 
BRANCH  53  56
ATOM     56  O   UNL     1       0.292  -5.246  -1.532  1.00  0.00    -0.390 OA
ATOM     57  H   UNL     1       0.424  -4.775  -2.372  1.00  0.00     0.211 HD
ATOM     58 WAT  UNL     1       2.965  -6.317  -0.692  1.00  0.00     0.000 W 
ATOM     59 WAT  UNL     1      -1.223  -3.403   0.287  1.00  0.00     0.000 W 
ATOM     60 WAT  UNL     1       0.694  -3.805  -4.100  1.00  0.00     0.000 W 
ENDBRANCH  53  56
ENDBRANCH  52  53
ENDBRANCH   1  52
TORSDOF 11
ENDMDL
MODEL 2
REMARK VINA RESULT:   -10.163      1.588      2.555
REMARK INTER + INTRA:         -16.056
REMARK INTER:                 -13.444
REMARK INTRA:                  -2.612
REMARK CONF_INDEPENDENT:        3.281
REMARK UNBOUND:                -2.612
REMARK SMILES CC(C)(O)CC[C@@H](O)[C@](C)(O)[C@H]1CC[C@@]2(O)C3=CC(=O)[C@@H]4C[C@@H](O)[C@@H](O)C[C@]4(C)[C@H]3CC[C@]12C
REMARK SMILES IDX 6 1 7 2 9 3 10 4 12 5 15 6 33 7 17 8 14 9 32 10 34 11 30 12
REMARK SMILES IDX 18 13 13 14 31 15 28 16 19 17 21 18 27 19 29 20 20 21 22 22
REMARK SMILES IDX 25 23 23 26 16 27 26 32 24 37 11 42 8 47 5 52 2 53 1 54 3 55
REMARK SMILES IDX 4 56
REMARK H PARENT 16 28 26 33 24 38 11 43 8 48 4 57
REMARK Flexibility Score: inf
ROOT
ATOM      1  C   UNL     1      -0.773  -4.997   1.124  1.00  0.00     0.038 C 
ENDROOT
BRANCH   1   2
ATOM      2  C   UNL     1      -1.346  -3.778   0.377  1.00  0.00     0.146 C 
BRANCH   2   3
ATOM      3  C   UNL     1      -1.670  -2.564   1.291  1.00  0.00     0.091 C 
ATOM      4  C   UNL     1      -1.352  -2.890   2.760  1.00  0.00     0.045 C 
BRANCH   3   5
ATOM      5  C   UNL     1      -0.919  -1.307   0.867  1.00  0.00     0.032 C 
ATOM      6  C   UNL     1       1.063  -0.032   0.479  1.00  0.00     0.092 C 
ATOM      7  C   UNL     1       0.555  -1.496   0.422  1.00  0.00     0.006 C 
ATOM      8  C   UNL     1       2.526   0.065   0.103  1.00  0.00    -0.031 C 
ATOM      9  C   UNL     1       0.541   0.441   1.844  1.00  0.00     0.041 C 
ATOM     10  C   UNL     1       0.708  -2.015  -1.019  1.00  0.00     0.011 C 
ATOM     11  C   UNL     1       1.309  -2.439   1.399  1.00  0.00     0.015 C 
ATOM     12  C   UNL     1       2.885  -0.583  -1.243  1.00  0.00     0.025 C 
ATOM     13  C   UNL     1       3.404   0.750   0.852  1.00  0.00     0.050 C 
ATOM     14  C   UNL     1      -0.831  -0.254   1.994  1.00  0.00     0.010 C 
ATOM     15  C   UNL     1       2.175  -1.954  -1.472  1.00  0.00     0.009 C 
ATOM     16  C   UNL     1       4.440  -0.659  -1.504  1.00  0.00    -0.013 C 
ATOM     17  C   UNL     1       4.775   1.020   0.364  1.00  0.00     0.159 C 
ATOM     18  C   UNL     1       5.119   0.671  -1.071  1.00  0.00     0.070 C 
ATOM     19  C   UNL     1       4.758  -0.909  -3.006  1.00  0.00     0.042 C 
ATOM     20  C   UNL     1       5.097  -1.817  -0.704  1.00  0.00     0.013 C 
ATOM     21  O   UNL     1       5.582   1.581   1.104  1.00  0.00    -0.295 OA
ATOM     22  C   UNL     1       4.776   1.862  -1.985  1.00  0.00     0.047 C 
ATOM     23  C   UNL     1       4.418   0.279  -3.912  1.00  0.00     0.143 C 
ATOM     24 WAT  UNL     1       4.823   2.238   3.931  1.00  0.00     0.000 W 
ATOM     25 WAT  UNL     1       8.310   2.294   0.079  1.00  0.00     0.000 W 
ATOM     26  C   UNL     1       5.105   1.564  -3.447  1.00  0.00     0.143 C 
BRANCH   6  27
ATOM     27  O   UNL     1       0.356   0.759  -0.503  1.00  0.00    -0.385 OA
ATOM     28  H   UNL     1      -0.565   0.446  -0.530  1.00  0.00     0.211 HD
ATOM     29 WAT  UNL     1       1.575   0.146  -3.175  1.00  0.00     0.000 W 
ATOM     30 WAT  UNL     1       0.301   3.583   0.509  1.00  0.00     0.000 W 
ATOM     31 WAT  UNL     1      -2.458  -0.197  -0.585  1.00  0.00     0.000 W 
ENDBRANCH   6  27
BRANCH  23  32
ATOM     32  O   UNL     1       4.825  -0.007  -5.248  1.00  0.00    -0.390 OA
ATOM     33  H   UNL     1       4.217  -0.680  -5.601  1.00  0.00     0.211 HD
ATOM     34 WAT  UNL     1       7.546  -1.262  -5.099  1.00  0.00     0.000 W 
ATOM     35 WAT  UNL     1       4.411   2.492  -6.856  1.00  0.00     0.000 W 
ATOM     36 WAT  UNL     1       2.967  -2.062  -6.326  1.00  0.00     0.000 W 
ENDBRANCH  23  32
BRANCH  26  37
ATOM     37  O   UNL     1       6.520   1.420  -3.590  1.00  0.00    -0.390 OA
ATOM     38  H   UNL     1       6.685   0.989  -4.446  1.00  0.00     0.211 HD
ATOM     39 WAT  UNL     1       7.438  -0.478  -1.454  1.00  0.00     0.000 W 
ATOM     40 WAT  UNL     1       7.681   4.181  -3.743  1.00  0.00     0.000 W 
ATOM     41 WAT  UNL     1       7.026   0.107  -6.207  1.00  0.00     0.000 W 
ENDBRANCH  26  37
ENDBRANCH   3   5
BRANCH   3  42
ATOM     42  O   UNL     1      -3.077  -2.303   1.204  1.00  0.00    -0.387 OA
ATOM     43  H   UNL     1      -3.424  -2.710   0.394  1.00  0.00     0.211 HD
ATOM     44 WAT  UNL     1      -3.395   0.664   0.895  1.00  0.00     0.000 W 
ATOM     45 WAT  UNL     1      -4.369  -3.716   3.514  1.00  0.00     0.000 W 
ATOM     46 WAT  UNL     1      -4.138  -3.548  -1.275  1.00  0.00     0.000 W 
ENDBRANCH   3  42
ENDBRANCH   2   3
BRANCH   2  47
ATOM     47  O   UNL     1      -2.531  -4.188  -0.312  1.00  0.00    -0.390 OA
ATOM     48  H   UNL     1      -2.942  -3.389  -0.686  1.00  0.00     0.211 HD
ATOM     49 WAT  UNL     1      -4.422  -5.279   1.746  1.00  0.00     0.000 W 
ATOM     50 WAT  UNL     1      -1.669  -5.903  -2.617  1.00  0.00     0.000 W 
ATOM     51 WAT  UNL     1      -3.786  -1.747  -1.455  1.00  0.00     0.000 W 
ENDBRANCH   2  47
ENDBRANCH   1   2
BRANCH   1  52
ATOM     52  C   UNL     1       0.105  -5.874   0.211  1.00  0.00     0.037 C 
BRANCH  52  53
ATOM     53  C   UNL     1      -0.626  -6.448  -1.020  1.00  0.00     0.059 C 
ATOM     54  C   UNL     1       0.292  -7.437  -1.746  1.00  0.00     0.042 C 
ATOM     55  C   UNL     1      -1.944  -7.133  -0.653  1.00  0.00     0.042 C 
BRANCH  53  56
ATOM     56  O   UNL     1      -0.909  -5.372  -1.917  1.00  0.00    -0.390 OA
ATOM     57  H   UNL     1      -0.081  -5.136  -2.370  1.00  0.00     0.211 HD
ATOM     58 WAT  UNL     1      -1.704  -3.013  -0.244  1.00  0.00     0.000 W 
ATOM     59 WAT  UNL     1      -2.786  -6.431  -4.004  1.00  0.00     0.000 W 
ATOM     60 WAT  UNL     1       1.621  -4.650  -3.302  1.00  0.00     0.000 W 
ENDBRANCH  53  56
ENDBRANCH  52  53
ENDBRANCH   1  52
TORSDOF 11
ENDMDL
MODEL 3
REMARK VINA RESULT:    -9.770      0.901      2.506
REMARK INTER + INTRA:         -15.929
REMARK INTER:                 -13.051
REMARK INTRA:                  -2.878
REMARK CONF_INDEPENDENT:        3.281
REMARK UNBOUND:                -2.878
REMARK SMILES CC(C)(O)CC[C@@H](O)[C@](C)(O)[C@H]1CC[C@@]2(O)C3=CC(=O)[C@@H]4C[C@@H](O)[C@@H](O)C[C@]4(C)[C@H]3CC[C@]12C
REMARK SMILES IDX 6 1 7 2 9 3 10 4 12 5 15 6 33 7 17 8 14 9 32 10 34 11 30 12
REMARK SMILES IDX 18 13 13 14 31 15 28 16 19 17 21 18 27 19 29 20 20 21 22 22
REMARK SMILES IDX 25 23 23 26 16 27 26 32 24 37 11 42 8 47 5 52 2 53 1 54 3 55
REMARK SMILES IDX 4 56
REMARK H PARENT 16 28 26 33 24 38 11 43 8 48 4 57
REMARK Flexibility Score: inf
ROOT
ATOM      1  C   UNL     1      -0.646  -5.869   0.741  1.00  0.00     0.038 C 
ENDROOT
BRANCH   1   2
ATOM      2  C   UNL     1      -1.419  -4.553   0.528  1.00  0.00     0.146 C 
BRANCH   2   3
ATOM      3  C   UNL     1      -1.579  -3.694   1.812  1.00  0.00     0.091 C 
ATOM      4  C   UNL     1      -0.812  -4.323   2.987  1.00  0.00     0.045 C 
BRANCH   3   5
ATOM      5  C   UNL     1      -1.116  -2.257   1.604  1.00  0.00     0.032 C 
ATOM      6  C   UNL     1       0.536  -0.586   1.175  1.00  0.00     0.092 C 
ATOM      7  C   UNL     1       0.210  -2.061   0.824  1.00  0.00     0.006 C 
ATOM      8  C   UNL     1       1.835  -0.136   0.541  1.00  0.00    -0.031 C 
ATOM      9  C   UNL     1       0.322  -0.559   2.696  1.00  0.00     0.041 C 
ATOM     10  C   UNL     1       0.056  -2.180  -0.703  1.00  0.00     0.011 C 
ATOM     11  C   UNL     1       1.294  -3.057   1.318  1.00  0.00     0.015 C 
ATOM     12  C   UNL     1       1.917  -0.364  -0.977  1.00  0.00     0.025 C 
ATOM     13  C   UNL     1       2.784   0.497   1.247  1.00  0.00     0.050 C 
ATOM     14  C   UNL     1      -0.873  -1.508   2.935  1.00  0.00     0.010 C 
ATOM     15  C   UNL     1       1.343  -1.745  -1.421  1.00  0.00     0.009 C 
ATOM     16  C   UNL     1       3.355  -0.090  -1.571  1.00  0.00    -0.013 C 
ATOM     17  C   UNL     1       3.945   1.122   0.574  1.00  0.00     0.159 C 
ATOM     18  C   UNL     1       3.956   1.197  -0.941  1.00  0.00     0.070 C 
ATOM     19  C   UNL     1       3.311   0.091  -3.115  1.00  0.00     0.042 C 
ATOM     20  C   UNL     1       4.326  -1.267  -1.281  1.00  0.00     0.013 C 
ATOM     21  O   UNL     1       4.839   1.626   1.253  1.00  0.00    -0.295 OA
ATOM     22  C   UNL     1       3.253   2.491  -1.395  1.00  0.00     0.047 C 
ATOM     23  C   UNL     1       2.614   1.380  -3.563  1.00  0.00     0.143 C 
ATOM     24 WAT  UNL     1       4.744   1.433   4.245  1.00  0.00     0.000 W 
ATOM     25 WAT  UNL     1       7.115   3.050  -0.087  1.00  0.00     0.000 W 
ATOM     26  C   UNL     1       3.236   2.618  -2.917  1.00  0.00     0.143 C 
BRANCH   6  27
ATOM     27  O   UNL     1      -0.485   0.276   0.624  1.00  0.00    -0.385 OA
ATOM     28  H   UNL     1      -0.666  -0.020  -0.285  1.00  0.00     0.211 HD
ATOM     29 WAT  UNL     1       0.689   3.031   0.438  1.00  0.00     0.000 W 
ATOM     30 WAT  UNL     1      -2.986  -0.185   2.215  1.00  0.00     0.000 W 
ATOM     31 WAT  UNL     1      -1.036  -0.631  -2.154  1.00  0.00     0.000 W 
ENDBRANCH   6  27
BRANCH  23  32
ATOM     32  O   UNL     1       2.701   1.503  -4.981  1.00  0.00    -0.390 OA
ATOM     33  H   UNL     1       3.566   1.898  -5.187  1.00  0.00     0.211 HD
ATOM     34 WAT  UNL     1       0.604   3.473  -5.832  1.00  0.00     0.000 W 
ATOM     35 WAT  UNL     1       2.700  -1.274  -6.115  1.00  0.00     0.000 W 
ATOM     36 WAT  UNL     1       5.344   2.708  -5.612  1.00  0.00     0.000 W 
ENDBRANCH  23  32
BRANCH  26  37
ATOM     37  O   UNL     1       4.576   2.773  -3.389  1.00  0.00    -0.390 OA
ATOM     38  H   UNL     1       5.008   3.443  -2.831  1.00  0.00     0.211 HD
ATOM     39 WAT  UNL     1       4.413   3.905  -6.163  1.00  0.00     0.000 W 
ATOM     40 WAT  UNL     1       5.991   0.171  -2.911  1.00  0.00     0.000 W 
ATOM     41 WAT  UNL     1       5.896   4.817  -1.683  1.00  0.00     0.000 W 
ENDBRANCH  26  37
ENDBRANCH   3   5
BRANCH   3  42
ATOM     42  O   UNL     1      -2.968  -3.676   2.167  1.00  0.00    -0.387 OA
ATOM     43  H   UNL     1      -3.480  -4.101   1.460  1.00  0.00     0.211 HD
ATOM     44 WAT  UNL     1      -3.811  -0.798   2.242  1.00  0.00     0.000 W 
ATOM     45 WAT  UNL     1      -3.264  -5.389   4.612  1.00  0.00     0.000 W 
ATOM     46 WAT  UNL     1      -4.533  -4.978   0.004  1.00  0.00     0.000 W 
ENDBRANCH   3  42
ENDBRANCH   2   3
BRANCH   2  47
ATOM     47  O   UNL     1      -2.710  -4.870  -0.001  1.00  0.00    -0.390 OA
ATOM     48  H   UNL     1      -2.576  -5.260  -0.883  1.00  0.00     0.211 HD
ATOM     49 WAT  UNL     1      -4.171  -2.279  -0.389  1.00  0.00     0.000 W 
ATOM     50 WAT  UNL     1      -3.885  -7.008   1.744  1.00  0.00     0.000 W 
ATOM     51 WAT  UNL     1      -2.300  -6.061  -2.694  1.00  0.00     0.000 W 
ENDBRANCH   2  47
ENDBRANCH   1   2
BRANCH   1  52
ATOM     52  C   UNL     1       0.130  -6.293  -0.520  1.00  0.00     0.037 C 
BRANCH  52  53
ATOM     53  C   UNL     1      -0.757  -6.598  -1.745  1.00  0.00     0.059 C 
ATOM     54  C   UNL     1       0.074  -7.318  -2.813  1.00  0.00     0.042 C 
ATOM     55  C   UNL     1      -1.984  -7.438  -1.386  1.00  0.00     0.042 C 
BRANCH  53  56
ATOM     56  O   UNL     1      -1.202  -5.358  -2.298  1.00  0.00    -0.390 OA
ATOM     57  H   UNL     1      -0.454  -4.958  -2.773  1.00  0.00     0.211 HD
ATOM     58 WAT  UNL     1      -1.853  -3.549   0.005  1.00  0.00     0.000 W 
ATOM     59 WAT  UNL     1      -3.305  -6.004  -4.338  1.00  0.00     0.000 W 
ATOM     60 WAT  UNL     1       1.082  -4.134  -3.753  1.00  0.00     0.000 W 
ENDBRANCH  53  56
ENDBRANCH  52  53
ENDBRANCH   1  52
TORSDOF 11
ENDMDL
MODEL 4
REMARK VINA RESULT:    -9.736      1.710      2.584
REMARK INTER + INTRA:         -16.227
REMARK INTER:                 -13.017
REMARK INTRA:                  -3.211
REMARK CONF_INDEPENDENT:        3.281
REMARK UNBOUND:                -3.211
REMARK SMILES CC(C)(O)CC[C@@H](O)[C@](C)(O)[C@H]1CC[C@@]2(O)C3=CC(=O)[C@@H]4C[C@@H](O)[C@@H](O)C[C@]4(C)[C@H]3CC[C@]12C
REMARK SMILES IDX 6 1 7 2 9 3 10 4 12 5 15 6 33 7 17 8 14 9 32 10 34 11 30 12
REMARK SMILES IDX 18 13 13 14 31 15 28 16 19 17 21 18 27 19 29 20 20 21 22 22
REMARK SMILES IDX 25 23 23 26 16 27 26 32 24 37 11 42 8 47 5 52 2 53 1 54 3 55
REMARK SMILES IDX 4 56
REMARK H PARENT 16 28 26 33 24 38 11 43 8 48 4 57
REMARK Flexibility Score: inf
ROOT
ATOM      1  C   UNL     1      -0.615  -5.074   1.034  1.00  0.00     0.038 C 
ENDROOT
BRANCH   1   2
ATOM      2  C   UNL     1      -1.462  -3.926   0.453  1.00  0.00     0.146 C 
BRANCH   2   3
ATOM      3  C   UNL     1      -1.734  -2.766   1.449  1.00  0.00     0.091 C 
ATOM      4  C   UNL     1      -1.334  -3.171   2.877  1.00  0.00     0.045 C 
BRANCH   3   5
ATOM      5  C   UNL     1      -1.009  -1.485   1.053  1.00  0.00     0.032 C 
ATOM      6  C   UNL     1       0.947  -0.162   0.693  1.00  0.00     0.092 C 
ATOM      7  C   UNL     1       0.468  -1.635   0.604  1.00  0.00     0.006 C 
ATOM      8  C   UNL     1       2.408  -0.028   0.320  1.00  0.00    -0.031 C 
ATOM      9  C   UNL     1       0.417   0.269   2.069  1.00  0.00     0.041 C 
ATOM     10  C   UNL     1       0.631  -2.117  -0.849  1.00  0.00     0.011 C 
ATOM     11  C   UNL     1       1.242  -2.584   1.559  1.00  0.00     0.015 C 
ATOM     12  C   UNL     1       2.778  -0.638  -1.041  1.00  0.00     0.025 C 
ATOM     13  C   UNL     1       3.273   0.658   1.083  1.00  0.00     0.050 C 
ATOM     14  C   UNL     1      -0.940  -0.456   2.204  1.00  0.00     0.010 C 
ATOM     15  C   UNL     1       2.096  -2.017  -1.301  1.00  0.00     0.009 C 
ATOM     16  C   UNL     1       4.335  -0.678  -1.304  1.00  0.00    -0.013 C 
ATOM     17  C   UNL     1       4.638   0.966   0.601  1.00  0.00     0.159 C 
ATOM     18  C   UNL     1       4.988   0.655  -0.842  1.00  0.00     0.070 C 
ATOM     19  C   UNL     1       4.656  -0.887  -2.811  1.00  0.00     0.042 C 
ATOM     20  C   UNL     1       5.015  -1.840  -0.530  1.00  0.00     0.013 C 
ATOM     21  O   UNL     1       5.434   1.526   1.353  1.00  0.00    -0.295 OA
ATOM     22  C   UNL     1       4.621   1.860  -1.729  1.00  0.00     0.047 C 
ATOM     23  C   UNL     1       4.293   0.314  -3.690  1.00  0.00     0.143 C 
ATOM     24 WAT  UNL     1       4.664   2.103   4.195  1.00  0.00     0.000 W 
ATOM     25 WAT  UNL     1       8.147   2.316   0.344  1.00  0.00     0.000 W 
ATOM     26  C   UNL     1       4.954   1.601  -3.197  1.00  0.00     0.143 C 
BRANCH   6  27
ATOM     27  O   UNL     1       0.224   0.636  -0.270  1.00  0.00    -0.385 OA
ATOM     28  H   UNL     1       0.067   0.085  -1.056  1.00  0.00     0.211 HD
ATOM     29 WAT  UNL     1       2.043   2.870  -1.109  1.00  0.00     0.000 W 
ATOM     30 WAT  UNL     1      -2.457   1.254   0.926  1.00  0.00     0.000 W 
ATOM     31 WAT  UNL     1      -0.256  -1.050  -2.671  1.00  0.00     0.000 W 
ENDBRANCH   6  27
BRANCH  23  32
ATOM     32  O   UNL     1       4.703   0.067  -5.033  1.00  0.00    -0.390 OA
ATOM     33  H   UNL     1       3.960  -0.362  -5.492  1.00  0.00     0.211 HD
ATOM     34 WAT  UNL     1       6.943  -1.927  -4.922  1.00  0.00     0.000 W 
ATOM     35 WAT  UNL     1       5.132   2.734  -6.336  1.00  0.00     0.000 W 
ATOM     36 WAT  UNL     1       2.432  -1.241  -6.435  1.00  0.00     0.000 W 
ENDBRANCH  23  32
BRANCH  26  37
ATOM     37  O   UNL     1       6.371   1.488  -3.343  1.00  0.00    -0.390 OA
ATOM     38  H   UNL     1       6.543   0.991  -4.161  1.00  0.00     0.211 HD
ATOM     39 WAT  UNL     1       7.368  -0.187  -1.062  1.00  0.00     0.000 W 
ATOM     40 WAT  UNL     1       7.444   4.261  -3.748  1.00  0.00     0.000 W 
ATOM     41 WAT  UNL     1       6.895  -0.031  -5.843  1.00  0.00     0.000 W 
ENDBRANCH  26  37
ENDBRANCH   3   5
BRANCH   3  42
ATOM     42  O   UNL     1      -3.144  -2.505   1.457  1.00  0.00    -0.387 OA
ATOM     43  H   UNL     1      -3.619  -3.345   1.563  1.00  0.00     0.211 HD
ATOM     44 WAT  UNL     1      -3.849  -1.440  -1.258  1.00  0.00     0.000 W 
ATOM     45 WAT  UNL     1      -3.712  -0.865   3.904  1.00  0.00     0.000 W 
ATOM     46 WAT  UNL     1      -4.598  -5.075   1.781  1.00  0.00     0.000 W 
ENDBRANCH   3  42
ENDBRANCH   2   3
BRANCH   2  47
ATOM     47  O   UNL     1      -2.706  -4.470  -0.000  1.00  0.00    -0.390 OA
ATOM     48  H   UNL     1      -2.893  -4.081  -0.873  1.00  0.00     0.211 HD
ATOM     49 WAT  UNL     1      -4.836  -3.500   1.877  1.00  0.00     0.000 W 
ATOM     50 WAT  UNL     1      -2.293  -7.412  -0.409  1.00  0.00     0.000 W 
ATOM     51 WAT  UNL     1      -3.277  -3.284  -2.666  1.00  0.00     0.000 W 
ENDBRANCH   2  47
ENDBRANCH   1   2
BRANCH   1  52
ATOM     52  C   UNL     1       0.092  -5.886  -0.067  1.00  0.00     0.037 C 
BRANCH  52  53
ATOM     53  C   UNL     1      -0.861  -6.569  -1.069  1.00  0.00     0.059 C 
ATOM     54  C   UNL     1      -0.048  -7.418  -2.053  1.00  0.00     0.042 C 
ATOM     55  C   UNL     1      -1.914  -7.438  -0.379  1.00  0.00     0.042 C 
BRANCH  53  56
ATOM     56  O   UNL     1      -1.532  -5.553  -1.817  1.00  0.00    -0.390 OA
ATOM     57  H   UNL     1      -2.356  -5.333  -1.350  1.00  0.00     0.211 HD
ATOM     58 WAT  UNL     1      -2.307  -6.762  -4.451  1.00  0.00     0.000 W 
ATOM     59 WAT  UNL     1       0.206  -3.109  -1.743  1.00  0.00     0.000 W 
ATOM     60 WAT  UNL     1      -4.050  -4.879  -0.389  1.00  0.00     0.000 W 
ENDBRANCH  53  56
ENDBRANCH  52  53
ENDBRANCH   1  52
TORSDOF 11
ENDMDL
MODEL 5
REMARK VINA RESULT:    -9.709      1.147      2.084
REMARK INTER + INTRA:         -15.888
REMARK INTER:                 -12.991
REMARK INTRA:                  -2.897
REMARK CONF_INDEPENDENT:        3.281
REMARK UNBOUND:                -2.897
REMARK SMILES CC(C)(O)CC[C@@H](O)[C@](C)(O)[C@H]1CC[C@@]2(O)C3=CC(=O)[C@@H]4C[C@@H](O)[C@@H](O)C[C@]4(C)[C@H]3CC[C@]12C
REMARK SMILES IDX 6 1 7 2 9 3 10 4 12 5 15 6 33 7 17 8 14 9 32 10 34 11 30 12
REMARK SMILES IDX 18 13 13 14 31 15 28 16 19 17 21 18 27 19 29 20 20 21 22 22
REMARK SMILES IDX 25 23 23 26 16 27 26 32 24 37 11 42 8 47 5 52 2 53 1 54 3 55
REMARK SMILES IDX 4 56
REMARK H PARENT 16 28 26 33 24 38 11 43 8 48 4 57
REMARK Flexibility Score: inf
ROOT
ATOM      1  C   UNL     1      -0.298  -5.349   0.284  1.00  0.00     0.038 C 
ENDROOT
BRANCH   1   2
ATOM      2  C   UNL     1      -1.529  -4.423   0.301  1.00  0.00     0.146 C 
BRANCH   2   3
ATOM      3  C   UNL     1      -1.623  -3.509   1.553  1.00  0.00     0.091 C 
ATOM      4  C   UNL     1      -0.832  -4.113   2.726  1.00  0.00     0.045 C 
BRANCH   3   5
ATOM      5  C   UNL     1      -1.130  -2.095   1.273  1.00  0.00     0.032 C 
ATOM      6  C   UNL     1       0.570  -0.463   0.881  1.00  0.00     0.092 C 
ATOM      7  C   UNL     1       0.273  -1.964   0.625  1.00  0.00     0.006 C 
ATOM      8  C   UNL     1       1.933  -0.068   0.353  1.00  0.00    -0.031 C 
ATOM      9  C   UNL     1       0.194  -0.305   2.361  1.00  0.00     0.041 C 
ATOM     10  C   UNL     1       0.284  -2.216  -0.893  1.00  0.00     0.011 C 
ATOM     11  C   UNL     1       1.291  -2.911   1.319  1.00  0.00     0.015 C 
ATOM     12  C   UNL     1       2.176  -0.426  -1.121  1.00  0.00     0.025 C 
ATOM     13  C   UNL     1       2.805   0.627   1.099  1.00  0.00     0.050 C 
ATOM     14  C   UNL     1      -1.026  -1.232   2.552  1.00  0.00     0.010 C 
ATOM     15  C   UNL     1       1.643  -1.842  -1.503  1.00  0.00     0.009 C 
ATOM     16  C   UNL     1       3.671  -0.202  -1.579  1.00  0.00    -0.013 C 
ATOM     17  C   UNL     1       4.036   1.194   0.504  1.00  0.00     0.159 C 
ATOM     18  C   UNL     1       4.210   1.137  -1.001  1.00  0.00     0.070 C 
ATOM     19  C   UNL     1       3.794  -0.156  -3.129  1.00  0.00     0.042 C 
ATOM     20  C   UNL     1       4.597  -1.346  -1.085  1.00  0.00     0.013 C 
ATOM     21  O   UNL     1       4.856   1.757   1.228  1.00  0.00    -0.295 OA
ATOM     22  C   UNL     1       3.569   2.384  -1.639  1.00  0.00     0.047 C 
ATOM     23  C   UNL     1       3.158   1.088  -3.759  1.00  0.00     0.143 C 
ATOM     24 WAT  UNL     1       4.438   1.825   4.199  1.00  0.00     0.000 W 
ATOM     25 WAT  UNL     1       7.272   3.064   0.023  1.00  0.00     0.000 W 
ATOM     26  C   UNL     1       3.717   2.379  -3.160  1.00  0.00     0.143 C 
BRANCH   6  27
ATOM     27  O   UNL     1      -0.380   0.344   0.150  1.00  0.00    -0.385 OA
ATOM     28  H   UNL     1      -1.174  -0.196  -0.004  1.00  0.00     0.211 HD
ATOM     29 WAT  UNL     1       0.831   0.921  -2.534  1.00  0.00     0.000 W 
ATOM     30 WAT  UNL     1      -1.187   2.606   1.949  1.00  0.00     0.000 W 
ATOM     31 WAT  UNL     1      -2.806  -1.309  -0.321  1.00  0.00     0.000 W 
ENDBRANCH   6  27
BRANCH  23  32
ATOM     32  O   UNL     1       3.399   1.087  -5.165  1.00  0.00    -0.390 OA
ATOM     33  H   UNL     1       2.913   0.334  -5.544  1.00  0.00     0.211 HD
ATOM     34 WAT  UNL     1       6.323   0.549  -5.565  1.00  0.00     0.000 W 
ATOM     35 WAT  UNL     1       2.167   3.587  -6.276  1.00  0.00     0.000 W 
ATOM     36 WAT  UNL     1       1.915  -1.213  -6.324  1.00  0.00     0.000 W 
ENDBRANCH  23  32
BRANCH  26  37
ATOM     37  O   UNL     1       5.100   2.495  -3.497  1.00  0.00    -0.390 OA
ATOM     38  H   UNL     1       5.250   1.972  -4.303  1.00  0.00     0.211 HD
ATOM     39 WAT  UNL     1       6.664   1.191  -1.293  1.00  0.00     0.000 W 
ATOM     40 WAT  UNL     1       5.603   5.369  -4.195  1.00  0.00     0.000 W 
ATOM     41 WAT  UNL     1       5.557   0.899  -5.962  1.00  0.00     0.000 W 
ENDBRANCH  26  37
ENDBRANCH   3   5
BRANCH   3  42
ATOM     42  O   UNL     1      -2.997  -3.439   1.954  1.00  0.00    -0.387 OA
ATOM     43  H   UNL     1      -3.312  -4.336   2.156  1.00  0.00     0.211 HD
ATOM     44 WAT  UNL     1      -4.552  -2.486  -0.427  1.00  0.00     0.000 W 
ATOM     45 WAT  UNL     1      -3.079  -1.885   4.519  1.00  0.00     0.000 W 
ATOM     46 WAT  UNL     1      -3.961  -6.181   2.573  1.00  0.00     0.000 W 
ENDBRANCH   3  42
ENDBRANCH   2   3
BRANCH   2  47
ATOM     47  O   UNL     1      -2.704  -5.234   0.211  1.00  0.00    -0.390 OA
ATOM     48  H   UNL     1      -3.472  -4.636   0.221  1.00  0.00     0.211 HD
ATOM     49 WAT  UNL     1      -2.834  -6.890   2.709  1.00  0.00     0.000 W 
ATOM     50 WAT  UNL     1      -2.657  -6.571  -2.474  1.00  0.00     0.000 W 
ATOM     51 WAT  UNL     1      -5.051  -3.409   0.242  1.00  0.00     0.000 W 
ENDBRANCH   2  47
ENDBRANCH   1   2
BRANCH   1  52
ATOM     52  C   UNL     1      -0.605  -6.705  -0.379  1.00  0.00     0.037 C 
BRANCH  52  53
ATOM     53  C   UNL     1      -1.028  -6.612  -1.860  1.00  0.00     0.059 C 
ATOM     54  C   UNL     1       0.132  -7.068  -2.753  1.00  0.00     0.042 C 
ATOM     55  C   UNL     1      -2.277  -7.440  -2.166  1.00  0.00     0.042 C 
BRANCH  53  56
ATOM     56  O   UNL     1      -1.304  -5.244  -2.164  1.00  0.00    -0.390 OA
ATOM     57  H   UNL     1      -2.224  -5.061  -1.905  1.00  0.00     0.211 HD
ATOM     58 WAT  UNL     1      -1.153  -4.954  -5.145  1.00  0.00     0.000 W 
ATOM     59 WAT  UNL     1       0.460  -3.573  -0.403  1.00  0.00     0.000 W 
ATOM     60 WAT  UNL     1      -4.114  -4.682  -1.372  1.00  0.00     0.000 W 
ENDBRANCH  53  56
ENDBRANCH  52  53
ENDBRANCH   1  52
TORSDOF 11
ENDMDL
MODEL 6
REMARK VINA RESULT:    -9.462      0.905      2.222
REMARK INTER + INTRA:         -15.990
REMARK INTER:                 -12.744
REMARK INTRA:                  -3.247
REMARK CONF_INDEPENDENT:        3.281
REMARK UNBOUND:                -3.247
REMARK SMILES CC(C)(O)CC[C@@H](O)[C@](C)(O)[C@H]1CC[C@@]2(O)C3=CC(=O)[C@@H]4C[C@@H](O)[C@@H](O)C[C@]4(C)[C@H]3CC[C@]12C
REMARK SMILES IDX 6 1 7 2 9 3 10 4 12 5 15 6 33 7 17 8 14 9 32 10 34 11 30 12
REMARK SMILES IDX 18 13 13 14 31 15 28 16 19 17 21 18 27 19 29 20 20 21 22 22
REMARK SMILES IDX 25 23 23 26 16 27 26 32 24 37 11 42 8 47 5 52 2 53 1 54 3 55
REMARK SMILES IDX 4 56
REMARK H PARENT 16 28 26 33 24 38 11 43 8 48 4 57
REMARK Flexibility Score: inf
ROOT
ATOM      1  C   UNL     1      -0.735  -5.868   0.485  1.00  0.00     0.038 C 
ENDROOT
BRANCH   1   2
ATOM      2  C   UNL     1      -1.369  -4.469   0.367  1.00  0.00     0.146 C 
BRANCH   2   3
ATOM      3  C   UNL     1      -1.465  -3.696   1.711  1.00  0.00     0.091 C 
ATOM      4  C   UNL     1      -0.662  -4.415   2.808  1.00  0.00     0.045 C 
BRANCH   3   5
ATOM      5  C   UNL     1      -0.988  -2.255   1.582  1.00  0.00     0.032 C 
ATOM      6  C   UNL     1       0.672  -0.580   1.199  1.00  0.00     0.092 C 
ATOM      7  C   UNL     1       0.308  -2.024   0.762  1.00  0.00     0.006 C 
ATOM      8  C   UNL     1       1.951  -0.106   0.543  1.00  0.00    -0.031 C 
ATOM      9  C   UNL     1       0.519  -0.654   2.725  1.00  0.00     0.041 C 
ATOM     10  C   UNL     1       0.092  -2.036  -0.761  1.00  0.00     0.011 C 
ATOM     11  C   UNL     1       1.396  -3.065   1.144  1.00  0.00     0.015 C 
ATOM     12  C   UNL     1       1.969  -0.230  -0.988  1.00  0.00     0.025 C 
ATOM     13  C   UNL     1       2.938   0.466   1.251  1.00  0.00     0.050 C 
ATOM     14  C   UNL     1      -0.680  -1.602   2.949  1.00  0.00     0.010 C 
ATOM     15  C   UNL     1       1.356  -1.571  -1.501  1.00  0.00     0.009 C 
ATOM     16  C   UNL     1       3.386   0.064  -1.621  1.00  0.00    -0.013 C 
ATOM     17  C   UNL     1       4.081   1.120   0.575  1.00  0.00     0.159 C 
ATOM     18  C   UNL     1       4.032   1.298  -0.930  1.00  0.00     0.070 C 
ATOM     19  C   UNL     1       3.283   0.351  -3.146  1.00  0.00     0.042 C 
ATOM     20  C   UNL     1       4.349  -1.142  -1.451  1.00  0.00     0.013 C 
ATOM     21  O   UNL     1       5.009   1.565   1.249  1.00  0.00    -0.295 OA
ATOM     22  C   UNL     1       3.332   2.628  -1.267  1.00  0.00     0.047 C 
ATOM     23  C   UNL     1       2.589   1.677  -3.477  1.00  0.00     0.143 C 
ATOM     24 WAT  UNL     1       5.031   1.169   4.223  1.00  0.00     0.000 W 
ATOM     25 WAT  UNL     1       7.251   3.047  -0.083  1.00  0.00     0.000 W 
ATOM     26  C   UNL     1       3.256   2.859  -2.775  1.00  0.00     0.143 C 
BRANCH   6  27
ATOM     27  O   UNL     1      -0.357   0.330   0.749  1.00  0.00    -0.385 OA
ATOM     28  H   UNL     1      -0.815  -0.086  -0.002  1.00  0.00     0.211 HD
ATOM     29 WAT  UNL     1       1.026   2.776  -0.303  1.00  0.00     0.000 W 
ATOM     30 WAT  UNL     1      -2.355   0.576   2.974  1.00  0.00     0.000 W 
ATOM     31 WAT  UNL     1      -1.755  -0.941  -1.547  1.00  0.00     0.000 W 
ENDBRANCH   6  27
BRANCH  23  32
ATOM     32  O   UNL     1       2.621   1.895  -4.886  1.00  0.00    -0.390 OA
ATOM     33  H   UNL     1       3.415   2.422  -5.082  1.00  0.00     0.211 HD
ATOM     34 WAT  UNL     1       0.243   3.588  -5.577  1.00  0.00     0.000 W 
ATOM     35 WAT  UNL     1       2.988  -0.782  -6.190  1.00  0.00     0.000 W 
ATOM     36 WAT  UNL     1       5.048   3.503  -5.484  1.00  0.00     0.000 W 
ENDBRANCH  23  32
BRANCH  26  37
ATOM     37  O   UNL     1       4.578   3.029  -3.290  1.00  0.00    -0.390 OA
ATOM     38  H   UNL     1       4.567   2.748  -4.221  1.00  0.00     0.211 HD
ATOM     39 WAT  UNL     1       6.359   1.120  -1.811  1.00  0.00     0.000 W 
ATOM     40 WAT  UNL     1       5.173   5.969  -3.256  1.00  0.00     0.000 W 
ATOM     41 WAT  UNL     1       4.545   2.172  -6.136  1.00  0.00     0.000 W 
ENDBRANCH  26  37
ENDBRANCH   3   5
BRANCH   3  42
ATOM     42  O   UNL     1      -2.838  -3.685   2.123  1.00  0.00    -0.387 OA
ATOM     43  H   UNL     1      -3.340  -4.300   1.564  1.00  0.00     0.211 HD
ATOM     44 WAT  UNL     1      -3.894  -0.934   1.558  1.00  0.00     0.000 W 
ATOM     45 WAT  UNL     1      -2.919  -4.778   4.916  1.00  0.00     0.000 W 
ATOM     46 WAT  UNL     1      -4.374  -5.567   0.413  1.00  0.00     0.000 W 
ENDBRANCH   3  42
ENDBRANCH   2   3
BRANCH   2  47
ATOM     47  O   UNL     1      -2.677  -4.614  -0.197  1.00  0.00    -0.390 OA
ATOM     48  H   UNL     1      -2.565  -4.853  -1.134  1.00  0.00     0.211 HD
ATOM     49 WAT  UNL     1      -3.983  -1.914  -0.118  1.00  0.00     0.000 W 
ATOM     50 WAT  UNL     1      -3.977  -6.949   1.165  1.00  0.00     0.000 W 
ATOM     51 WAT  UNL     1      -2.336  -5.344  -3.059  1.00  0.00     0.000 W 
ENDBRANCH   2  47
ENDBRANCH   1   2
BRANCH   1  52
ATOM     52  C   UNL     1      -1.435  -6.898  -0.422  1.00  0.00     0.037 C 
BRANCH  52  53
ATOM     53  C   UNL     1      -1.080  -6.779  -1.918  1.00  0.00     0.059 C 
ATOM     54  C   UNL     1       0.294  -7.410  -2.171  1.00  0.00     0.042 C 
ATOM     55  C   UNL     1      -2.127  -7.430  -2.823  1.00  0.00     0.042 C 
BRANCH  53  56
ATOM     56  O   UNL     1      -0.993  -5.392  -2.251  1.00  0.00    -0.390 OA
ATOM     57  H   UNL     1      -0.051  -5.152  -2.289  1.00  0.00     0.211 HD
ATOM     58 WAT  UNL     1      -2.201  -3.861   0.028  1.00  0.00     0.000 W 
ATOM     59 WAT  UNL     1      -2.098  -5.076  -5.023  1.00  0.00     0.000 W 
ATOM     60 WAT  UNL     1       1.886  -4.660  -2.368  1.00  0.00     0.000 W 
ENDBRANCH  53  56
ENDBRANCH  52  53
ENDBRANCH   1  52
TORSDOF 11
ENDMDL
MODEL 7
REMARK VINA RESULT:    -9.174      1.432      2.236
REMARK INTER + INTRA:         -16.230
REMARK INTER:                 -12.456
REMARK INTRA:                  -3.775
REMARK CONF_INDEPENDENT:        3.281
REMARK UNBOUND:                -3.775
REMARK SMILES CC(C)(O)CC[C@@H](O)[C@](C)(O)[C@H]1CC[C@@]2(O)C3=CC(=O)[C@@H]4C[C@@H](O)[C@@H](O)C[C@]4(C)[C@H]3CC[C@]12C
REMARK SMILES IDX 6 1 7 2 9 3 10 4 12 5 15 6 33 7 17 8 14 9 32 10 34 11 30 12
REMARK SMILES IDX 18 13 13 14 31 15 28 16 19 17 21 18 27 19 29 20 20 21 22 22
REMARK SMILES IDX 25 23 23 26 16 27 26 32 24 37 11 42 8 47 5 52 2 53 1 54 3 55
REMARK SMILES IDX 4 56
REMARK H PARENT 16 28 26 33 24 38 11 43 8 48 4 57
REMARK Flexibility Score: inf
ROOT
ATOM      1  C   UNL     1      -0.664  -5.338   0.930  1.00  0.00     0.038 C 
ENDROOT
BRANCH   1   2
ATOM      2  C   UNL     1      -1.474  -4.109   0.476  1.00  0.00     0.146 C 
BRANCH   2   3
ATOM      3  C   UNL     1      -1.686  -3.040   1.583  1.00  0.00     0.091 C 
ATOM      4  C   UNL     1      -1.176  -3.554   2.939  1.00  0.00     0.045 C 
BRANCH   3   5
ATOM      5  C   UNL     1      -1.010  -1.717   1.244  1.00  0.00     0.032 C 
ATOM      6  C   UNL     1       0.895  -0.332   0.850  1.00  0.00     0.092 C 
ATOM      7  C   UNL     1       0.429  -1.800   0.672  1.00  0.00     0.006 C 
ATOM      8  C   UNL     1       2.321  -0.139   0.379  1.00  0.00    -0.031 C 
ATOM      9  C   UNL     1       0.469  -0.028   2.294  1.00  0.00     0.041 C 
ATOM     10  C   UNL     1       0.484  -2.155  -0.825  1.00  0.00     0.011 C 
ATOM     11  C   UNL     1       1.287  -2.812   1.480  1.00  0.00     0.015 C 
ATOM     12  C   UNL     1       2.591  -0.624  -1.054  1.00  0.00     0.025 C 
ATOM     13  C   UNL     1       3.234   0.496   1.130  1.00  0.00     0.050 C 
ATOM     14  C   UNL     1      -0.865  -0.788   2.471  1.00  0.00     0.010 C 
ATOM     15  C   UNL     1       1.908  -1.989  -1.378  1.00  0.00     0.009 C 
ATOM     16  C   UNL     1       4.123  -0.612  -1.438  1.00  0.00    -0.013 C 
ATOM     17  C   UNL     1       4.553   0.870   0.572  1.00  0.00     0.159 C 
ATOM     18  C   UNL     1       4.793   0.689  -0.914  1.00  0.00     0.070 C 
ATOM     19  C   UNL     1       4.328  -0.687  -2.978  1.00  0.00     0.042 C 
ATOM     20  C   UNL     1       4.876  -1.822  -0.821  1.00  0.00     0.013 C 
ATOM     21  O   UNL     1       5.399   1.379   1.306  1.00  0.00    -0.295 OA
ATOM     22  C   UNL     1       4.343   1.958  -1.664  1.00  0.00     0.047 C 
ATOM     23  C   UNL     1       3.882   0.577  -3.720  1.00  0.00     0.143 C 
ATOM     24 WAT  UNL     1       4.846   1.700   4.238  1.00  0.00     0.000 W 
ATOM     25 WAT  UNL     1       8.014   2.303   0.164  1.00  0.00     0.000 W 
ATOM     26  C   UNL     1       4.565   1.830  -3.170  1.00  0.00     0.143 C 
BRANCH   6  27
ATOM     27  O   UNL     1       0.089   0.532   0.017  1.00  0.00    -0.385 OA
ATOM     28  H   UNL     1       0.257   0.292  -0.911  1.00  0.00     0.211 HD
ATOM     29 WAT  UNL     1       1.105   3.329   0.402  1.00  0.00     0.000 W 
ATOM     30 WAT  UNL     1      -2.783  -0.114   0.591  1.00  0.00     0.000 W 
ATOM     31 WAT  UNL     1       0.602  -0.203  -2.818  1.00  0.00     0.000 W 
ENDBRANCH   6  27
BRANCH  23  32
ATOM     32  O   UNL     1       4.190   0.452  -5.106  1.00  0.00    -0.390 OA
ATOM     33  H   UNL     1       4.832   1.149  -5.328  1.00  0.00     0.211 HD
ATOM     34 WAT  UNL     1       1.676   1.047  -6.631  1.00  0.00     0.000 W 
ATOM     35 WAT  UNL     1       5.579  -2.182  -5.472  1.00  0.00     0.000 W 
ATOM     36 WAT  UNL     1       6.152   2.581  -5.782  1.00  0.00     0.000 W 
ENDBRANCH  23  32
BRANCH  26  37
ATOM     37  O   UNL     1       5.967   1.757  -3.434  1.00  0.00    -0.390 OA
ATOM     38  H   UNL     1       6.079   1.359  -4.314  1.00  0.00     0.211 HD
ATOM     39 WAT  UNL     1       7.146  -0.153  -1.442  1.00  0.00     0.000 W 
ATOM     40 WAT  UNL     1       6.987   4.574  -3.595  1.00  0.00     0.000 W 
ATOM     41 WAT  UNL     1       6.310   0.543  -6.124  1.00  0.00     0.000 W 
ENDBRANCH  26  37
ENDBRANCH   3   5
BRANCH   3  42
ATOM     42  O   UNL     1      -3.095  -2.808   1.715  1.00  0.00    -0.387 OA
ATOM     43  H   UNL     1      -3.467  -2.620   0.838  1.00  0.00     0.211 HD
ATOM     44 WAT  UNL     1      -3.418  -0.315   3.352  1.00  0.00     0.000 W 
ATOM     45 WAT  UNL     1      -4.318  -5.384   2.649  1.00  0.00     0.000 W 
ATOM     46 WAT  UNL     1      -4.234  -2.233  -0.968  1.00  0.00     0.000 W 
ENDBRANCH   3  42
ENDBRANCH   2   3
BRANCH   2  47
ATOM     47  O   UNL     1      -2.744  -4.560  -0.006  1.00  0.00    -0.390 OA
ATOM     48  H   UNL     1      -3.291  -4.770   0.772  1.00  0.00     0.211 HD
ATOM     49 WAT  UNL     1      -2.273  -7.129  -1.482  1.00  0.00     0.000 W 
ATOM     50 WAT  UNL     1      -4.039  -2.242  -1.402  1.00  0.00     0.000 W 
ATOM     51 WAT  UNL     1      -4.417  -5.202   2.367  1.00  0.00     0.000 W 
ENDBRANCH   2  47
ENDBRANCH   1   2
BRANCH   1  52
ATOM     52  C   UNL     1       0.052  -6.026  -0.247  1.00  0.00     0.037 C 
BRANCH  52  53
ATOM     53  C   UNL     1      -0.892  -6.562  -1.344  1.00  0.00     0.059 C 
ATOM     54  C   UNL     1      -0.081  -7.354  -2.376  1.00  0.00     0.042 C 
ATOM     55  C   UNL     1      -2.011  -7.438  -0.778  1.00  0.00     0.042 C 
BRANCH  53  56
ATOM     56  O   UNL     1      -1.483  -5.447  -2.013  1.00  0.00    -0.390 OA
ATOM     57  H   UNL     1      -2.392  -5.348  -1.683  1.00  0.00     0.211 HD
ATOM     58 WAT  UNL     1      -1.675  -6.163  -4.920  1.00  0.00     0.000 W 
ATOM     59 WAT  UNL     1       0.036  -3.001  -1.169  1.00  0.00     0.000 W 
ATOM     60 WAT  UNL     1      -4.262  -5.143  -1.002  1.00  0.00     0.000 W 
ENDBRANCH  53  56
ENDBRANCH  52  53
ENDBRANCH   1  52
TORSDOF 11
ENDMDL
MODEL 8
REMARK VINA RESULT:    -8.362      1.709      2.613
REMARK INTER + INTRA:         -15.868
REMARK INTER:                 -11.644
REMARK INTRA:                  -4.225
REMARK CONF_INDEPENDENT:        3.281
REMARK UNBOUND:                -4.225
REMARK SMILES CC(C)(O)CC[C@@H](O)[C@](C)(O)[C@H]1CC[C@@]2(O)C3=CC(=O)[C@@H]4C[C@@H](O)[C@@H](O)C[C@]4(C)[C@H]3CC[C@]12C
REMARK SMILES IDX 6 1 7 2 9 3 10 4 12 5 15 6 33 7 17 8 14 9 32 10 34 11 30 12
REMARK SMILES IDX 18 13 13 14 31 15 28 16 19 17 21 18 27 19 29 20 20 21 22 22
REMARK SMILES IDX 25 23 23 26 16 27 26 32 24 37 11 42 8 47 5 52 2 53 1 54 3 55
REMARK SMILES IDX 4 56
REMARK H PARENT 16 28 26 33 24 38 11 43 8 48 4 57
REMARK Flexibility Score: inf
ROOT
ATOM      1  C   UNL     1      -0.434  -5.807   0.134  1.00  0.00     0.038 C 
ENDROOT
BRANCH   1   2
ATOM      2  C   UNL     1      -0.178  -4.307  -0.112  1.00  0.00     0.146 C 
BRANCH   2   3
ATOM      3  C   UNL     1      -1.175  -3.363   0.614  1.00  0.00     0.091 C 
ATOM      4  C   UNL     1      -1.329  -3.767   2.090  1.00  0.00     0.045 C 
BRANCH   3   5
ATOM      5  C   UNL     1      -0.757  -1.901   0.520  1.00  0.00     0.032 C 
ATOM      6  C   UNL     1       0.808  -0.109   0.732  1.00  0.00     0.092 C 
ATOM      7  C   UNL     1       0.763  -1.621   0.390  1.00  0.00     0.006 C 
ATOM      8  C   UNL     1       2.224   0.427   0.701  1.00  0.00    -0.031 C 
ATOM      9  C   UNL     1      -0.062  -0.036   1.996  1.00  0.00     0.041 C 
ATOM     10  C   UNL     1       1.312  -1.819  -1.034  1.00  0.00     0.011 C 
ATOM     11  C   UNL     1       1.572  -2.494   1.388  1.00  0.00     0.015 C 
ATOM     12  C   UNL     1       2.986   0.142  -0.602  1.00  0.00     0.025 C 
ATOM     13  C   UNL     1       2.719   1.173   1.700  1.00  0.00     0.050 C 
ATOM     14  C   UNL     1      -1.178  -1.076   1.758  1.00  0.00     0.010 C 
ATOM     15  C   UNL     1       2.755  -1.303  -1.144  1.00  0.00     0.009 C 
ATOM     16  C   UNL     1       4.518   0.518  -0.523  1.00  0.00    -0.013 C 
ATOM     17  C   UNL     1       4.017   1.870   1.561  1.00  0.00     0.159 C 
ATOM     18  C   UNL     1       4.696   1.880   0.205  1.00  0.00     0.070 C 
ATOM     19  C   UNL     1       5.155   0.627  -1.938  1.00  0.00     0.042 C 
ATOM     20  C   UNL     1       5.329  -0.553   0.257  1.00  0.00     0.013 C 
ATOM     21  O   UNL     1       4.483   2.480   2.522  1.00  0.00    -0.295 OA
ATOM     22  C   UNL     1       4.192   3.084  -0.612  1.00  0.00     0.047 C 
ATOM     23  C   UNL     1       4.653   1.828  -2.746  1.00  0.00     0.143 C 
ATOM     24 WAT  UNL     1       3.078   2.409   5.172  1.00  0.00     0.000 W 
ATOM     25 WAT  UNL     1       7.025   4.043   2.214  1.00  0.00     0.000 W 
ATOM     26  C   UNL     1       4.846   3.144  -1.991  1.00  0.00     0.143 C 
BRANCH   6  27
ATOM     27  O   UNL     1       0.088   0.633  -0.279  1.00  0.00    -0.385 OA
ATOM     28  H   UNL     1       0.230   0.188  -1.132  1.00  0.00     0.211 HD
ATOM     29 WAT  UNL     1       1.372   3.338  -0.470  1.00  0.00     0.000 W 
ATOM     30 WAT  UNL     1      -2.832   0.400   0.365  1.00  0.00     0.000 W 
ATOM     31 WAT  UNL     1       0.522  -0.728  -2.886  1.00  0.00     0.000 W 
ENDBRANCH   6  27
BRANCH  23  32
ATOM     32  O   UNL     1       5.355   1.897  -3.986  1.00  0.00    -0.390 OA
ATOM     33  H   UNL     1       5.384   0.998  -4.356  1.00  0.00     0.211 HD
ATOM     34 WAT  UNL     1       8.180   2.690  -3.363  1.00  0.00     0.000 W 
ATOM     35 WAT  UNL     1       3.702   3.570  -5.849  1.00  0.00     0.000 W 
ATOM     36 WAT  UNL     1       5.443  -0.850  -5.117  1.00  0.00     0.000 W 
ENDBRANCH  23  32
BRANCH  26  37
ATOM     37  O   UNL     1       6.244   3.397  -1.837  1.00  0.00    -0.390 OA
ATOM     38  H   UNL     1       6.713   2.865  -2.501  1.00  0.00     0.211 HD
ATOM     39 WAT  UNL     1       7.042   2.352   0.860  1.00  0.00     0.000 W 
ATOM     40 WAT  UNL     1       6.702   6.281  -2.523  1.00  0.00     0.000 W 
ATOM     41 WAT  UNL     1       7.679   1.771  -3.869  1.00  0.00     0.000 W 
ENDBRANCH  26  37
ENDBRANCH   3   5
BRANCH   3  42
ATOM     42  O   UNL     1      -2.460  -3.508  -0.005  1.00  0.00    -0.387 OA
ATOM     43  H   UNL     1      -2.337  -3.821  -0.916  1.00  0.00     0.211 HD
ATOM     44 WAT  UNL     1      -3.658  -0.763  -0.181  1.00  0.00     0.000 W 
ATOM     45 WAT  UNL     1      -3.902  -5.681   1.478  1.00  0.00     0.000 W 
ATOM     46 WAT  UNL     1      -2.084  -4.466  -2.792  1.00  0.00     0.000 W 
ENDBRANCH   3  42
ENDBRANCH   2   3
BRANCH   2  47
ATOM     47  O   UNL     1      -0.231  -4.067  -1.522  1.00  0.00    -0.390 OA
ATOM     48  H   UNL     1      -1.029  -3.536  -1.697  1.00  0.00     0.211 HD
ATOM     49 WAT  UNL     1      -0.622  -6.723  -2.861  1.00  0.00     0.000 W 
ATOM     50 WAT  UNL     1       2.138  -2.367  -2.223  1.00  0.00     0.000 W 
ATOM     51 WAT  UNL     1      -2.665  -2.445  -2.057  1.00  0.00     0.000 W 
ENDBRANCH   2  47
ENDBRANCH   1   2
BRANCH   1  52
ATOM     52  C   UNL     1      -1.728  -6.291  -0.547  1.00  0.00     0.037 C 
BRANCH  52  53
ATOM     53  C   UNL     1      -1.644  -6.389  -2.084  1.00  0.00     0.059 C 
ATOM     54  C   UNL     1      -0.203  -6.706  -2.500  1.00  0.00     0.042 C 
ATOM     55  C   UNL     1      -2.596  -7.440  -2.658  1.00  0.00     0.042 C 
BRANCH  53  56
ATOM     56  O   UNL     1      -1.989  -5.116  -2.635  1.00  0.00    -0.390 OA
ATOM     57  H   UNL     1      -2.353  -4.569  -1.917  1.00  0.00     0.211 HD
ATOM     58 WAT  UNL     1      -4.203  -5.577  -4.604  1.00  0.00     0.000 W 
ATOM     59 WAT  UNL     1       0.565  -3.817  -3.526  1.00  0.00     0.000 W 
ATOM     60 WAT  UNL     1      -3.101  -3.444  -0.443  1.00  0.00     0.000 W 
ENDBRANCH  53  56
ENDBRANCH  52  53
ENDBRANCH   1  52
TORSDOF 11
ENDMDL
MODEL 9
REMARK VINA RESULT:    -7.930      1.713      3.096
REMARK INTER + INTRA:         -15.947
REMARK INTER:                 -11.212
REMARK INTRA:                  -4.736
REMARK CONF_INDEPENDENT:        3.281
REMARK UNBOUND:                -4.736
REMARK SMILES CC(C)(O)CC[C@@H](O)[C@](C)(O)[C@H]1CC[C@@]2(O)C3=CC(=O)[C@@H]4C[C@@H](O)[C@@H](O)C[C@]4(C)[C@H]3CC[C@]12C
REMARK SMILES IDX 6 1 7 2 9 3 10 4 12 5 15 6 33 7 17 8 14 9 32 10 34 11 30 12
REMARK SMILES IDX 18 13 13 14 31 15 28 16 19 17 21 18 27 19 29 20 20 21 22 22
REMARK SMILES IDX 25 23 23 26 16 27 26 32 24 37 11 42 8 47 5 52 2 53 1 54 3 55
REMARK SMILES IDX 4 56
REMARK H PARENT 16 28 26 33 24 38 11 43 8 48 4 57
REMARK Flexibility Score: inf
ROOT
ATOM      1  C   UNL     1      -0.253  -5.767  -0.235  1.00  0.00     0.038 C 
ENDROOT
BRANCH   1   2
ATOM      2  C   UNL     1      -0.080  -4.255  -0.474  1.00  0.00     0.146 C 
BRANCH   2   3
ATOM      3  C   UNL     1      -1.098  -3.368   0.294  1.00  0.00     0.091 C 
ATOM      4  C   UNL     1      -1.267  -3.862   1.740  1.00  0.00     0.045 C 
BRANCH   3   5
ATOM      5  C   UNL     1      -0.696  -1.898   0.294  1.00  0.00     0.032 C 
ATOM      6  C   UNL     1       0.856  -0.108   0.604  1.00  0.00     0.092 C 
ATOM      7  C   UNL     1       0.819  -1.593   0.157  1.00  0.00     0.006 C 
ATOM      8  C   UNL     1       2.265   0.444   0.585  1.00  0.00    -0.031 C 
ATOM      9  C   UNL     1       0.009  -0.133   1.884  1.00  0.00     0.041 C 
ATOM     10  C   UNL     1       1.345  -1.686  -1.286  1.00  0.00     0.011 C 
ATOM     11  C   UNL     1       1.655  -2.525   1.078  1.00  0.00     0.015 C 
ATOM     12  C   UNL     1       3.007   0.259  -0.748  1.00  0.00     0.025 C 
ATOM     13  C   UNL     1       2.771   1.124   1.626  1.00  0.00     0.050 C 
ATOM     14  C   UNL     1      -1.102  -1.166   1.594  1.00  0.00     0.010 C 
ATOM     15  C   UNL     1       2.780  -1.147  -1.385  1.00  0.00     0.009 C 
ATOM     16  C   UNL     1       4.536   0.645  -0.669  1.00  0.00    -0.013 C 
ATOM     17  C   UNL     1       4.060   1.843   1.513  1.00  0.00     0.159 C 
ATOM     18  C   UNL     1       4.714   1.955   0.149  1.00  0.00     0.070 C 
ATOM     19  C   UNL     1       5.147   0.859  -2.083  1.00  0.00     0.042 C 
ATOM     20  C   UNL     1       5.371  -0.469   0.020  1.00  0.00     0.013 C 
ATOM     21  O   UNL     1       4.538   2.390   2.505  1.00  0.00    -0.295 OA
ATOM     22  C   UNL     1       4.183   3.207  -0.573  1.00  0.00     0.047 C 
ATOM     23  C   UNL     1       4.618   2.108  -2.797  1.00  0.00     0.143 C 
ATOM     24 WAT  UNL     1       3.182   2.119   5.168  1.00  0.00     0.000 W 
ATOM     25 WAT  UNL     1       7.059   3.998   2.263  1.00  0.00     0.000 W 
ATOM     26  C   UNL     1       4.812   3.370  -1.956  1.00  0.00     0.143 C 
BRANCH   6  27
ATOM     27  O   UNL     1       0.111   0.694  -0.340  1.00  0.00    -0.385 OA
ATOM     28  H   UNL     1       0.434   1.610  -0.272  1.00  0.00     0.211 HD
ATOM     29 WAT  UNL     1      -2.749   0.697   0.567  1.00  0.00     0.000 W 
ATOM     30 WAT  UNL     1       0.814  -0.288  -3.086  1.00  0.00     0.000 W 
ATOM     31 WAT  UNL     1       1.098   3.491  -0.131  1.00  0.00     0.000 W 
ENDBRANCH   6  27
BRANCH  23  32
ATOM     32  O   UNL     1       5.297   2.271  -4.041  1.00  0.00    -0.390 OA
ATOM     33  H   UNL     1       5.910   3.020  -3.943  1.00  0.00     0.211 HD
ATOM     34 WAT  UNL     1       3.241   3.069  -6.075  1.00  0.00     0.000 W 
ATOM     35 WAT  UNL     1       6.960  -0.188  -4.473  1.00  0.00     0.000 W 
ATOM     36 WAT  UNL     1       7.171   4.559  -3.743  1.00  0.00     0.000 W 
ENDBRANCH  23  32
BRANCH  26  37
ATOM     37  O   UNL     1       6.210   3.627  -1.808  1.00  0.00    -0.390 OA
ATOM     38  H   UNL     1       6.682   3.046  -2.428  1.00  0.00     0.211 HD
ATOM     39 WAT  UNL     1       6.981   2.776   0.964  1.00  0.00     0.000 W 
ATOM     40 WAT  UNL     1       6.689   6.452  -2.698  1.00  0.00     0.000 W 
ATOM     41 WAT  UNL     1       7.652   1.852  -3.705  1.00  0.00     0.000 W 
ENDBRANCH  26  37
ENDBRANCH   3   5
BRANCH   3  42
ATOM     42  O   UNL     1      -2.372  -3.489  -0.352  1.00  0.00    -0.387 OA
ATOM     43  H   UNL     1      -2.251  -3.933  -1.207  1.00  0.00     0.211 HD
ATOM     44 WAT  UNL     1      -3.318  -0.704  -0.943  1.00  0.00     0.000 W 
ATOM     45 WAT  UNL     1      -4.041  -5.310   1.350  1.00  0.00     0.000 W 
ATOM     46 WAT  UNL     1      -2.001  -4.848  -2.968  1.00  0.00     0.000 W 
ENDBRANCH   3  42
ENDBRANCH   2   3
BRANCH   2  47
ATOM     47  O   UNL     1      -0.190  -4.005  -1.879  1.00  0.00    -0.390 OA
ATOM     48  H   UNL     1      -0.971  -3.440  -2.013  1.00  0.00     0.211 HD
ATOM     49 WAT  UNL     1      -0.758  -6.635  -3.206  1.00  0.00     0.000 W 
ATOM     50 WAT  UNL     1       2.214  -2.405  -2.687  1.00  0.00     0.000 W 
ATOM     51 WAT  UNL     1      -2.574  -2.278  -2.290  1.00  0.00     0.000 W 
ENDBRANCH   2  47
ENDBRANCH   1   2
BRANCH   1  52
ATOM     52  C   UNL     1      -1.593  -6.289  -0.787  1.00  0.00     0.037 C 
BRANCH  52  53
ATOM     53  C   UNL     1      -1.645  -6.423  -2.323  1.00  0.00     0.059 C 
ATOM     54  C   UNL     1      -0.265  -6.836  -2.848  1.00  0.00     0.042 C 
ATOM     55  C   UNL     1      -2.701  -7.426  -2.790  1.00  0.00     0.042 C 
BRANCH  53  56
ATOM     56  O   UNL     1      -1.959  -5.143  -2.876  1.00  0.00    -0.390 OA
ATOM     57  H   UNL     1      -1.122  -4.697  -3.091  1.00  0.00     0.211 HD
ATOM     58 WAT  UNL     1      -3.277  -3.544  -0.706  1.00  0.00     0.000 W 
ATOM     59 WAT  UNL     1      -3.395  -5.627  -5.465  1.00  0.00     0.000 W 
ATOM     60 WAT  UNL     1       0.599  -3.780  -3.536  1.00  0.00     0.000 W 
ENDBRANCH  53  56
ENDBRANCH  52  53
ENDBRANCH   1  52
TORSDOF 11
ENDMDL
