REMARK VINA RESULT:      -7.8      1.940      2.389
REMARK  11 active torsions:
REMARK  status: ('A' for Active; 'I' for Inactive)
REMARK    1  A    between atoms: O_2  and  C_16 
REMARK    2  A    between atoms: O_2  and  C_18 
REMARK    3  A    between atoms: O_3  and  C_12 
REMARK    4  A    between atoms: O_4  and  C_13 
REMARK    5  A    between atoms: O_5  and  C_14 
REMARK    6  A    between atoms: O_6  and  C_17 
REMARK    7  A    between atoms: O_8  and  C_23 
REMARK    8  A    between atoms: O_10  and  C_30 
REMARK    9  A    between atoms: O_11  and  C_32 
REMARK   10  A    between atoms: C_15  and  C_17 
REMARK   11  A    between atoms: C_25  and  C_27 
ROOT
HETATM    1  O   UNK     0     185.741 182.996 174.410  0.00  0.00    -0.348 OA
HETATM    2  C   UNK     0     184.520 185.555 174.873  0.00  0.00     0.183 C 
HETATM    3  C   UNK     0     185.954 185.239 175.301  0.00  0.00     0.180 C 
HETATM    4  C   UNK     0     183.698 184.275 174.709  0.00  0.00     0.205 C 
HETATM    5  C   UNK     0     186.565 184.163 174.402  0.00  0.00     0.179 C 
HETATM    6  C   UNK     0     184.444 183.239 173.868  0.00  0.00     0.298 C 
ENDROOT
BRANCH   5   7
HETATM    7  C   UNK     0     187.953 183.749 174.881  0.00  0.00     0.198 C 
BRANCH   7   8
HETATM    8  O   UNK     0     188.066 184.063 176.257  0.00  0.00    -0.398 OA
HETATM    9  H   UNK     0     187.855 183.259 176.762  0.00  0.00     0.209 HD
ENDBRANCH   7   8
ENDBRANCH   5   7
BRANCH   6  10
HETATM   10  O   UNK     0     183.683 182.032 173.881  0.00  0.00    -0.318 OA
BRANCH  10  11
HETATM   11  C   UNK     0     183.054 181.695 172.719  0.00  0.00     0.077 A 
HETATM   12  C   UNK     0     181.766 181.157 172.755  0.00  0.00     0.075 A 
HETATM   13  C   UNK     0     181.126 180.813 171.566  0.00  0.00     0.095 A 
HETATM   14  O   UNK     0     179.861 180.289 171.664  0.00  0.00    -0.309 OA
HETATM   15  C   UNK     0     181.772 181.004 170.345  0.00  0.00     0.081 A 
HETATM   16  C   UNK     0     179.198 179.942 170.497  0.00  0.00     0.090 A 
HETATM   17  C   UNK     0     179.715 180.073 169.266  0.00  0.00     0.094 A 
HETATM   18  C   UNK     0     181.074 180.629 169.106  0.00  0.00     0.190 A 
HETATM   19  O   UNK     0     181.582 180.767 168.002  0.00  0.00    -0.287 OA
HETATM   20  C   UNK     0     183.061 181.541 170.305  0.00  0.00     0.085 A 
HETATM   21  C   UNK     0     183.699 181.886 171.497  0.00  0.00     0.074 A 
BRANCH  16  22
HETATM   22  C   UNK     0     177.848 179.384 170.718  0.00  0.00     0.001 A 
HETATM   23  C   UNK     0     176.914 179.376 169.679  0.00  0.00     0.053 A 
HETATM   24  C   UNK     0     175.640 178.847 169.888  0.00  0.00     0.099 A 
HETATM   25  C   UNK     0     175.296 178.327 171.135  0.00  0.00     0.098 A 
HETATM   26  C   UNK     0     176.227 178.333 172.174  0.00  0.00     0.040 A 
HETATM   27  C   UNK     0     177.501 178.861 171.967  0.00  0.00     0.017 A 
BRANCH  24  28
HETATM   28  O   UNK     0     174.737 178.849 168.867  0.00  0.00    -0.358 OA
HETATM   29  H   UNK     0     174.586 177.928 168.592  0.00  0.00     0.217 HD
ENDBRANCH  24  28
BRANCH  25  30
HETATM   30  O   UNK     0     174.055 177.808 171.351  0.00  0.00    -0.358 OA
HETATM   31  H   UNK     0     173.445 178.152 170.676  0.00  0.00     0.217 HD
ENDBRANCH  25  30
ENDBRANCH  16  22
BRANCH  20  32
HETATM   32  O   UNK     0     183.733 181.746 169.139  0.00  0.00    -0.360 OA
HETATM   33  H   UNK     0     184.089 182.647 169.104  0.00  0.00     0.217 HD
ENDBRANCH  20  32
ENDBRANCH  10  11
ENDBRANCH   6  10
BRANCH   3  34
HETATM   34  O   UNK     0     186.741 186.426 175.219  0.00  0.00    -0.390 OA
HETATM   35  H   UNK     0     187.625 186.177 174.899  0.00  0.00     0.210 HD
ENDBRANCH   3  34
BRANCH   4  36
HETATM   36  O   UNK     0     182.469 184.584 174.053  0.00  0.00    -0.388 OA
HETATM   37  H   UNK     0     182.132 183.767 173.646  0.00  0.00     0.210 HD
ENDBRANCH   4  36
BRANCH   2  38
HETATM   38  O   UNK     0     183.927 186.375 175.882  0.00  0.00    -0.390 OA
HETATM   39  H   UNK     0     183.101 185.942 176.160  0.00  0.00     0.210 HD
ENDBRANCH   2  38
TORSDOF 11
