REMARK  11 active torsions:
REMARK  status: ('A' for Active; 'I' for Inactive)
REMARK    1  A    between atoms: C_13  and  O_12 
REMARK    2  A    between atoms: C_15  and  O_33 
REMARK    3  A    between atoms: C_19  and  C_20 
REMARK    4  A    between atoms: C_23  and  O_27 
REMARK    5  A    between atoms: C_24  and  O_25 
REMARK    6  A    between atoms: O_12  and  C_2 
REMARK    7  A    between atoms: C_3  and  O_10 
REMARK    8  A    between atoms: C_4  and  O_8 
REMARK    9  A    between atoms: C_5  and  O_6 
REMARK   10  A    between atoms: C_36  and  C_37 
REMARK   11  A    between atoms: C_37  and  O_38 
ROOT
ATOM      1  C   LIG     1      -1.637   1.255   1.027  0.00  0.00     0.131 A 
ATOM      2  C   LIG     1      -1.537   2.582   0.609  0.00  0.00     0.092 A 
ATOM      3  C   LIG     1      -0.325   3.075   0.124  0.00  0.00     0.135 A 
ATOM      4  C   LIG     1       0.786   2.231   0.060  0.00  0.00     0.105 A 
ATOM      5  C   LIG     1       2.077   2.722  -0.445  0.00  0.00     0.197 A 
ATOM      6  C   LIG     1       3.183   1.743  -0.470  0.00  0.00     0.098 A 
ATOM      7  C   LIG     1       2.961   0.489  -0.046  0.00  0.00     0.139 A 
ATOM      8  O   LIG     1       1.745   0.031   0.437  0.00  0.00    -0.454 OA
ATOM      9  O   LIG     1       2.235   3.874  -0.824  0.00  0.00    -0.287 OA
ATOM     10  C   LIG     1       0.687   0.904   0.477  0.00  0.00     0.146 A 
ATOM     11  C   LIG     1      -0.525   0.414   0.962  0.00  0.00     0.093 A 
ENDROOT
BRANCH   1  12
ATOM     12  O   LIG     1      -2.824   0.778   1.501  0.00  0.00    -0.461 OA
BRANCH  12  13
ATOM     13  C   LIG     1      -3.400  -0.318   0.792  0.00  0.00     0.339 C 
ATOM     14  C   LIG     1      -4.715  -0.684   1.481  0.00  0.00     0.214 C 
ATOM     15  C   LIG     1      -5.475  -1.754   0.696  0.00  0.00     0.180 C 
ATOM     16  C   LIG     1      -5.564  -1.394  -0.787  0.00  0.00     0.177 C 
ATOM     17  C   LIG     1      -4.188  -1.012  -1.337  0.00  0.00     0.179 C 
ATOM     18  O   LIG     1      -3.633   0.054  -0.564  0.00  0.00    -0.331 OA
BRANCH  14  19
ATOM     19  O   LIG     1      -4.415  -1.178   2.786  0.00  0.00    -0.383 OA
ATOM     20  H   LIG     1      -3.859  -1.970   2.688  0.00  0.00     0.210 HD
ENDBRANCH  14  19
BRANCH  15  21
ATOM     21  O   LIG     1      -6.805  -1.863   1.206  0.00  0.00    -0.386 OA
ATOM     22  H   LIG     1      -7.264  -2.539   0.678  0.00  0.00     0.210 HD
ENDBRANCH  15  21
BRANCH  16  23
ATOM     23  O   LIG     1      -6.069  -2.511  -1.514  0.00  0.00    -0.386 OA
ATOM     24  H   LIG     1      -5.441  -3.246  -1.409  0.00  0.00     0.210 HD
ENDBRANCH  16  23
BRANCH  17  25
ATOM     25  C   LIG     1      -4.271  -0.536  -2.784  0.00  0.00     0.190 C 
BRANCH  25  26
ATOM     26  O   LIG     1      -2.969  -0.191  -3.220  0.00  0.00    -0.392 OA
ATOM     27  H   LIG     1      -2.629   0.496  -2.621  0.00  0.00     0.210 HD
ENDBRANCH  25  26
ENDBRANCH  17  25
ENDBRANCH  12  13
ENDBRANCH   1  12
BRANCH   3  28
ATOM     28  O   LIG     1      -0.279   4.378  -0.271  0.00  0.00    -0.506 OA
ATOM     29  H   LIG     1       0.607   4.606  -0.590  0.00  0.00     0.292 HD
ENDBRANCH   3  28
BRANCH   7  30
ATOM     30  C   LIG     1       4.031  -0.530  -0.040  0.00  0.00     0.021 A 
ATOM     31  C   LIG     1       3.715  -1.879  -0.213  0.00  0.00     0.015 A 
ATOM     32  C   LIG     1       4.725  -2.841  -0.206  0.00  0.00     0.050 A 
ATOM     33  C   LIG     1       6.054  -2.456  -0.027  0.00  0.00     0.158 A 
ATOM     34  C   LIG     1       6.372  -1.109   0.147  0.00  0.00     0.159 A 
ATOM     35  C   LIG     1       5.362  -0.147   0.140  0.00  0.00     0.060 A 
BRANCH  33  36
ATOM     36  O   LIG     1       7.031  -3.405  -0.021  0.00  0.00    -0.503 OA
ATOM     37  H   LIG     1       6.625  -4.279  -0.154  0.00  0.00     0.292 HD
ENDBRANCH  33  36
BRANCH  34  38
ATOM     38  O   LIG     1       7.667  -0.722   0.321  0.00  0.00    -0.503 OA
ATOM     39  H   LIG     1       8.229  -1.515   0.298  0.00  0.00     0.292 HD
ENDBRANCH  34  38
ENDBRANCH   7  30
TORSDOF 11
