MODEL 1
REMARK VINA RESULT:      -7.6      0.000      0.000
REMARK  Name = 5280805
REMARK                            x       y       z     vdW  Elec       q    Type
REMARK                         _______ _______ _______ _____ _____    ______ ____
ROOT
ATOM      1  O   LIG    1       30.356  30.895  16.998  0.00  0.00    -0.331 OA
ATOM      2  C   LIG    1       29.521  30.363  15.971  0.00  0.00    +0.340 C 
ATOM      3  C   LIG    1       28.378  31.327  15.655  0.00  0.00    +0.214 C 
ATOM      4  C   LIG    1       28.905  32.724  15.324  0.00  0.00    +0.180 C 
ATOM      5  C   LIG    1       29.919  33.195  16.366  0.00  0.00    +0.177 C 
ATOM     38  C   LIG    1       30.982  32.121  16.613  0.00  0.00    +0.179 C 
ENDROOT
BRANCH   5   6
ATOM      6  O   LIG    1       30.551  34.385  15.903  0.00  0.00    -0.386 OA
ATOM      7  H   LIG    1       31.487  34.349  16.163  0.00  0.00    +0.210 HD
ENDBRANCH   5   6
BRANCH   4   8
ATOM      8  O   LIG    1       27.818  33.652  15.315  0.00  0.00    -0.386 OA
ATOM      9  H   LIG    1       27.290  33.474  14.518  0.00  0.00    +0.210 HD
ENDBRANCH   4   8
BRANCH   3  10
ATOM     10  O   LIG    1       27.657  30.815  14.535  0.00  0.00    -0.383 OA
ATOM     11  H   LIG    1       27.512  31.545  13.910  0.00  0.00    +0.210 HD
ENDBRANCH   3  10
BRANCH   2  12
ATOM     12  O   LIG    1       28.949  29.131  16.407  0.00  0.00    -0.453 OA
BRANCH  12  13
ATOM     13  C   LIG    1       29.404  28.067  15.659  0.00  0.00    +0.214 A 
ATOM     14  C   LIG    1       28.572  27.609  14.520  0.00  0.00    +0.238 A 
ATOM     15  C   LIG    1       29.104  26.486  13.734  0.00  0.00    +0.109 A 
ATOM     16  C   LIG    1       28.394  25.979  12.642  0.00  0.00    +0.135 A 
ATOM     17  C   LIG    1       28.923  24.914  11.911  0.00  0.00    +0.091 A 
ATOM     18  C   LIG    1       30.152  24.359  12.270  0.00  0.00    +0.124 A 
ATOM     19  C   LIG    1       30.858  24.868  13.360  0.00  0.00    +0.092 A 
ATOM     24  C   LIG    1       30.331  25.933  14.092  0.00  0.00    +0.147 A 
ATOM     25  O   LIG    1       31.071  26.390  15.152  0.00  0.00    -0.451 OA
ATOM     26  O   LIG    1       27.502  28.138  14.249  0.00  0.00    -0.283 OA
ATOM     27  C   LIG    1       30.569  27.441  15.905  0.00  0.00    +0.181 A 
BRANCH  27  28
ATOM     28  C   LIG    1       31.461  27.833  17.010  0.00  0.00    +0.025 A 
ATOM     29  C   LIG    1       32.658  28.495  16.740  0.00  0.00    +0.015 A 
ATOM     30  C   LIG    1       33.502  28.867  17.786  0.00  0.00    +0.050 A 
ATOM     31  C   LIG    1       33.150  28.576  19.104  0.00  0.00    +0.158 A 
ATOM     32  C   LIG    1       31.953  27.914  19.375  0.00  0.00    +0.159 A 
ATOM     37  C   LIG    1       31.109  27.543  18.328  0.00  0.00    +0.060 A 
BRANCH  32  33
ATOM     33  O   LIG    1       31.596  27.625  20.658  0.00  0.00    -0.503 OA
ATOM     34  H   LIG    1       32.246  27.018  21.049  0.00  0.00    +0.292 HD
ENDBRANCH  32  33
BRANCH  31  35
ATOM     35  O   LIG    1       33.983  28.942  20.117  0.00  0.00    -0.503 OA
ATOM     36  H   LIG    1       33.471  29.363  20.826  0.00  0.00    +0.292 HD
ENDBRANCH  31  35
ENDBRANCH  27  28
BRANCH  18  20
ATOM     20  O   LIG    1       30.664  23.321  11.555  0.00  0.00    -0.507 OA
ATOM     21  H   LIG    1       31.388  23.650  10.994  0.00  0.00    +0.292 HD
ENDBRANCH  18  20
BRANCH  16  22
ATOM     22  O   LIG    1       27.191  26.483  12.249  0.00  0.00    -0.506 OA
ATOM     23  H   LIG    1       27.301  26.971  11.415  0.00  0.00    +0.292 HD
ENDBRANCH  16  22
ENDBRANCH  12  13
ENDBRANCH   2  12
BRANCH  38  39
ATOM     39  C   LIG    1       31.938  32.519  17.733  0.00  0.00    +0.197 C 
BRANCH  39  40
ATOM     40  O   LIG    1       31.666  31.724  18.878  0.00  0.00    -0.346 OA
BRANCH  40  41
ATOM     41  C   LIG    1       31.275  32.525  19.988  0.00  0.00    +0.282 C 
ATOM     42  C   LIG    1       29.751  32.565  20.085  0.00  0.00    +0.201 C 
ATOM     43  C   LIG    1       29.197  31.210  20.527  0.00  0.00    +0.179 C 
ATOM     44  C   LIG    1       29.890  30.724  21.801  0.00  0.00    +0.174 C 
ATOM     45  C   LIG    1       31.413  30.767  21.621  0.00  0.00    +0.149 C 
ATOM     46  C   LIG    1       32.152  30.431  22.914  0.00  0.00    +0.041 C 
ATOM     53  O   LIG    1       31.848  32.070  21.218  0.00  0.00    -0.343 OA
BRANCH  44  47
ATOM     47  O   LIG    1       29.461  29.389  22.058  0.00  0.00    -0.387 OA
ATOM     48  H   LIG    1       30.013  29.032  22.774  0.00  0.00    +0.210 HD
ENDBRANCH  44  47
BRANCH  43  49
ATOM     49  O   LIG    1       27.795  31.313  20.766  0.00  0.00    -0.386 OA
ATOM     50  H   LIG    1       27.514  30.508  21.234  0.00  0.00    +0.210 HD
ENDBRANCH  43  49
BRANCH  42  51
ATOM     51  O   LIG    1       29.402  33.569  21.039  0.00  0.00    -0.384 OA
ATOM     52  H   LIG    1       28.485  33.415  21.325  0.00  0.00    +0.210 HD
ENDBRANCH  42  51
ENDBRANCH  40  41
ENDBRANCH  39  40
ENDBRANCH  38  39
TORSDOF 16
ENDMDL
MODEL 2
REMARK VINA RESULT:      -7.2      1.888      5.003
REMARK  Name = 5280805
REMARK                            x       y       z     vdW  Elec       q    Type
REMARK                         _______ _______ _______ _____ _____    ______ ____
ROOT
ATOM      1  O   LIG    1       31.769  29.728  18.540  0.00  0.00    -0.331 OA
ATOM      2  C   LIG    1       32.000  28.381  18.135  0.00  0.00    +0.340 C 
ATOM      3  C   LIG    1       32.925  27.673  19.126  0.00  0.00    +0.214 C 
ATOM      4  C   LIG    1       32.392  27.778  20.555  0.00  0.00    +0.180 C 
ATOM      5  C   LIG    1       32.005  29.217  20.897  0.00  0.00    +0.177 C 
ATOM     38  C   LIG    1       31.113  29.814  19.806  0.00  0.00    +0.179 C 
ENDROOT
BRANCH   5   6
ATOM      6  O   LIG    1       31.306  29.233  22.139  0.00  0.00    -0.386 OA
ATOM      7  H   LIG    1       31.578  30.028  22.627  0.00  0.00    +0.210 HD
ENDBRANCH   5   6
BRANCH   4   8
ATOM      8  O   LIG    1       33.406  27.363  21.472  0.00  0.00    -0.386 OA
ATOM      9  H   LIG    1       33.078  27.542  22.369  0.00  0.00    +0.210 HD
ENDBRANCH   4   8
BRANCH   3  10
ATOM     10  O   LIG    1       33.013  26.299  18.752  0.00  0.00    -0.383 OA
ATOM     11  H   LIG    1       32.174  25.868  18.986  0.00  0.00    +0.210 HD
ENDBRANCH   3  10
BRANCH   2  12
ATOM     12  O   LIG    1       32.632  28.364  16.855  0.00  0.00    -0.453 OA
BRANCH  12  13
ATOM     13  C   LIG    1       31.725  28.134  15.844  0.00  0.00    +0.214 A 
ATOM     14  C   LIG    1       31.182  26.762  15.695  0.00  0.00    +0.238 A 
ATOM     15  C   LIG    1       30.200  26.563  14.617  0.00  0.00    +0.109 A 
ATOM     16  C   LIG    1       29.632  25.306  14.393  0.00  0.00    +0.135 A 
ATOM     17  C   LIG    1       28.700  25.146  13.365  0.00  0.00    +0.091 A 
ATOM     18  C   LIG    1       28.341  26.233  12.569  0.00  0.00    +0.124 A 
ATOM     19  C   LIG    1       28.910  27.486  12.796  0.00  0.00    +0.092 A 
ATOM     24  C   LIG    1       29.841  27.649  13.823  0.00  0.00    +0.147 A 
ATOM     25  O   LIG    1       30.366  28.904  13.998  0.00  0.00    -0.451 OA
ATOM     26  O   LIG    1       31.531  25.846  16.428  0.00  0.00    -0.283 OA
ATOM     27  C   LIG    1       31.301  29.095  15.003  0.00  0.00    +0.181 A 
BRANCH  27  28
ATOM     28  C   LIG    1       31.781  30.485  15.084  0.00  0.00    +0.025 A 
ATOM     29  C   LIG    1       32.912  30.876  14.367  0.00  0.00    +0.015 A 
ATOM     30  C   LIG    1       33.367  32.192  14.443  0.00  0.00    +0.050 A 
ATOM     31  C   LIG    1       32.692  33.119  15.238  0.00  0.00    +0.158 A 
ATOM     32  C   LIG    1       31.562  32.729  15.956  0.00  0.00    +0.159 A 
ATOM     37  C   LIG    1       31.107  31.412  15.879  0.00  0.00    +0.060 A 
BRANCH  32  33
ATOM     33  O   LIG    1       30.893  33.625  16.735  0.00  0.00    -0.503 OA
ATOM     34  H   LIG    1       30.414  34.254  16.171  0.00  0.00    +0.292 HD
ENDBRANCH  32  33
BRANCH  31  35
ATOM     35  O   LIG    1       33.146  34.401  15.306  0.00  0.00    -0.503 OA
ATOM     36  H   LIG    1       32.683  34.875  16.014  0.00  0.00    +0.292 HD
ENDBRANCH  31  35
ENDBRANCH  27  28
BRANCH  18  20
ATOM     20  O   LIG    1       27.432  26.072  11.568  0.00  0.00    -0.507 OA
ATOM     21  H   LIG    1       26.538  26.084  11.949  0.00  0.00    +0.292 HD
ENDBRANCH  18  20
BRANCH  16  22
ATOM     22  O   LIG    1       29.947  24.212  15.141  0.00  0.00    -0.506 OA
ATOM     23  H   LIG    1       30.078  23.446  14.556  0.00  0.00    +0.292 HD
ENDBRANCH  16  22
ENDBRANCH  12  13
ENDBRANCH   2  12
BRANCH  38  39
ATOM     39  C   LIG    1       30.810  31.286  20.068  0.00  0.00    +0.197 C 
BRANCH  39  40
ATOM     40  O   LIG    1       29.941  31.766  19.052  0.00  0.00    -0.346 OA
BRANCH  40  41
ATOM     41  C   LIG    1       28.597  31.355  19.279  0.00  0.00    +0.282 C 
ATOM     42  C   LIG    1       27.635  32.387  18.694  0.00  0.00    +0.201 C 
ATOM     43  C   LIG    1       27.666  32.357  17.165  0.00  0.00    +0.179 C 
ATOM     44  C   LIG    1       27.452  30.937  16.641  0.00  0.00    +0.174 C 
ATOM     45  C   LIG    1       28.429  29.970  17.322  0.00  0.00    +0.149 C 
ATOM     46  C   LIG    1       28.156  28.517  16.940  0.00  0.00    +0.041 C 
ATOM     53  O   LIG    1       28.327  30.054  18.748  0.00  0.00    -0.343 OA
BRANCH  44  47
ATOM     47  O   LIG    1       27.668  30.946  15.232  0.00  0.00    -0.387 OA
ATOM     48  H   LIG    1       28.357  31.605  15.041  0.00  0.00    +0.210 HD
ENDBRANCH  44  47
BRANCH  43  49
ATOM     49  O   LIG    1       26.650  33.209  16.641  0.00  0.00    -0.386 OA
ATOM     50  H   LIG    1       26.882  33.415  15.719  0.00  0.00    +0.210 HD
ENDBRANCH  43  49
BRANCH  42  51
ATOM     51  O   LIG    1       26.322  32.072  19.160  0.00  0.00    -0.384 OA
ATOM     52  H   LIG    1       25.863  31.568  18.467  0.00  0.00    +0.210 HD
ENDBRANCH  42  51
ENDBRANCH  40  41
ENDBRANCH  39  40
ENDBRANCH  38  39
TORSDOF 16
ENDMDL
MODEL 3
REMARK VINA RESULT:      -7.2      1.532      5.070
REMARK  Name = 5280805
REMARK                            x       y       z     vdW  Elec       q    Type
REMARK                         _______ _______ _______ _____ _____    ______ ____
ROOT
ATOM      1  O   LIG    1       30.091  30.541  16.026  0.00  0.00    -0.331 OA
ATOM      2  C   LIG    1       30.723  30.767  14.768  0.00  0.00    +0.340 C 
ATOM      3  C   LIG    1       29.686  31.117  13.701  0.00  0.00    +0.214 C 
ATOM      4  C   LIG    1       28.809  32.289  14.141  0.00  0.00    +0.180 C 
ATOM      5  C   LIG    1       28.278  32.082  15.560  0.00  0.00    +0.177 C 
ATOM     38  C   LIG    1       29.413  31.700  16.514  0.00  0.00    +0.179 C 
ENDROOT
BRANCH   5   6
ATOM      6  O   LIG    1       27.665  33.285  16.014  0.00  0.00    -0.386 OA
ATOM      7  H   LIG    1       26.704  33.196  15.899  0.00  0.00    +0.210 HD
ENDBRANCH   5   6
BRANCH   4   8
ATOM      8  O   LIG    1       27.688  32.401  13.262  0.00  0.00    -0.386 OA
ATOM      9  H   LIG    1       27.949  32.019  12.407  0.00  0.00    +0.210 HD
ENDBRANCH   4   8
BRANCH   3  10
ATOM     10  O   LIG    1       30.377  31.465  12.502  0.00  0.00    -0.383 OA
ATOM     11  H   LIG    1       29.810  32.068  11.991  0.00  0.00    +0.210 HD
ENDBRANCH   3  10
BRANCH   2  12
ATOM     12  O   LIG    1       31.401  29.583  14.350  0.00  0.00    -0.453 OA
BRANCH  12  13
ATOM     13  C   LIG    1       31.574  28.702  15.395  0.00  0.00    +0.214 A 
ATOM     14  C   LIG    1       32.510  29.082  16.480  0.00  0.00    +0.238 A 
ATOM     15  C   LIG    1       32.649  28.124  17.588  0.00  0.00    +0.109 A 
ATOM     16  C   LIG    1       33.509  28.389  18.658  0.00  0.00    +0.135 A 
ATOM     17  C   LIG    1       33.620  27.463  19.696  0.00  0.00    +0.091 A 
ATOM     18  C   LIG    1       32.877  26.282  19.666  0.00  0.00    +0.124 A 
ATOM     19  C   LIG    1       32.020  26.022  18.597  0.00  0.00    +0.092 A 
ATOM     24  C   LIG    1       31.907  26.945  17.557  0.00  0.00    +0.147 A 
ATOM     25  O   LIG    1       31.048  26.634  16.534  0.00  0.00    -0.451 OA
ATOM     26  O   LIG    1       33.132  30.136  16.456  0.00  0.00    -0.283 OA
ATOM     27  C   LIG    1       30.922  27.527  15.482  0.00  0.00    +0.181 A 
BRANCH  27  28
ATOM     28  C   LIG    1       29.970  27.073  14.454  0.00  0.00    +0.025 A 
ATOM     29  C   LIG    1       28.702  27.649  14.374  0.00  0.00    +0.015 A 
ATOM     30  C   LIG    1       27.800  27.219  13.400  0.00  0.00    +0.050 A 
ATOM     31  C   LIG    1       28.166  26.212  12.507  0.00  0.00    +0.158 A 
ATOM     32  C   LIG    1       29.433  25.636  12.586  0.00  0.00    +0.159 A 
ATOM     37  C   LIG    1       30.335  26.067  13.559  0.00  0.00    +0.060 A 
BRANCH  32  33
ATOM     33  O   LIG    1       29.802  24.653  11.718  0.00  0.00    -0.503 OA
ATOM     34  H   LIG    1       29.129  24.560  11.024  0.00  0.00    +0.292 HD
ENDBRANCH  32  33
BRANCH  31  35
ATOM     35  O   LIG    1       27.276  25.800  11.561  0.00  0.00    -0.503 OA
ATOM     36  H   LIG    1       27.621  26.001  10.677  0.00  0.00    +0.292 HD
ENDBRANCH  31  35
ENDBRANCH  27  28
BRANCH  18  20
ATOM     20  O   LIG    1       32.988  25.383  20.682  0.00  0.00    -0.507 OA
ATOM     21  H   LIG    1       32.170  25.397  21.207  0.00  0.00    +0.292 HD
ENDBRANCH  18  20
BRANCH  16  22
ATOM     22  O   LIG    1       34.256  29.525  18.737  0.00  0.00    -0.506 OA
ATOM     23  H   LIG    1       34.858  29.465  19.498  0.00  0.00    +0.292 HD
ENDBRANCH  16  22
ENDBRANCH  12  13
ENDBRANCH   2  12
BRANCH  38  39
ATOM     39  C   LIG    1       28.892  31.374  17.910  0.00  0.00    +0.197 C 
BRANCH  39  40
ATOM     40  O   LIG    1       29.966  30.889  18.702  0.00  0.00    -0.346 OA
BRANCH  40  41
ATOM     41  C   LIG    1       30.341  31.830  19.703  0.00  0.00    +0.282 C 
ATOM     42  C   LIG    1       29.109  32.256  20.499  0.00  0.00    +0.201 C 
ATOM     43  C   LIG    1       28.609  31.112  21.384  0.00  0.00    +0.179 C 
ATOM     44  C   LIG    1       29.742  30.548  22.242  0.00  0.00    +0.174 C 
ATOM     45  C   LIG    1       30.948  30.197  21.359  0.00  0.00    +0.149 C 
ATOM     46  C   LIG    1       32.157  29.768  22.187  0.00  0.00    +0.041 C 
ATOM     53  O   LIG    1       31.356  31.323  20.575  0.00  0.00    -0.343 OA
BRANCH  44  47
ATOM     47  O   LIG    1       29.259  29.382  22.904  0.00  0.00    -0.387 OA
ATOM     48  H   LIG    1       28.699  29.670  23.644  0.00  0.00    +0.210 HD
ENDBRANCH  44  47
BRANCH  43  49
ATOM     49  O   LIG    1       27.563  31.577  22.234  0.00  0.00    -0.386 OA
ATOM     50  H   LIG    1       27.340  32.483  21.961  0.00  0.00    +0.210 HD
ENDBRANCH  43  49
BRANCH  42  51
ATOM     51  O   LIG    1       29.479  33.372  21.310  0.00  0.00    -0.384 OA
ATOM     52  H   LIG    1       30.226  33.108  21.873  0.00  0.00    +0.210 HD
ENDBRANCH  42  51
ENDBRANCH  40  41
ENDBRANCH  39  40
ENDBRANCH  38  39
TORSDOF 16
ENDMDL
MODEL 4
REMARK VINA RESULT:      -7.1      2.059      6.728
REMARK  Name = 5280805
REMARK                            x       y       z     vdW  Elec       q    Type
REMARK                         _______ _______ _______ _____ _____    ______ ____
ROOT
ATOM      1  O   LIG    1       30.151  31.161  18.512  0.00  0.00    -0.331 OA
ATOM      2  C   LIG    1       28.790  31.588  18.515  0.00  0.00    +0.340 C 
ATOM      3  C   LIG    1       28.073  31.088  19.769  0.00  0.00    +0.214 C 
ATOM      4  C   LIG    1       28.823  31.495  21.037  0.00  0.00    +0.180 C 
ATOM      5  C   LIG    1       30.312  31.164  20.931  0.00  0.00    +0.177 C 
ATOM     38  C   LIG    1       30.892  31.687  19.615  0.00  0.00    +0.179 C 
ENDROOT
BRANCH   5   6
ATOM      6  O   LIG    1       31.007  31.761  22.022  0.00  0.00    -0.386 OA
ATOM      7  H   LIG    1       31.273  32.657  21.755  0.00  0.00    +0.210 HD
ENDBRANCH   5   6
BRANCH   4   8
ATOM      8  O   LIG    1       28.291  30.780  22.154  0.00  0.00    -0.386 OA
ATOM      9  H   LIG    1       28.416  31.336  22.942  0.00  0.00    +0.210 HD
ENDBRANCH   4   8
BRANCH   3  10
ATOM     10  O   LIG    1       26.763  31.653  19.791  0.00  0.00    -0.383 OA
ATOM     11  H   LIG    1       26.668  32.162  20.614  0.00  0.00    +0.210 HD
ENDBRANCH   3  10
BRANCH   2  12
ATOM     12  O   LIG    1       28.115  31.051  17.378  0.00  0.00    -0.453 OA
BRANCH  12  13
ATOM     13  C   LIG    1       28.106  31.940  16.326  0.00  0.00    +0.214 A 
ATOM     14  C   LIG    1       27.613  33.316  16.580  0.00  0.00    +0.238 A 
ATOM     15  C   LIG    1       27.640  34.240  15.437  0.00  0.00    +0.109 A 
ATOM     16  C   LIG    1       27.195  35.558  15.573  0.00  0.00    +0.135 A 
ATOM     17  C   LIG    1       27.234  36.415  14.472  0.00  0.00    +0.091 A 
ATOM     18  C   LIG    1       27.715  35.958  13.244  0.00  0.00    +0.124 A 
ATOM     19  C   LIG    1       28.159  34.642  13.112  0.00  0.00    +0.092 A 
ATOM     24  C   LIG    1       28.121  33.783  14.211  0.00  0.00    +0.147 A 
ATOM     25  O   LIG    1       28.571  32.503  14.021  0.00  0.00    -0.451 OA
ATOM     26  O   LIG    1       27.208  33.663  17.682  0.00  0.00    -0.283 OA
ATOM     27  C   LIG    1       28.536  31.623  15.091  0.00  0.00    +0.181 A 
BRANCH  27  28
ATOM     28  C   LIG    1       29.048  30.284  14.752  0.00  0.00    +0.025 A 
ATOM     29  C   LIG    1       30.420  30.033  14.777  0.00  0.00    +0.015 A 
ATOM     30  C   LIG    1       30.904  28.765  14.456  0.00  0.00    +0.050 A 
ATOM     31  C   LIG    1       30.016  27.747  14.108  0.00  0.00    +0.158 A 
ATOM     32  C   LIG    1       28.644  27.996  14.082  0.00  0.00    +0.159 A 
ATOM     37  C   LIG    1       28.160  29.265  14.404  0.00  0.00    +0.060 A 
BRANCH  32  33
ATOM     33  O   LIG    1       27.767  27.010  13.746  0.00  0.00    -0.503 OA
ATOM     34  H   LIG    1       26.935  27.133  14.231  0.00  0.00    +0.292 HD
ENDBRANCH  32  33
BRANCH  31  35
ATOM     35  O   LIG    1       30.500  26.513  13.794  0.00  0.00    -0.503 OA
ATOM     36  H   LIG    1       30.991  26.153  14.550  0.00  0.00    +0.292 HD
ENDBRANCH  31  35
ENDBRANCH  27  28
BRANCH  18  20
ATOM     20  O   LIG    1       27.752  36.797  12.173  0.00  0.00    -0.507 OA
ATOM     21  H   LIG    1       28.367  37.526  12.364  0.00  0.00    +0.292 HD
ENDBRANCH  18  20
BRANCH  16  22
ATOM     22  O   LIG    1       26.717  36.055  16.748  0.00  0.00    -0.506 OA
ATOM     23  H   LIG    1       26.468  36.988  16.628  0.00  0.00    +0.292 HD
ENDBRANCH  16  22
ENDBRANCH  12  13
ENDBRANCH   2  12
BRANCH  38  39
ATOM     39  C   LIG    1       32.347  31.268  19.432  0.00  0.00    +0.197 C 
BRANCH  39  40
ATOM     40  O   LIG    1       32.514  29.948  19.929  0.00  0.00    -0.346 OA
BRANCH  40  41
ATOM     41  C   LIG    1       33.074  29.087  18.944  0.00  0.00    +0.282 C 
ATOM     42  C   LIG    1       33.856  27.964  19.624  0.00  0.00    +0.201 C 
ATOM     43  C   LIG    1       32.908  26.987  20.323  0.00  0.00    +0.179 C 
ATOM     44  C   LIG    1       31.821  26.500  19.365  0.00  0.00    +0.174 C 
ATOM     45  C   LIG    1       31.130  27.696  18.699  0.00  0.00    +0.149 C 
ATOM     46  C   LIG    1       30.136  27.259  17.625  0.00  0.00    +0.041 C 
ATOM     53  O   LIG    1       32.084  28.552  18.060  0.00  0.00    -0.343 OA
BRANCH  44  47
ATOM     47  O   LIG    1       30.876  25.740  20.116  0.00  0.00    -0.387 OA
ATOM     48  H   LIG    1       31.028  24.800  19.922  0.00  0.00    +0.210 HD
ENDBRANCH  44  47
BRANCH  43  49
ATOM     49  O   LIG    1       33.641  25.865  20.811  0.00  0.00    -0.386 OA
ATOM     50  H   LIG    1       34.282  26.192  21.465  0.00  0.00    +0.210 HD
ENDBRANCH  43  49
BRANCH  42  51
ATOM     51  O   LIG    1       34.603  27.281  18.616  0.00  0.00    -0.384 OA
ATOM     52  H   LIG    1       34.728  26.359  18.898  0.00  0.00    +0.210 HD
ENDBRANCH  42  51
ENDBRANCH  40  41
ENDBRANCH  39  40
ENDBRANCH  38  39
TORSDOF 16
ENDMDL
MODEL 5
REMARK VINA RESULT:      -7.1      2.521      7.668
REMARK  Name = 5280805
REMARK                            x       y       z     vdW  Elec       q    Type
REMARK                         _______ _______ _______ _____ _____    ______ ____
ROOT
ATOM      1  O   LIG    1       31.284  28.967  18.144  0.00  0.00    -0.331 OA
ATOM      2  C   LIG    1       31.758  27.821  18.847  0.00  0.00    +0.340 C 
ATOM      3  C   LIG    1       31.107  26.549  18.302  0.00  0.00    +0.214 C 
ATOM      4  C   LIG    1       31.294  26.435  16.789  0.00  0.00    +0.180 C 
ATOM      5  C   LIG    1       30.924  27.741  16.085  0.00  0.00    +0.177 C 
ATOM     38  C   LIG    1       31.613  28.932  16.754  0.00  0.00    +0.179 C 
ENDROOT
BRANCH   5   6
ATOM      6  O   LIG    1       31.327  27.670  14.720  0.00  0.00    -0.386 OA
ATOM      7  H   LIG    1       31.937  26.919  14.624  0.00  0.00    +0.210 HD
ENDBRANCH   5   6
BRANCH   4   8
ATOM      8  O   LIG    1       30.443  25.404  16.282  0.00  0.00    -0.386 OA
ATOM      9  H   LIG    1       30.274  24.782  17.010  0.00  0.00    +0.210 HD
ENDBRANCH   4   8
BRANCH   3  10
ATOM     10  O   LIG    1       31.714  25.426  18.940  0.00  0.00    -0.383 OA
ATOM     11  H   LIG    1       32.458  25.132  18.389  0.00  0.00    +0.210 HD
ENDBRANCH   3  10
BRANCH   2  12
ATOM     12  O   LIG    1       31.421  27.929  20.229  0.00  0.00    -0.453 OA
BRANCH  12  13
ATOM     13  C   LIG    1       32.515  28.270  20.993  0.00  0.00    +0.214 A 
ATOM     14  C   LIG    1       33.464  27.195  21.371  0.00  0.00    +0.238 A 
ATOM     15  C   LIG    1       34.630  27.604  22.169  0.00  0.00    +0.109 A 
ATOM     16  C   LIG    1       35.581  26.664  22.577  0.00  0.00    +0.135 A 
ATOM     17  C   LIG    1       36.680  27.081  23.331  0.00  0.00    +0.091 A 
ATOM     18  C   LIG    1       36.826  28.425  23.674  0.00  0.00    +0.124 A 
ATOM     19  C   LIG    1       35.876  29.360  23.263  0.00  0.00    +0.092 A 
ATOM     24  C   LIG    1       34.776  28.946  22.510  0.00  0.00    +0.147 A 
ATOM     25  O   LIG    1       33.876  29.911  22.136  0.00  0.00    -0.451 OA
ATOM     26  O   LIG    1       33.286  26.031  21.037  0.00  0.00    -0.283 OA
ATOM     27  C   LIG    1       32.768  29.530  21.395  0.00  0.00    +0.181 A 
BRANCH  27  28
ATOM     28  C   LIG    1       31.884  30.659  21.060  0.00  0.00    +0.025 A 
ATOM     29  C   LIG    1       32.307  31.631  20.153  0.00  0.00    +0.015 A 
ATOM     30  C   LIG    1       31.470  32.701  19.835  0.00  0.00    +0.050 A 
ATOM     31  C   LIG    1       30.210  32.800  20.426  0.00  0.00    +0.158 A 
ATOM     32  C   LIG    1       29.787  31.829  21.332  0.00  0.00    +0.159 A 
ATOM     37  C   LIG    1       30.624  30.759  21.650  0.00  0.00    +0.060 A 
BRANCH  32  33
ATOM     33  O   LIG    1       28.558  31.914  21.915  0.00  0.00    -0.503 OA
ATOM     34  H   LIG    1       28.147  32.764  21.687  0.00  0.00    +0.292 HD
ENDBRANCH  32  33
BRANCH  31  35
ATOM     35  O   LIG    1       29.403  33.850  20.109  0.00  0.00    -0.503 OA
ATOM     36  H   LIG    1       28.528  33.523  19.847  0.00  0.00    +0.292 HD
ENDBRANCH  31  35
ENDBRANCH  27  28
BRANCH  18  20
ATOM     20  O   LIG    1       37.900  28.826  24.408  0.00  0.00    -0.507 OA
ATOM     21  H   LIG    1       38.152  29.724  24.134  0.00  0.00    +0.292 HD
ENDBRANCH  18  20
BRANCH  16  22
ATOM     22  O   LIG    1       35.486  25.341  22.270  0.00  0.00    -0.506 OA
ATOM     23  H   LIG    1       35.430  25.235  21.304  0.00  0.00    +0.292 HD
ENDBRANCH  16  22
ENDBRANCH  12  13
ENDBRANCH   2  12
BRANCH  38  39
ATOM     39  C   LIG    1       31.169  30.258  16.144  0.00  0.00    +0.197 C 
BRANCH  39  40
ATOM     40  O   LIG    1       30.185  30.846  16.983  0.00  0.00    -0.346 OA
BRANCH  40  41
ATOM     41  C   LIG    1       28.874  30.659  16.459  0.00  0.00    +0.282 C 
ATOM     42  C   LIG    1       27.882  30.471  17.606  0.00  0.00    +0.201 C 
ATOM     43  C   LIG    1       27.678  31.781  18.370  0.00  0.00    +0.179 C 
ATOM     44  C   LIG    1       27.321  32.921  17.416  0.00  0.00    +0.174 C 
ATOM     45  C   LIG    1       28.346  32.996  16.277  0.00  0.00    +0.149 C 
ATOM     46  C   LIG    1       27.952  34.025  15.219  0.00  0.00    +0.041 C 
ATOM     53  O   LIG    1       28.467  31.735  15.609  0.00  0.00    -0.343 OA
BRANCH  44  47
ATOM     47  O   LIG    1       27.320  34.137  18.160  0.00  0.00    -0.387 OA
ATOM     48  H   LIG    1       26.743  34.769  17.697  0.00  0.00    +0.210 HD
ENDBRANCH  44  47
BRANCH  43  49
ATOM     49  O   LIG    1       26.634  31.626  19.328  0.00  0.00    -0.386 OA
ATOM     50  H   LIG    1       26.282  32.510  19.528  0.00  0.00    +0.210 HD
ENDBRANCH  43  49
BRANCH  42  51
ATOM     51  O   LIG    1       26.643  30.038  17.042  0.00  0.00    -0.384 OA
ATOM     52  H   LIG    1       26.836  29.414  16.321  0.00  0.00    +0.210 HD
ENDBRANCH  42  51
ENDBRANCH  40  41
ENDBRANCH  39  40
ENDBRANCH  38  39
TORSDOF 16
ENDMDL
MODEL 6
REMARK VINA RESULT:      -7.0      1.862      6.104
REMARK  Name = 5280805
REMARK                            x       y       z     vdW  Elec       q    Type
REMARK                         _______ _______ _______ _____ _____    ______ ____
ROOT
ATOM      1  O   LIG    1       32.235  28.532  17.075  0.00  0.00    -0.331 OA
ATOM      2  C   LIG    1       32.850  28.648  15.794  0.00  0.00    +0.340 C 
ATOM      3  C   LIG    1       34.130  29.479  15.886  0.00  0.00    +0.214 C 
ATOM      4  C   LIG    1       35.078  28.923  16.949  0.00  0.00    +0.180 C 
ATOM      5  C   LIG    1       34.343  28.662  18.264  0.00  0.00    +0.177 C 
ATOM     38  C   LIG    1       33.065  27.856  18.021  0.00  0.00    +0.179 C 
ENDROOT
BRANCH   5   6
ATOM      6  O   LIG    1       35.198  27.936  19.144  0.00  0.00    -0.386 OA
ATOM      7  H   LIG    1       35.453  28.528  19.872  0.00  0.00    +0.210 HD
ENDBRANCH   5   6
BRANCH   4   8
ATOM      8  O   LIG    1       36.116  29.872  17.204  0.00  0.00    -0.386 OA
ATOM      9  H   LIG    1       35.874  30.696  16.748  0.00  0.00    +0.210 HD
ENDBRANCH   4   8
BRANCH   3  10
ATOM     10  O   LIG    1       34.775  29.450  14.613  0.00  0.00    -0.383 OA
ATOM     11  H   LIG    1       34.686  28.553  14.250  0.00  0.00    +0.210 HD
ENDBRANCH   3  10
BRANCH   2  12
ATOM     12  O   LIG    1       31.962  29.307  14.892  0.00  0.00    -0.453 OA
BRANCH  12  13
ATOM     13  C   LIG    1       30.775  29.643  15.503  0.00  0.00    +0.214 A 
ATOM     14  C   LIG    1       30.680  30.969  16.162  0.00  0.00    +0.238 A 
ATOM     15  C   LIG    1       29.389  31.297  16.784  0.00  0.00    +0.109 A 
ATOM     16  C   LIG    1       29.199  32.521  17.432  0.00  0.00    +0.135 A 
ATOM     17  C   LIG    1       27.963  32.809  18.012  0.00  0.00    +0.091 A 
ATOM     18  C   LIG    1       26.924  31.880  17.945  0.00  0.00    +0.124 A 
ATOM     19  C   LIG    1       27.116  30.659  17.297  0.00  0.00    +0.092 A 
ATOM     24  C   LIG    1       28.352  30.370  16.717  0.00  0.00    +0.147 A 
ATOM     25  O   LIG    1       28.481  29.155  16.093  0.00  0.00    -0.451 OA
ATOM     26  O   LIG    1       31.625  31.746  16.185  0.00  0.00    -0.283 OA
ATOM     27  C   LIG    1       29.699  28.834  15.516  0.00  0.00    +0.181 A 
BRANCH  27  28
ATOM     28  C   LIG    1       29.702  27.505  14.881  0.00  0.00    +0.025 A 
ATOM     29  C   LIG    1       30.253  26.412  15.550  0.00  0.00    +0.015 A 
ATOM     30  C   LIG    1       30.256  25.154  14.950  0.00  0.00    +0.050 A 
ATOM     31  C   LIG    1       29.707  24.987  13.678  0.00  0.00    +0.158 A 
ATOM     32  C   LIG    1       29.156  26.078  13.008  0.00  0.00    +0.159 A 
ATOM     37  C   LIG    1       29.153  27.337  13.609  0.00  0.00    +0.060 A 
BRANCH  32  33
ATOM     33  O   LIG    1       28.615  25.928  11.766  0.00  0.00    -0.503 OA
ATOM     34  H   LIG    1       27.981  26.643  11.597  0.00  0.00    +0.292 HD
ENDBRANCH  32  33
BRANCH  31  35
ATOM     35  O   LIG    1       29.717  23.753  13.100  0.00  0.00    -0.503 OA
ATOM     36  H   LIG    1       30.005  23.091  13.748  0.00  0.00    +0.292 HD
ENDBRANCH  31  35
ENDBRANCH  27  28
BRANCH  18  20
ATOM     20  O   LIG    1       25.720  32.165  18.512  0.00  0.00    -0.507 OA
ATOM     21  H   LIG    1       25.235  32.778  17.933  0.00  0.00    +0.292 HD
ENDBRANCH  18  20
BRANCH  16  22
ATOM     22  O   LIG    1       30.179  33.463  17.526  0.00  0.00    -0.506 OA
ATOM     23  H   LIG    1       29.923  34.250  17.015  0.00  0.00    +0.292 HD
ENDBRANCH  16  22
ENDBRANCH  12  13
ENDBRANCH   2  12
BRANCH  38  39
ATOM     39  C   LIG    1       32.255  27.683  19.302  0.00  0.00    +0.197 C 
BRANCH  39  40
ATOM     40  O   LIG    1       31.532  28.879  19.557  0.00  0.00    -0.346 OA
BRANCH  40  41
ATOM     41  C   LIG    1       31.859  29.424  20.831  0.00  0.00    +0.282 C 
ATOM     42  C   LIG    1       32.086  30.929  20.706  0.00  0.00    +0.201 C 
ATOM     43  C   LIG    1       30.769  31.659  20.435  0.00  0.00    +0.179 C 
ATOM     44  C   LIG    1       29.708  31.272  21.465  0.00  0.00    +0.174 C 
ATOM     45  C   LIG    1       29.589  29.744  21.551  0.00  0.00    +0.149 C 
ATOM     46  C   LIG    1       28.646  29.306  22.669  0.00  0.00    +0.041 C 
ATOM     53  O   LIG    1       30.861  29.143  21.817  0.00  0.00    -0.343 OA
BRANCH  44  47
ATOM     47  O   LIG    1       28.466  31.841  21.057  0.00  0.00    -0.387 OA
ATOM     48  H   LIG    1       28.478  32.784  21.295  0.00  0.00    +0.210 HD
ENDBRANCH  44  47
BRANCH  43  49
ATOM     49  O   LIG    1       30.977  33.069  20.482  0.00  0.00    -0.386 OA
ATOM     50  H   LIG    1       30.449  33.470  19.771  0.00  0.00    +0.210 HD
ENDBRANCH  43  49
BRANCH  42  51
ATOM     51  O   LIG    1       32.654  31.387  21.934  0.00  0.00    -0.384 OA
ATOM     52  H   LIG    1       31.929  31.578  22.554  0.00  0.00    +0.210 HD
ENDBRANCH  42  51
ENDBRANCH  40  41
ENDBRANCH  39  40
ENDBRANCH  38  39
TORSDOF 16
ENDMDL
MODEL 7
REMARK VINA RESULT:      -7.0      2.545      5.293
REMARK  Name = 5280805
REMARK                            x       y       z     vdW  Elec       q    Type
REMARK                         _______ _______ _______ _____ _____    ______ ____
ROOT
ATOM      1  O   LIG    1       29.258  30.144  17.745  0.00  0.00    -0.331 OA
ATOM      2  C   LIG    1       28.753  31.140  16.858  0.00  0.00    +0.340 C 
ATOM      3  C   LIG    1       27.335  31.547  17.259  0.00  0.00    +0.214 C 
ATOM      4  C   LIG    1       27.273  31.975  18.725  0.00  0.00    +0.180 C 
ATOM      5  C   LIG    1       27.967  30.956  19.629  0.00  0.00    +0.177 C 
ATOM     38  C   LIG    1       29.358  30.611  19.092  0.00  0.00    +0.179 C 
ENDROOT
BRANCH   5   6
ATOM      6  O   LIG    1       28.090  31.498  20.942  0.00  0.00    -0.386 OA
ATOM      7  H   LIG    1       27.399  32.172  21.054  0.00  0.00    +0.210 HD
ENDBRANCH   5   6
BRANCH   4   8
ATOM      8  O   LIG    1       25.907  32.071  19.135  0.00  0.00    -0.386 OA
ATOM      9  H   LIG    1       25.870  31.840  20.079  0.00  0.00    +0.210 HD
ENDBRANCH   4   8
BRANCH   3  10
ATOM     10  O   LIG    1       26.930  32.635  16.429  0.00  0.00    -0.383 OA
ATOM     11  H   LIG    1       27.709  32.947  15.940  0.00  0.00    +0.210 HD
ENDBRANCH   3  10
BRANCH   2  12
ATOM     12  O   LIG    1       28.703  30.620  15.530  0.00  0.00    -0.453 OA
BRANCH  12  13
ATOM     13  C   LIG    1       29.828  30.959  14.810  0.00  0.00    +0.214 A 
ATOM     14  C   LIG    1       30.081  32.396  14.548  0.00  0.00    +0.238 A 
ATOM     15  C   LIG    1       31.304  32.716  13.795  0.00  0.00    +0.109 A 
ATOM     16  C   LIG    1       31.631  34.041  13.494  0.00  0.00    +0.135 A 
ATOM     17  C   LIG    1       32.799  34.316  12.780  0.00  0.00    +0.091 A 
ATOM     18  C   LIG    1       33.632  33.275  12.370  0.00  0.00    +0.124 A 
ATOM     19  C   LIG    1       33.302  31.954  12.673  0.00  0.00    +0.092 A 
ATOM     24  C   LIG    1       32.136  31.676  13.386  0.00  0.00    +0.147 A 
ATOM     25  O   LIG    1       31.865  30.359  13.654  0.00  0.00    -0.451 OA
ATOM     26  O   LIG    1       29.316  33.268  14.937  0.00  0.00    -0.283 OA
ATOM     27  C   LIG    1       30.708  30.049  14.352  0.00  0.00    +0.181 A 
BRANCH  27  28
ATOM     28  C   LIG    1       30.539  28.603  14.572  0.00  0.00    +0.025 A 
ATOM     29  C   LIG    1       29.824  27.835  13.653  0.00  0.00    +0.015 A 
ATOM     30  C   LIG    1       29.664  26.466  13.861  0.00  0.00    +0.050 A 
ATOM     31  C   LIG    1       30.218  25.863  14.990  0.00  0.00    +0.158 A 
ATOM     32  C   LIG    1       30.933  26.629  15.910  0.00  0.00    +0.159 A 
ATOM     37  C   LIG    1       31.093  27.999  15.701  0.00  0.00    +0.060 A 
BRANCH  32  33
ATOM     33  O   LIG    1       31.481  26.051  17.016  0.00  0.00    -0.503 OA
ATOM     34  H   LIG    1       32.374  26.403  17.160  0.00  0.00    +0.292 HD
ENDBRANCH  32  33
BRANCH  31  35
ATOM     35  O   LIG    1       30.053  24.525  15.184  0.00  0.00    -0.503 OA
ATOM     36  H   LIG    1       29.868  24.091  14.336  0.00  0.00    +0.292 HD
ENDBRANCH  31  35
ENDBRANCH  27  28
BRANCH  18  20
ATOM     20  O   LIG    1       34.770  33.549  11.675  0.00  0.00    -0.507 OA
ATOM     21  H   LIG    1       34.970  34.497  11.758  0.00  0.00    +0.292 HD
ENDBRANCH  18  20
BRANCH  16  22
ATOM     22  O   LIG    1       30.854  35.094  13.871  0.00  0.00    -0.506 OA
ATOM     23  H   LIG    1       31.420  35.818  14.189  0.00  0.00    +0.292 HD
ENDBRANCH  16  22
ENDBRANCH  12  13
ENDBRANCH   2  12
BRANCH  38  39
ATOM     39  C   LIG    1       30.024  29.511  19.912  0.00  0.00    +0.197 C 
BRANCH  39  40
ATOM     40  O   LIG    1       31.371  29.879  20.172  0.00  0.00    -0.346 OA
BRANCH  40  41
ATOM     41  C   LIG    1       31.446  30.973  21.080  0.00  0.00    +0.282 C 
ATOM     42  C   LIG    1       31.285  30.467  22.512  0.00  0.00    +0.201 C 
ATOM     43  C   LIG    1       32.516  29.672  22.951  0.00  0.00    +0.179 C 
ATOM     44  C   LIG    1       33.797  30.472  22.712  0.00  0.00    +0.174 C 
ATOM     45  C   LIG    1       33.842  30.976  21.264  0.00  0.00    +0.149 C 
ATOM     46  C   LIG    1       35.030  31.903  21.017  0.00  0.00    +0.041 C 
ATOM     53  O   LIG    1       32.660  31.717  20.940  0.00  0.00    -0.343 OA
BRANCH  44  47
ATOM     47  O   LIG    1       34.909  29.618  22.972  0.00  0.00    -0.387 OA
ATOM     48  H   LIG    1       35.640  30.170  23.297  0.00  0.00    +0.210 HD
ENDBRANCH  44  47
BRANCH  43  49
ATOM     49  O   LIG    1       32.417  29.348  24.336  0.00  0.00    -0.386 OA
ATOM     50  H   LIG    1       33.300  29.079  24.642  0.00  0.00    +0.210 HD
ENDBRANCH  43  49
BRANCH  42  51
ATOM     51  O   LIG    1       31.111  31.604  23.359  0.00  0.00    -0.384 OA
ATOM     52  H   LIG    1       30.231  31.981  23.191  0.00  0.00    +0.210 HD
ENDBRANCH  42  51
ENDBRANCH  40  41
ENDBRANCH  39  40
ENDBRANCH  38  39
TORSDOF 16
ENDMDL
MODEL 8
REMARK VINA RESULT:      -7.0      2.287      5.786
REMARK  Name = 5280805
REMARK                            x       y       z     vdW  Elec       q    Type
REMARK                         _______ _______ _______ _____ _____    ______ ____
ROOT
ATOM      1  O   LIG    1       30.772  30.814  14.258  0.00  0.00    -0.331 OA
ATOM      2  C   LIG    1       32.174  30.708  14.491  0.00  0.00    +0.340 C 
ATOM      3  C   LIG    1       32.954  31.495  13.438  0.00  0.00    +0.214 C 
ATOM      4  C   LIG    1       32.476  32.945  13.361  0.00  0.00    +0.180 C 
ATOM      5  C   LIG    1       30.951  33.021  13.272  0.00  0.00    +0.177 C 
ATOM     38  C   LIG    1       30.300  32.159  14.357  0.00  0.00    +0.179 C 
ENDROOT
BRANCH   5   6
ATOM      6  O   LIG    1       30.537  34.375  13.435  0.00  0.00    -0.386 OA
ATOM      7  H   LIG    1       31.067  34.926  12.836  0.00  0.00    +0.210 HD
ENDBRANCH   5   6
BRANCH   4   8
ATOM      8  O   LIG    1       33.017  33.563  12.192  0.00  0.00    -0.386 OA
ATOM      9  H   LIG    1       32.346  33.498  11.491  0.00  0.00    +0.210 HD
ENDBRANCH   4   8
BRANCH   3  10
ATOM     10  O   LIG    1       34.336  31.471  13.793  0.00  0.00    -0.383 OA
ATOM     11  H   LIG    1       34.548  32.307  14.240  0.00  0.00    +0.210 HD
ENDBRANCH   3  10
BRANCH   2  12
ATOM     12  O   LIG    1       32.575  29.341  14.403  0.00  0.00    -0.453 OA
BRANCH  12  13
ATOM     13  C   LIG    1       32.563  28.729  15.637  0.00  0.00    +0.214 A 
ATOM     14  C   LIG    1       33.631  29.083  16.602  0.00  0.00    +0.238 A 
ATOM     15  C   LIG    1       33.569  28.424  17.916  0.00  0.00    +0.109 A 
ATOM     16  C   LIG    1       34.532  28.689  18.894  0.00  0.00    +0.135 A 
ATOM     17  C   LIG    1       34.448  28.051  20.133  0.00  0.00    +0.091 A 
ATOM     18  C   LIG    1       33.410  27.156  20.391  0.00  0.00    +0.124 A 
ATOM     19  C   LIG    1       32.451  26.894  19.413  0.00  0.00    +0.092 A 
ATOM     24  C   LIG    1       32.533  27.530  18.173  0.00  0.00    +0.147 A 
ATOM     25  O   LIG    1       31.561  27.233  17.253  0.00  0.00    -0.451 OA
ATOM     26  O   LIG    1       34.515  29.881  16.321  0.00  0.00    -0.283 OA
ATOM     27  C   LIG    1       31.621  27.841  16.008  0.00  0.00    +0.181 A 
BRANCH  27  28
ATOM     28  C   LIG    1       30.520  27.437  15.117  0.00  0.00    +0.025 A 
ATOM     29  C   LIG    1       30.687  26.361  14.245  0.00  0.00    +0.015 A 
ATOM     30  C   LIG    1       29.645  25.978  13.402  0.00  0.00    +0.050 A 
ATOM     31  C   LIG    1       28.434  26.671  13.429  0.00  0.00    +0.158 A 
ATOM     32  C   LIG    1       28.266  27.746  14.300  0.00  0.00    +0.159 A 
ATOM     37  C   LIG    1       29.309  28.129  15.145  0.00  0.00    +0.060 A 
BRANCH  32  33
ATOM     33  O   LIG    1       27.088  28.430  14.338  0.00  0.00    -0.503 OA
ATOM     34  H   LIG    1       27.076  29.098  13.633  0.00  0.00    +0.292 HD
ENDBRANCH  32  33
BRANCH  31  35
ATOM     35  O   LIG    1       27.424  26.289  12.599  0.00  0.00    -0.503 OA
ATOM     36  H   LIG    1       26.583  26.293  13.083  0.00  0.00    +0.292 HD
ENDBRANCH  31  35
ENDBRANCH  27  28
BRANCH  18  20
ATOM     20  O   LIG    1       33.332  26.536  21.601  0.00  0.00    -0.507 OA
ATOM     21  H   LIG    1       32.481  26.070  21.663  0.00  0.00    +0.292 HD
ENDBRANCH  18  20
BRANCH  16  22
ATOM     22  O   LIG    1       35.565  29.554  18.693  0.00  0.00    -0.506 OA
ATOM     23  H   LIG    1       36.170  29.188  18.025  0.00  0.00    +0.292 HD
ENDBRANCH  16  22
ENDBRANCH  12  13
ENDBRANCH   2  12
BRANCH  38  39
ATOM     39  C   LIG    1       28.782  32.125  14.217  0.00  0.00    +0.197 C 
BRANCH  39  40
ATOM     40  O   LIG    1       28.213  31.710  15.451  0.00  0.00    -0.346 OA
BRANCH  40  41
ATOM     41  C   LIG    1       28.548  32.605  16.506  0.00  0.00    +0.282 C 
ATOM     42  C   LIG    1       27.304  32.910  17.338  0.00  0.00    +0.201 C 
ATOM     43  C   LIG    1       26.878  31.687  18.152  0.00  0.00    +0.179 C 
ATOM     44  C   LIG    1       28.051  31.134  18.963  0.00  0.00    +0.174 C 
ATOM     45  C   LIG    1       29.263  30.907  18.050  0.00  0.00    +0.149 C 
ATOM     46  C   LIG    1       30.504  30.494  18.838  0.00  0.00    +0.041 C 
ATOM     53  O   LIG    1       29.600  32.101  17.336  0.00  0.00    -0.343 OA
BRANCH  44  47
ATOM     47  O   LIG    1       27.640  29.903  19.554  0.00  0.00    -0.387 OA
ATOM     48  H   LIG    1       28.237  29.717  20.298  0.00  0.00    +0.210 HD
ENDBRANCH  44  47
BRANCH  43  49
ATOM     49  O   LIG    1       25.818  32.038  19.039  0.00  0.00    -0.386 OA
ATOM     50  H   LIG    1       25.787  33.009  19.093  0.00  0.00    +0.210 HD
ENDBRANCH  43  49
BRANCH  42  51
ATOM     51  O   LIG    1       27.621  33.992  18.215  0.00  0.00    -0.384 OA
ATOM     52  H   LIG    1       28.269  33.677  18.869  0.00  0.00    +0.210 HD
ENDBRANCH  42  51
ENDBRANCH  40  41
ENDBRANCH  39  40
ENDBRANCH  38  39
TORSDOF 16
ENDMDL
MODEL 9
REMARK VINA RESULT:      -6.8      2.472      5.823
REMARK  Name = 5280805
REMARK                            x       y       z     vdW  Elec       q    Type
REMARK                         _______ _______ _______ _____ _____    ______ ____
ROOT
ATOM      1  O   LIG    1       29.143  30.007  17.556  0.00  0.00    -0.331 OA
ATOM      2  C   LIG    1       28.728  31.084  16.718  0.00  0.00    +0.340 C 
ATOM      3  C   LIG    1       27.339  31.576  17.124  0.00  0.00    +0.214 C 
ATOM      4  C   LIG    1       27.287  31.930  18.610  0.00  0.00    +0.180 C 
ATOM      5  C   LIG    1       27.888  30.815  19.466  0.00  0.00    +0.177 C 
ATOM     38  C   LIG    1       29.257  30.394  18.927  0.00  0.00    +0.179 C 
ENDROOT
BRANCH   5   6
ATOM      6  O   LIG    1       28.032  31.277  20.807  0.00  0.00    -0.386 OA
ATOM      7  H   LIG    1       28.869  30.927  21.158  0.00  0.00    +0.210 HD
ENDBRANCH   5   6
BRANCH   4   8
ATOM      8  O   LIG    1       25.927  32.109  19.010  0.00  0.00    -0.386 OA
ATOM      9  H   LIG    1       25.860  31.840  19.942  0.00  0.00    +0.210 HD
ENDBRANCH   4   8
BRANCH   3  10
ATOM     10  O   LIG    1       27.030  32.734  16.349  0.00  0.00    -0.383 OA
ATOM     11  H   LIG    1       26.126  33.013  16.571  0.00  0.00    +0.210 HD
ENDBRANCH   3  10
BRANCH   2  12
ATOM     12  O   LIG    1       28.659  30.640  15.363  0.00  0.00    -0.453 OA
BRANCH  12  13
ATOM     13  C   LIG    1       29.781  31.005  14.652  0.00  0.00    +0.214 A 
ATOM     14  C   LIG    1       29.984  32.444  14.360  0.00  0.00    +0.238 A 
ATOM     15  C   LIG    1       31.204  32.793  13.617  0.00  0.00    +0.109 A 
ATOM     16  C   LIG    1       31.486  34.123  13.290  0.00  0.00    +0.135 A 
ATOM     17  C   LIG    1       32.653  34.426  12.587  0.00  0.00    +0.091 A 
ATOM     18  C   LIG    1       33.531  33.409  12.213  0.00  0.00    +0.124 A 
ATOM     19  C   LIG    1       33.247  32.083  12.542  0.00  0.00    +0.092 A 
ATOM     24  C   LIG    1       32.081  31.777  13.245  0.00  0.00    +0.147 A 
ATOM     25  O   LIG    1       31.857  30.457  13.539  0.00  0.00    -0.451 OA
ATOM     26  O   LIG    1       29.180  33.294  14.718  0.00  0.00    -0.283 OA
ATOM     27  C   LIG    1       30.702  30.120  14.228  0.00  0.00    +0.181 A 
BRANCH  27  28
ATOM     28  C   LIG    1       30.584  28.673  14.479  0.00  0.00    +0.025 A 
ATOM     29  C   LIG    1       31.304  28.084  15.519  0.00  0.00    +0.015 A 
ATOM     30  C   LIG    1       31.192  26.715  15.758  0.00  0.00    +0.050 A 
ATOM     31  C   LIG    1       30.362  25.932  14.955  0.00  0.00    +0.158 A 
ATOM     32  C   LIG    1       29.642  26.520  13.915  0.00  0.00    +0.159 A 
ATOM     37  C   LIG    1       29.753  27.890  13.678  0.00  0.00    +0.060 A 
BRANCH  32  33
ATOM     33  O   LIG    1       28.826  25.767  13.126  0.00  0.00    -0.503 OA
ATOM     34  H   LIG    1       29.359  25.139  12.610  0.00  0.00    +0.292 HD
ENDBRANCH  32  33
BRANCH  31  35
ATOM     35  O   LIG    1       30.262  24.596  15.197  0.00  0.00    -0.503 OA
ATOM     36  H   LIG    1       29.686  24.443  15.962  0.00  0.00    +0.292 HD
ENDBRANCH  31  35
ENDBRANCH  27  28
BRANCH  18  20
ATOM     20  O   LIG    1       34.668  33.710  11.528  0.00  0.00    -0.507 OA
ATOM     21  H   LIG    1       35.426  33.297  11.977  0.00  0.00    +0.292 HD
ENDBRANCH  18  20
BRANCH  16  22
ATOM     22  O   LIG    1       30.663  35.154  13.631  0.00  0.00    -0.506 OA
ATOM     23  H   LIG    1       30.361  35.038  14.548  0.00  0.00    +0.292 HD
ENDBRANCH  16  22
ENDBRANCH  12  13
ENDBRANCH   2  12
BRANCH  38  39
ATOM     39  C   LIG    1       29.825  29.204  19.694  0.00  0.00    +0.197 C 
BRANCH  39  40
ATOM     40  O   LIG    1       31.109  28.889  19.173  0.00  0.00    -0.346 OA
BRANCH  40  41
ATOM     41  C   LIG    1       31.692  27.784  19.857  0.00  0.00    +0.282 C 
ATOM     42  C   LIG    1       32.776  27.151  18.986  0.00  0.00    +0.201 C 
ATOM     43  C   LIG    1       33.994  28.070  18.878  0.00  0.00    +0.179 C 
ATOM     44  C   LIG    1       34.478  28.502  20.263  0.00  0.00    +0.174 C 
ATOM     45  C   LIG    1       33.311  29.077  21.074  0.00  0.00    +0.149 C 
ATOM     46  C   LIG    1       33.713  29.387  22.515  0.00  0.00    +0.041 C 
ATOM     53  O   LIG    1       32.220  28.152  21.135  0.00  0.00    -0.343 OA
BRANCH  44  47
ATOM     47  O   LIG    1       35.493  29.488  20.090  0.00  0.00    -0.387 OA
ATOM     48  H   LIG    1       36.291  29.040  19.760  0.00  0.00    +0.210 HD
ENDBRANCH  44  47
BRANCH  43  49
ATOM     49  O   LIG    1       35.052  27.397  18.199  0.00  0.00    -0.386 OA
ATOM     50  H   LIG    1       35.051  27.699  17.275  0.00  0.00    +0.210 HD
ENDBRANCH  43  49
BRANCH  42  51
ATOM     51  O   LIG    1       33.151  25.913  19.591  0.00  0.00    -0.384 OA
ATOM     52  H   LIG    1       32.691  25.193  19.127  0.00  0.00    +0.210 HD
ENDBRANCH  42  51
ENDBRANCH  40  41
ENDBRANCH  39  40
ENDBRANCH  38  39
TORSDOF 16
ENDMDL
