MODEL 1
REMARK VINA RESULT:      -8.4      0.000      0.000
REMARK  16 active torsions:
REMARK  status: ('A' for Active; 'I' for Inactive)
REMARK    1  A    between atoms: O_2  and  C_22 
REMARK    2  A    between atoms: O_2  and  C_26 
REMARK    3  A    between atoms: O_4  and  C_18 
REMARK    4  A    between atoms: O_5  and  C_19 
REMARK    5  A    between atoms: O_6  and  C_25 
REMARK    6  A    between atoms: O_6  and  C_29 
REMARK    7  A    between atoms: O_7  and  C_20 
REMARK    8  A    between atoms: O_8  and  C_21 
REMARK    9  A    between atoms: O_9  and  C_23 
REMARK   10  A    between atoms: O_10  and  C_24 
REMARK   11  A    between atoms: O_13  and  C_35 
REMARK   12  A    between atoms: O_14  and  C_40 
REMARK   13  A    between atoms: O_15  and  C_41 
REMARK   14  A    between atoms: O_16  and  C_43 
REMARK   15  A    between atoms: C_17  and  C_26 
REMARK   16  A    between atoms: C_30  and  C_33 
ROOT
HETATM    1  O   UNK     0       6.959  43.515  25.352  0.00  0.00    -0.348 OA
HETATM    2  C   UNK     0       8.283  43.082  25.674  0.00  0.00     0.180 C 
HETATM    3  C   UNK     0       9.236  44.279  25.683  0.00  0.00     0.180 C 
HETATM    4  C   UNK     0       9.190  45.019  24.346  0.00  0.00     0.183 C 
HETATM    5  C   UNK     0       7.750  45.316  23.926  0.00  0.00     0.205 C 
HETATM    6  C   UNK     0       6.870  44.071  24.042  0.00  0.00     0.298 C 
ENDROOT
BRANCH   2   7
HETATM    7  C   UNK     0       8.223  42.397  27.036  0.00  0.00     0.205 C 
BRANCH   7   8
HETATM    8  O   UNK     0       6.865  42.152  27.371  0.00  0.00    -0.356 OA
BRANCH   8   9
HETATM    9  C   UNK     0       6.738  41.655  28.699  0.00  0.00     0.291 C 
HETATM   10  O   UNK     0       6.142  40.354  28.740  0.00  0.00    -0.351 OA
HETATM   11  C   UNK     0       4.790  40.313  28.273  0.00  0.00     0.152 C 
HETATM   12  C   UNK     0       3.891  41.237  29.106  0.00  0.00     0.178 C 
HETATM   13  C   UNK     0       4.337  38.857  28.346  0.00  0.00     0.042 C 
HETATM   14  C   UNK     0       4.465  42.654  29.124  0.00  0.00     0.183 C 
HETATM   15  C   UNK     0       5.936  42.643  29.545  0.00  0.00     0.204 C 
BRANCH  12  16
HETATM   16  O   UNK     0       2.584  41.296  28.539  0.00  0.00    -0.390 OA
HETATM   17  H   UNK     0       1.985  41.668  29.208  0.00  0.00     0.210 HD
ENDBRANCH  12  16
BRANCH  14  18
HETATM   18  O   UNK     0       3.708  43.457  30.026  0.00  0.00    -0.390 OA
HETATM   19  H   UNK     0       3.476  44.282  29.566  0.00  0.00     0.210 HD
ENDBRANCH  14  18
BRANCH  15  20
HETATM   20  O   UNK     0       6.048  42.237  30.910  0.00  0.00    -0.388 OA
HETATM   21  H   UNK     0       5.476  41.463  31.048  0.00  0.00     0.210 HD
ENDBRANCH  15  20
ENDBRANCH   8   9
ENDBRANCH   7   8
ENDBRANCH   2   7
BRANCH   6  22
HETATM   22  O   UNK     0       5.523  44.459  23.774  0.00  0.00    -0.311 OA
BRANCH  22  23
HETATM   23  C   UNK     0       4.778  43.405  23.293  0.00  0.00     0.157 A 
HETATM   24  C   UNK     0       4.728  43.075  21.990  0.00  0.00     0.124 A 
HETATM   25  O   UNK     0       3.964  42.042  21.469  0.00  0.00    -0.306 OA
HETATM   26  C   UNK     0       3.217  41.282  22.331  0.00  0.00     0.096 A 
HETATM   27  C   UNK     0       3.185  41.510  23.705  0.00  0.00     0.084 A 
HETATM   28  C   UNK     0       2.467  40.244  21.778  0.00  0.00     0.075 A 
HETATM   29  C   UNK     0       3.983  42.613  24.262  0.00  0.00     0.223 A 
HETATM   30  C   UNK     0       2.403  40.703  24.536  0.00  0.00     0.085 A 
HETATM   31  O   UNK     0       3.990  42.864  25.460  0.00  0.00    -0.284 OA
HETATM   32  C   UNK     0       1.654  39.665  23.980  0.00  0.00     0.074 A 
HETATM   33  C   UNK     0       1.686  39.435  22.605  0.00  0.00     0.071 A 
BRANCH  24  34
HETATM   34  C   UNK     0       5.480  43.810  20.957  0.00  0.00     0.004 A 
HETATM   35  C   UNK     0       5.054  45.076  20.552  0.00  0.00     0.053 A 
HETATM   36  C   UNK     0       5.766  45.773  19.576  0.00  0.00     0.099 A 
HETATM   37  C   UNK     0       6.904  45.204  19.004  0.00  0.00     0.098 A 
HETATM   38  C   UNK     0       7.330  43.939  19.408  0.00  0.00     0.040 A 
HETATM   39  C   UNK     0       6.618  43.243  20.385  0.00  0.00     0.017 A 
BRANCH  36  40
HETATM   40  O   UNK     0       5.339  47.007  19.187  0.00  0.00    -0.358 OA
HETATM   41  H   UNK     0       4.512  47.227  19.648  0.00  0.00     0.217 HD
ENDBRANCH  36  40
BRANCH  37  42
HETATM   42  O   UNK     0       7.608  45.876  18.050  0.00  0.00    -0.358 OA
HETATM   43  H   UNK     0       7.757  46.790  18.336  0.00  0.00     0.217 HD
ENDBRANCH  37  42
ENDBRANCH  24  34
BRANCH  30  44
HETATM   44  O   UNK     0       2.336  40.884  25.884  0.00  0.00    -0.360 OA
HETATM   45  H   UNK     0       2.554  40.050  26.335  0.00  0.00     0.217 HD
ENDBRANCH  30  44
BRANCH  33  46
HETATM   46  O   UNK     0       0.953  38.422  22.067  0.00  0.00    -0.361 OA
HETATM   47  H   UNK     0       1.546  37.681  21.855  0.00  0.00     0.217 HD
ENDBRANCH  33  46
ENDBRANCH  22  23
ENDBRANCH   6  22
BRANCH   3  48
HETATM   48  O   UNK     0      10.564  43.822  25.922  0.00  0.00    -0.390 OA
HETATM   49  H   UNK     0      11.030  44.505  26.434  0.00  0.00     0.210 HD
ENDBRANCH   3  48
BRANCH   5  50
HETATM   50  O   UNK     0       7.733  45.752  22.567  0.00  0.00    -0.388 OA
HETATM   51  H   UNK     0       7.083  45.212  22.086  0.00  0.00     0.210 HD
ENDBRANCH   5  50
BRANCH   4  52
HETATM   52  O   UNK     0       9.904  46.248  24.497  0.00  0.00    -0.390 OA
HETATM   53  H   UNK     0      10.707  46.187  23.951  0.00  0.00     0.210 HD
ENDBRANCH   4  52
TORSDOF 16
ENDMDL
MODEL 2
REMARK VINA RESULT:      -8.4      2.198      3.001
REMARK  16 active torsions:
REMARK  status: ('A' for Active; 'I' for Inactive)
REMARK    1  A    between atoms: O_2  and  C_22 
REMARK    2  A    between atoms: O_2  and  C_26 
REMARK    3  A    between atoms: O_4  and  C_18 
REMARK    4  A    between atoms: O_5  and  C_19 
REMARK    5  A    between atoms: O_6  and  C_25 
REMARK    6  A    between atoms: O_6  and  C_29 
REMARK    7  A    between atoms: O_7  and  C_20 
REMARK    8  A    between atoms: O_8  and  C_21 
REMARK    9  A    between atoms: O_9  and  C_23 
REMARK   10  A    between atoms: O_10  and  C_24 
REMARK   11  A    between atoms: O_13  and  C_35 
REMARK   12  A    between atoms: O_14  and  C_40 
REMARK   13  A    between atoms: O_15  and  C_41 
REMARK   14  A    between atoms: O_16  and  C_43 
REMARK   15  A    between atoms: C_17  and  C_26 
REMARK   16  A    between atoms: C_30  and  C_33 
ROOT
HETATM    1  O   UNK     0       7.748  43.764  25.789  0.00  0.00    -0.348 OA
HETATM    2  C   UNK     0       9.056  43.192  25.861  0.00  0.00     0.180 C 
HETATM    3  C   UNK     0      10.113  44.296  25.775  0.00  0.00     0.180 C 
HETATM    4  C   UNK     0       9.926  45.128  24.507  0.00  0.00     0.183 C 
HETATM    5  C   UNK     0       8.474  45.582  24.350  0.00  0.00     0.205 C 
HETATM    6  C   UNK     0       7.504  44.416  24.545  0.00  0.00     0.298 C 
ENDROOT
BRANCH   2   7
HETATM    7  C   UNK     0       9.148  42.422  27.175  0.00  0.00     0.205 C 
BRANCH   7   8
HETATM    8  O   UNK     0       9.747  43.253  28.157  0.00  0.00    -0.356 OA
BRANCH   8   9
HETATM    9  C   UNK     0      10.344  42.485  29.196  0.00  0.00     0.291 C 
HETATM   10  O   UNK     0       9.381  41.741  29.948  0.00  0.00    -0.351 OA
HETATM   11  C   UNK     0       8.449  42.551  30.672  0.00  0.00     0.152 C 
HETATM   12  C   UNK     0       9.173  43.469  31.667  0.00  0.00     0.178 C 
HETATM   13  C   UNK     0       7.480  41.602  31.371  0.00  0.00     0.042 C 
HETATM   14  C   UNK     0      10.236  44.296  30.942  0.00  0.00     0.183 C 
HETATM   15  C   UNK     0      11.156  43.398  30.113  0.00  0.00     0.204 C 
BRANCH  12  16
HETATM   16  O   UNK     0       8.248  44.369  32.273  0.00  0.00    -0.390 OA
HETATM   17  H   UNK     0       7.807  44.866  31.563  0.00  0.00     0.210 HD
ENDBRANCH  12  16
BRANCH  14  18
HETATM   18  O   UNK     0      11.001  45.022  31.901  0.00  0.00    -0.390 OA
HETATM   19  H   UNK     0      10.769  44.683  32.784  0.00  0.00     0.210 HD
ENDBRANCH  14  18
BRANCH  15  20
HETATM   20  O   UNK     0      11.935  42.568  30.976  0.00  0.00    -0.388 OA
HETATM   21  H   UNK     0      12.726  42.277  30.491  0.00  0.00     0.210 HD
ENDBRANCH  15  20
ENDBRANCH   8   9
ENDBRANCH   7   8
ENDBRANCH   2   7
BRANCH   6  22
HETATM   22  O   UNK     0       6.177  44.940  24.528  0.00  0.00    -0.311 OA
BRANCH  22  23
HETATM   23  C   UNK     0       5.264  43.996  24.115  0.00  0.00     0.157 A 
HETATM   24  C   UNK     0       4.931  43.810  22.825  0.00  0.00     0.124 A 
HETATM   25  O   UNK     0       3.993  42.892  22.378  0.00  0.00    -0.306 OA
HETATM   26  C   UNK     0       3.366  42.096  23.302  0.00  0.00     0.096 A 
HETATM   27  C   UNK     0       3.624  42.179  24.669  0.00  0.00     0.084 A 
HETATM   28  C   UNK     0       2.435  41.175  22.822  0.00  0.00     0.075 A 
HETATM   29  C   UNK     0       4.608  43.160  25.150  0.00  0.00     0.223 A 
HETATM   30  C   UNK     0       2.953  41.342  25.566  0.00  0.00     0.085 A 
HETATM   31  O   UNK     0       4.871  43.282  26.338  0.00  0.00    -0.284 OA
HETATM   32  C   UNK     0       2.022  40.422  25.082  0.00  0.00     0.074 A 
HETATM   33  C   UNK     0       1.764  40.338  23.714  0.00  0.00     0.071 A 
BRANCH  24  34
HETATM   34  C   UNK     0       5.527  44.599  21.731  0.00  0.00     0.004 A 
HETATM   35  C   UNK     0       5.078  45.896  21.482  0.00  0.00     0.053 A 
HETATM   36  C   UNK     0       5.643  46.643  20.449  0.00  0.00     0.099 A 
HETATM   37  C   UNK     0       6.656  46.093  19.663  0.00  0.00     0.098 A 
HETATM   38  C   UNK     0       7.104  44.796  19.912  0.00  0.00     0.040 A 
HETATM   39  C   UNK     0       6.540  44.049  20.946  0.00  0.00     0.017 A 
BRANCH  36  40
HETATM   40  O   UNK     0       5.195  47.909  20.213  0.00  0.00    -0.358 OA
HETATM   41  H   UNK     0       4.258  47.882  19.961  0.00  0.00     0.217 HD
ENDBRANCH  36  40
BRANCH  37  42
HETATM   42  O   UNK     0       7.215  46.813  18.651  0.00  0.00    -0.358 OA
HETATM   43  H   UNK     0       6.720  47.638  18.523  0.00  0.00     0.217 HD
ENDBRANCH  37  42
ENDBRANCH  24  34
BRANCH  30  44
HETATM   44  O   UNK     0       3.167  41.383  26.909  0.00  0.00    -0.360 OA
HETATM   45  H   UNK     0       3.514  42.258  27.157  0.00  0.00     0.217 HD
ENDBRANCH  30  44
BRANCH  33  46
HETATM   46  O   UNK     0       0.854  39.439  23.247  0.00  0.00    -0.361 OA
HETATM   47  H   UNK     0       0.108  39.392  23.870  0.00  0.00     0.217 HD
ENDBRANCH  33  46
ENDBRANCH  22  23
ENDBRANCH   6  22
BRANCH   3  48
HETATM   48  O   UNK     0      11.410  43.705  25.764  0.00  0.00    -0.390 OA
HETATM   49  H   UNK     0      11.454  43.089  25.013  0.00  0.00     0.210 HD
ENDBRANCH   3  48
BRANCH   5  50
HETATM   50  O   UNK     0       8.281  46.111  23.039  0.00  0.00    -0.388 OA
HETATM   51  H   UNK     0       7.635  46.835  23.099  0.00  0.00     0.210 HD
ENDBRANCH   5  50
BRANCH   4  52
HETATM   52  O   UNK     0      10.774  46.275  24.602  0.00  0.00    -0.390 OA
HETATM   53  H   UNK     0      11.690  45.954  24.660  0.00  0.00     0.210 HD
ENDBRANCH   4  52
TORSDOF 16
ENDMDL
MODEL 3
REMARK VINA RESULT:      -8.2      4.948      8.985
REMARK  16 active torsions:
REMARK  status: ('A' for Active; 'I' for Inactive)
REMARK    1  A    between atoms: O_2  and  C_22 
REMARK    2  A    between atoms: O_2  and  C_26 
REMARK    3  A    between atoms: O_4  and  C_18 
REMARK    4  A    between atoms: O_5  and  C_19 
REMARK    5  A    between atoms: O_6  and  C_25 
REMARK    6  A    between atoms: O_6  and  C_29 
REMARK    7  A    between atoms: O_7  and  C_20 
REMARK    8  A    between atoms: O_8  and  C_21 
REMARK    9  A    between atoms: O_9  and  C_23 
REMARK   10  A    between atoms: O_10  and  C_24 
REMARK   11  A    between atoms: O_13  and  C_35 
REMARK   12  A    between atoms: O_14  and  C_40 
REMARK   13  A    between atoms: O_15  and  C_41 
REMARK   14  A    between atoms: O_16  and  C_43 
REMARK   15  A    between atoms: C_17  and  C_26 
REMARK   16  A    between atoms: C_30  and  C_33 
ROOT
HETATM    1  O   UNK     0      11.319  43.776  20.734  0.00  0.00    -0.348 OA
HETATM    2  C   UNK     0      12.227  42.785  20.249  0.00  0.00     0.180 C 
HETATM    3  C   UNK     0      13.221  43.422  19.273  0.00  0.00     0.180 C 
HETATM    4  C   UNK     0      12.485  44.125  18.133  0.00  0.00     0.183 C 
HETATM    5  C   UNK     0      11.389  45.048  18.666  0.00  0.00     0.205 C 
HETATM    6  C   UNK     0      10.515  44.334  19.697  0.00  0.00     0.298 C 
ENDROOT
BRANCH   2   7
HETATM    7  C   UNK     0      12.933  42.178  21.458  0.00  0.00     0.205 C 
BRANCH   7   8
HETATM    8  O   UNK     0      14.149  42.875  21.682  0.00  0.00    -0.356 OA
BRANCH   8   9
HETATM    9  C   UNK     0      15.039  42.121  22.498  0.00  0.00     0.291 C 
HETATM   10  O   UNK     0      15.846  42.951  23.338  0.00  0.00    -0.351 OA
HETATM   11  C   UNK     0      16.744  43.809  22.626  0.00  0.00     0.152 C 
HETATM   12  C   UNK     0      17.709  42.993  21.753  0.00  0.00     0.178 C 
HETATM   13  C   UNK     0      17.484  44.644  23.668  0.00  0.00     0.042 C 
HETATM   14  C   UNK     0      16.923  42.064  20.828  0.00  0.00     0.183 C 
HETATM   15  C   UNK     0      15.914  41.229  21.619  0.00  0.00     0.204 C 
BRANCH  12  16
HETATM   16  O   UNK     0      18.497  43.863  20.943  0.00  0.00    -0.390 OA
HETATM   17  H   UNK     0      19.408  43.842  21.282  0.00  0.00     0.210 HD
ENDBRANCH  12  16
BRANCH  14  18
HETATM   18  O   UNK     0      17.831  41.206  20.141  0.00  0.00    -0.390 OA
HETATM   19  H   UNK     0      18.270  40.646  20.806  0.00  0.00     0.210 HD
ENDBRANCH  14  18
BRANCH  15  20
HETATM   20  O   UNK     0      16.603  40.316  22.475  0.00  0.00    -0.388 OA
HETATM   21  H   UNK     0      16.079  39.499  22.537  0.00  0.00     0.210 HD
ENDBRANCH  15  20
ENDBRANCH   8   9
ENDBRANCH   7   8
ENDBRANCH   2   7
BRANCH   6  22
HETATM   22  O   UNK     0       9.615  45.294  20.249  0.00  0.00    -0.311 OA
BRANCH  22  23
HETATM   23  C   UNK     0       8.373  44.746  20.487  0.00  0.00     0.157 A 
HETATM   24  C   UNK     0       7.982  44.310  21.698  0.00  0.00     0.124 A 
HETATM   25  O   UNK     0       6.754  43.725  21.965  0.00  0.00    -0.306 OA
HETATM   26  C   UNK     0       5.856  43.592  20.937  0.00  0.00     0.096 A 
HETATM   27  C   UNK     0       6.130  44.010  19.636  0.00  0.00     0.084 A 
HETATM   28  C   UNK     0       4.625  43.008  21.238  0.00  0.00     0.075 A 
HETATM   29  C   UNK     0       7.437  44.619  19.345  0.00  0.00     0.223 A 
HETATM   30  C   UNK     0       5.176  43.848  18.627  0.00  0.00     0.085 A 
HETATM   31  O   UNK     0       7.735  44.999  18.220  0.00  0.00    -0.284 OA
HETATM   32  C   UNK     0       3.946  43.264  18.932  0.00  0.00     0.074 A 
HETATM   33  C   UNK     0       3.670  42.846  20.234  0.00  0.00     0.071 A 
BRANCH  24  34
HETATM   34  C   UNK     0       8.849  44.391  22.887  0.00  0.00     0.004 A 
HETATM   35  C   UNK     0       9.397  45.615  23.269  0.00  0.00     0.053 A 
HETATM   36  C   UNK     0      10.216  45.692  24.395  0.00  0.00     0.099 A 
HETATM   37  C   UNK     0      10.489  44.545  25.139  0.00  0.00     0.098 A 
HETATM   38  C   UNK     0       9.942  43.320  24.757  0.00  0.00     0.040 A 
HETATM   39  C   UNK     0       9.122  43.243  23.632  0.00  0.00     0.017 A 
BRANCH  36  40
HETATM   40  O   UNK     0      10.747  46.894  24.758  0.00  0.00    -0.358 OA
HETATM   41  H   UNK     0      11.535  46.751  25.307  0.00  0.00     0.217 HD
ENDBRANCH  36  40
BRANCH  37  42
HETATM   42  O   UNK     0      11.288  44.607  26.241  0.00  0.00    -0.358 OA
HETATM   43  H   UNK     0      11.262  45.503  26.614  0.00  0.00     0.217 HD
ENDBRANCH  37  42
ENDBRANCH  24  34
BRANCH  30  44
HETATM   44  O   UNK     0       5.394  44.238  17.341  0.00  0.00    -0.360 OA
HETATM   45  H   UNK     0       5.152  43.514  16.737  0.00  0.00     0.217 HD
ENDBRANCH  30  44
BRANCH  33  46
HETATM   46  O   UNK     0       2.469  42.277  20.525  0.00  0.00    -0.361 OA
HETATM   47  H   UNK     0       1.787  42.970  20.545  0.00  0.00     0.217 HD
ENDBRANCH  33  46
ENDBRANCH  22  23
ENDBRANCH   6  22
BRANCH   3  48
HETATM   48  O   UNK     0      14.066  42.409  18.735  0.00  0.00    -0.390 OA
HETATM   49  H   UNK     0      13.977  41.616  19.289  0.00  0.00     0.210 HD
ENDBRANCH   3  48
BRANCH   5  50
HETATM   50  O   UNK     0      10.556  45.468  17.586  0.00  0.00    -0.388 OA
HETATM   51  H   UNK     0       9.707  45.760  17.956  0.00  0.00     0.210 HD
ENDBRANCH   5  50
BRANCH   4  52
HETATM   52  O   UNK     0      13.441  44.895  17.400  0.00  0.00    -0.390 OA
HETATM   53  H   UNK     0      13.590  45.720  17.894  0.00  0.00     0.210 HD
ENDBRANCH   4  52
TORSDOF 16
ENDMDL
MODEL 4
REMARK VINA RESULT:      -8.1      2.102      3.493
REMARK  16 active torsions:
REMARK  status: ('A' for Active; 'I' for Inactive)
REMARK    1  A    between atoms: O_2  and  C_22 
REMARK    2  A    between atoms: O_2  and  C_26 
REMARK    3  A    between atoms: O_4  and  C_18 
REMARK    4  A    between atoms: O_5  and  C_19 
REMARK    5  A    between atoms: O_6  and  C_25 
REMARK    6  A    between atoms: O_6  and  C_29 
REMARK    7  A    between atoms: O_7  and  C_20 
REMARK    8  A    between atoms: O_8  and  C_21 
REMARK    9  A    between atoms: O_9  and  C_23 
REMARK   10  A    between atoms: O_10  and  C_24 
REMARK   11  A    between atoms: O_13  and  C_35 
REMARK   12  A    between atoms: O_14  and  C_40 
REMARK   13  A    between atoms: O_15  and  C_41 
REMARK   14  A    between atoms: O_16  and  C_43 
REMARK   15  A    between atoms: C_17  and  C_26 
REMARK   16  A    between atoms: C_30  and  C_33 
ROOT
HETATM    1  O   UNK     0       7.186  43.545  25.428  0.00  0.00    -0.348 OA
HETATM    2  C   UNK     0       8.503  43.065  25.704  0.00  0.00     0.180 C 
HETATM    3  C   UNK     0       9.485  44.238  25.758  0.00  0.00     0.180 C 
HETATM    4  C   UNK     0       9.436  45.047  24.462  0.00  0.00     0.183 C 
HETATM    5  C   UNK     0       7.997  45.398  24.083  0.00  0.00     0.205 C 
HETATM    6  C   UNK     0       7.089  44.170  24.150  0.00  0.00     0.298 C 
ENDROOT
BRANCH   2   7
HETATM    7  C   UNK     0       8.448  42.312  27.030  0.00  0.00     0.205 C 
BRANCH   7   8
HETATM    8  O   UNK     0       8.953  43.149  28.059  0.00  0.00    -0.356 OA
BRANCH   8   9
HETATM    9  C   UNK     0       9.169  42.422  29.264  0.00  0.00     0.291 C 
HETATM   10  O   UNK     0       9.048  43.246  30.427  0.00  0.00    -0.351 OA
HETATM   11  C   UNK     0      10.035  44.279  30.519  0.00  0.00     0.152 C 
HETATM   12  C   UNK     0      11.451  43.688  30.541  0.00  0.00     0.178 C 
HETATM   13  C   UNK     0       9.729  45.077  31.785  0.00  0.00     0.042 C 
HETATM   14  C   UNK     0      11.661  42.779  29.330  0.00  0.00     0.183 C 
HETATM   15  C   UNK     0      10.538  41.745  29.221  0.00  0.00     0.204 C 
BRANCH  12  16
HETATM   16  O   UNK     0      12.422  44.731  30.486  0.00  0.00    -0.390 OA
HETATM   17  H   UNK     0      12.744  44.791  29.571  0.00  0.00     0.210 HD
ENDBRANCH  12  16
BRANCH  14  18
HETATM   18  O   UNK     0      12.919  42.119  29.450  0.00  0.00    -0.390 OA
HETATM   19  H   UNK     0      12.818  41.406  30.105  0.00  0.00     0.210 HD
ENDBRANCH  14  18
BRANCH  15  20
HETATM   20  O   UNK     0      10.607  40.833  30.318  0.00  0.00    -0.388 OA
HETATM   21  H   UNK     0      10.833  39.953  29.971  0.00  0.00     0.210 HD
ENDBRANCH  15  20
ENDBRANCH   8   9
ENDBRANCH   7   8
ENDBRANCH   2   7
BRANCH   6  22
HETATM   22  O   UNK     0       5.748  44.602  23.925  0.00  0.00    -0.311 OA
BRANCH  22  23
HETATM   23  C   UNK     0       4.952  43.572  23.475  0.00  0.00     0.157 A 
HETATM   24  C   UNK     0       4.831  43.251  22.174  0.00  0.00     0.124 A 
HETATM   25  O   UNK     0       4.014  42.243  21.685  0.00  0.00    -0.306 OA
HETATM   26  C   UNK     0       3.289  41.498  22.578  0.00  0.00     0.096 A 
HETATM   27  C   UNK     0       3.328  41.718  23.953  0.00  0.00     0.084 A 
HETATM   28  C   UNK     0       2.484  40.484  22.057  0.00  0.00     0.075 A 
HETATM   29  C   UNK     0       4.182  42.796  24.477  0.00  0.00     0.223 A 
HETATM   30  C   UNK     0       2.565  40.928  24.817  0.00  0.00     0.085 A 
HETATM   31  O   UNK     0       4.253  43.039  25.674  0.00  0.00    -0.284 OA
HETATM   32  C   UNK     0       1.762  39.914  24.293  0.00  0.00     0.074 A 
HETATM   33  C   UNK     0       1.722  39.693  22.916  0.00  0.00     0.071 A 
BRANCH  24  34
HETATM   34  C   UNK     0       5.552  43.972  21.111  0.00  0.00     0.004 A 
HETATM   35  C   UNK     0       5.116  45.233  20.702  0.00  0.00     0.053 A 
HETATM   36  C   UNK     0       5.799  45.916  19.697  0.00  0.00     0.099 A 
HETATM   37  C   UNK     0       6.919  45.339  19.098  0.00  0.00     0.098 A 
HETATM   38  C   UNK     0       7.355  44.078  19.506  0.00  0.00     0.040 A 
HETATM   39  C   UNK     0       6.672  43.396  20.512  0.00  0.00     0.017 A 
BRANCH  36  40
HETATM   40  O   UNK     0       5.362  47.146  19.305  0.00  0.00    -0.358 OA
HETATM   41  H   UNK     0       5.761  47.829  19.869  0.00  0.00     0.217 HD
ENDBRANCH  36  40
BRANCH  37  42
HETATM   42  O   UNK     0       7.595  45.997  18.115  0.00  0.00    -0.358 OA
HETATM   43  H   UNK     0       8.532  46.069  18.355  0.00  0.00     0.217 HD
ENDBRANCH  37  42
ENDBRANCH  24  34
BRANCH  30  44
HETATM   44  O   UNK     0       2.568  41.102  26.167  0.00  0.00    -0.360 OA
HETATM   45  H   UNK     0       1.808  41.653  26.425  0.00  0.00     0.217 HD
ENDBRANCH  30  44
BRANCH  33  46
HETATM   46  O   UNK     0       0.936  38.703  22.409  0.00  0.00    -0.361 OA
HETATM   47  H   UNK     0       0.579  38.991  21.552  0.00  0.00     0.217 HD
ENDBRANCH  33  46
ENDBRANCH  22  23
ENDBRANCH   6  22
BRANCH   3  48
HETATM   48  O   UNK     0      10.806  43.738  25.951  0.00  0.00    -0.390 OA
HETATM   49  H   UNK     0      11.317  44.414  26.426  0.00  0.00     0.210 HD
ENDBRANCH   3  48
BRANCH   5  50
HETATM   50  O   UNK     0       7.968  45.904  22.749  0.00  0.00    -0.388 OA
HETATM   51  H   UNK     0       8.080  45.155  22.140  0.00  0.00     0.210 HD
ENDBRANCH   5  50
BRANCH   4  52
HETATM   52  O   UNK     0      10.181  46.249  24.664  0.00  0.00    -0.390 OA
HETATM   53  H   UNK     0      10.722  46.393  23.869  0.00  0.00     0.210 HD
ENDBRANCH   4  52
TORSDOF 16
ENDMDL
MODEL 5
REMARK VINA RESULT:      -7.9      1.948      7.186
REMARK  16 active torsions:
REMARK  status: ('A' for Active; 'I' for Inactive)
REMARK    1  A    between atoms: O_2  and  C_22 
REMARK    2  A    between atoms: O_2  and  C_26 
REMARK    3  A    between atoms: O_4  and  C_18 
REMARK    4  A    between atoms: O_5  and  C_19 
REMARK    5  A    between atoms: O_6  and  C_25 
REMARK    6  A    between atoms: O_6  and  C_29 
REMARK    7  A    between atoms: O_7  and  C_20 
REMARK    8  A    between atoms: O_8  and  C_21 
REMARK    9  A    between atoms: O_9  and  C_23 
REMARK   10  A    between atoms: O_10  and  C_24 
REMARK   11  A    between atoms: O_13  and  C_35 
REMARK   12  A    between atoms: O_14  and  C_40 
REMARK   13  A    between atoms: O_15  and  C_41 
REMARK   14  A    between atoms: O_16  and  C_43 
REMARK   15  A    between atoms: C_17  and  C_26 
REMARK   16  A    between atoms: C_30  and  C_33 
ROOT
HETATM    1  O   UNK     0       6.659  42.610  24.238  0.00  0.00    -0.348 OA
HETATM    2  C   UNK     0       7.681  43.591  24.053  0.00  0.00     0.180 C 
HETATM    3  C   UNK     0       8.770  43.042  23.128  0.00  0.00     0.180 C 
HETATM    4  C   UNK     0       9.334  41.730  23.672  0.00  0.00     0.183 C 
HETATM    5  C   UNK     0       8.215  40.755  24.037  0.00  0.00     0.205 C 
HETATM    6  C   UNK     0       7.141  41.435  24.887  0.00  0.00     0.298 C 
ENDROOT
BRANCH   2   7
HETATM    7  C   UNK     0       7.021  44.838  23.472  0.00  0.00     0.205 C 
BRANCH   7   8
HETATM    8  O   UNK     0       6.801  44.640  22.084  0.00  0.00    -0.356 OA
BRANCH   8   9
HETATM    9  C   UNK     0       5.686  45.395  21.620  0.00  0.00     0.291 C 
HETATM   10  O   UNK     0       4.793  44.615  20.820  0.00  0.00    -0.351 OA
HETATM   11  C   UNK     0       5.365  44.141  19.596  0.00  0.00     0.152 C 
HETATM   12  C   UNK     0       5.838  45.310  18.720  0.00  0.00     0.178 C 
HETATM   13  C   UNK     0       4.297  43.301  18.900  0.00  0.00     0.042 C 
HETATM   14  C   UNK     0       6.793  46.206  19.509  0.00  0.00     0.183 C 
HETATM   15  C   UNK     0       6.176  46.618  20.847  0.00  0.00     0.204 C 
BRANCH  12  16
HETATM   16  O   UNK     0       6.533  44.819  17.576  0.00  0.00    -0.390 OA
HETATM   17  H   UNK     0       5.893  44.741  16.848  0.00  0.00     0.210 HD
ENDBRANCH  12  16
BRANCH  14  18
HETATM   18  O   UNK     0       7.095  47.365  18.736  0.00  0.00    -0.390 OA
HETATM   19  H   UNK     0       8.055  47.374  18.578  0.00  0.00     0.210 HD
ENDBRANCH  14  18
BRANCH  15  20
HETATM   20  O   UNK     0       5.053  47.471  20.624  0.00  0.00    -0.388 OA
HETATM   21  H   UNK     0       5.268  48.078  19.895  0.00  0.00     0.210 HD
ENDBRANCH  15  20
ENDBRANCH   8   9
ENDBRANCH   7   8
ENDBRANCH   2   7
BRANCH   6  22
HETATM   22  O   UNK     0       6.069  40.510  25.064  0.00  0.00    -0.311 OA
BRANCH  22  23
HETATM   23  C   UNK     0       5.255  40.872  26.114  0.00  0.00     0.157 A 
HETATM   24  C   UNK     0       3.994  41.311  25.949  0.00  0.00     0.124 A 
HETATM   25  O   UNK     0       3.160  41.714  26.981  0.00  0.00    -0.306 OA
HETATM   26  C   UNK     0       3.631  41.647  28.267  0.00  0.00     0.096 A 
HETATM   27  C   UNK     0       4.914  41.202  28.579  0.00  0.00     0.084 A 
HETATM   28  C   UNK     0       2.765  42.050  29.284  0.00  0.00     0.075 A 
HETATM   29  C   UNK     0       5.808  40.786  27.487  0.00  0.00     0.223 A 
HETATM   30  C   UNK     0       5.341  41.156  29.909  0.00  0.00     0.085 A 
HETATM   31  O   UNK     0       6.947  40.392  27.700  0.00  0.00    -0.284 OA
HETATM   32  C   UNK     0       4.473  41.560  30.925  0.00  0.00     0.074 A 
HETATM   33  C   UNK     0       3.188  42.005  30.613  0.00  0.00     0.071 A 
BRANCH  24  34
HETATM   34  C   UNK     0       3.366  41.435  24.622  0.00  0.00     0.004 A 
HETATM   35  C   UNK     0       2.745  40.330  24.038  0.00  0.00     0.053 A 
HETATM   36  C   UNK     0       2.149  40.446  22.783  0.00  0.00     0.099 A 
HETATM   37  C   UNK     0       2.173  41.667  22.110  0.00  0.00     0.098 A 
HETATM   38  C   UNK     0       2.794  42.772  22.693  0.00  0.00     0.040 A 
HETATM   39  C   UNK     0       3.389  42.656  23.949  0.00  0.00     0.017 A 
BRANCH  36  40
HETATM   40  O   UNK     0       1.547  39.359  22.223  0.00  0.00    -0.358 OA
HETATM   41  H   UNK     0       1.203  38.780  22.922  0.00  0.00     0.217 HD
ENDBRANCH  36  40
BRANCH  37  42
HETATM   42  O   UNK     0       1.594  41.794  20.884  0.00  0.00    -0.358 OA
HETATM   43  H   UNK     0       0.691  42.134  20.982  0.00  0.00     0.217 HD
ENDBRANCH  37  42
ENDBRANCH  24  34
BRANCH  30  44
HETATM   44  O   UNK     0       6.584  40.731  30.267  0.00  0.00    -0.360 OA
HETATM   45  H   UNK     0       6.995  40.263  29.520  0.00  0.00     0.217 HD
ENDBRANCH  30  44
BRANCH  33  46
HETATM   46  O   UNK     0       2.345  42.398  31.607  0.00  0.00    -0.361 OA
HETATM   47  H   UNK     0       1.979  41.608  32.041  0.00  0.00     0.217 HD
ENDBRANCH  33  46
ENDBRANCH  22  23
ENDBRANCH   6  22
BRANCH   3  48
HETATM   48  O   UNK     0       9.822  43.998  23.019  0.00  0.00    -0.390 OA
HETATM   49  H   UNK     0       9.499  44.842  23.377  0.00  0.00     0.210 HD
ENDBRANCH   3  48
BRANCH   5  50
HETATM   50  O   UNK     0       8.757  39.669  24.787  0.00  0.00    -0.388 OA
HETATM   51  H   UNK     0       8.219  38.880  24.608  0.00  0.00     0.210 HD
ENDBRANCH   5  50
BRANCH   4  52
HETATM   52  O   UNK     0      10.158  41.150  22.659  0.00  0.00    -0.390 OA
HETATM   53  H   UNK     0      11.019  41.600  22.691  0.00  0.00     0.210 HD
ENDBRANCH   4  52
TORSDOF 16
ENDMDL
MODEL 6
REMARK VINA RESULT:      -7.9      4.893     10.318
REMARK  16 active torsions:
REMARK  status: ('A' for Active; 'I' for Inactive)
REMARK    1  A    between atoms: O_2  and  C_22 
REMARK    2  A    between atoms: O_2  and  C_26 
REMARK    3  A    between atoms: O_4  and  C_18 
REMARK    4  A    between atoms: O_5  and  C_19 
REMARK    5  A    between atoms: O_6  and  C_25 
REMARK    6  A    between atoms: O_6  and  C_29 
REMARK    7  A    between atoms: O_7  and  C_20 
REMARK    8  A    between atoms: O_8  and  C_21 
REMARK    9  A    between atoms: O_9  and  C_23 
REMARK   10  A    between atoms: O_10  and  C_24 
REMARK   11  A    between atoms: O_13  and  C_35 
REMARK   12  A    between atoms: O_14  and  C_40 
REMARK   13  A    between atoms: O_15  and  C_41 
REMARK   14  A    between atoms: O_16  and  C_43 
REMARK   15  A    between atoms: C_17  and  C_26 
REMARK   16  A    between atoms: C_30  and  C_33 
ROOT
HETATM    1  O   UNK     0      10.837  43.948  21.692  0.00  0.00    -0.348 OA
HETATM    2  C   UNK     0      10.188  45.104  21.158  0.00  0.00     0.180 C 
HETATM    3  C   UNK     0       9.796  44.856  19.699  0.00  0.00     0.180 C 
HETATM    4  C   UNK     0      11.018  44.458  18.871  0.00  0.00     0.183 C 
HETATM    5  C   UNK     0      11.806  43.338  19.549  0.00  0.00     0.205 C 
HETATM    6  C   UNK     0      12.061  43.652  21.023  0.00  0.00     0.298 C 
ENDROOT
BRANCH   2   7
HETATM    7  C   UNK     0       8.968  45.388  22.030  0.00  0.00     0.205 C 
BRANCH   7   8
HETATM    8  O   UNK     0       7.881  44.595  21.577  0.00  0.00    -0.356 OA
BRANCH   8   9
HETATM    9  C   UNK     0       6.632  45.225  21.841  0.00  0.00     0.291 C 
HETATM   10  O   UNK     0       5.622  44.292  22.237  0.00  0.00    -0.351 OA
HETATM   11  C   UNK     0       5.273  43.342  21.226  0.00  0.00     0.152 C 
HETATM   12  C   UNK     0       4.752  44.045  19.965  0.00  0.00     0.178 C 
HETATM   13  C   UNK     0       4.227  42.409  21.832  0.00  0.00     0.042 C 
HETATM   14  C   UNK     0       5.772  45.076  19.479  0.00  0.00     0.183 C 
HETATM   15  C   UNK     0       6.183  46.016  20.613  0.00  0.00     0.204 C 
BRANCH  12  16
HETATM   16  O   UNK     0       4.546  43.098  18.919  0.00  0.00    -0.390 OA
HETATM   17  H   UNK     0       3.662  43.252  18.546  0.00  0.00     0.210 HD
ENDBRANCH  12  16
BRANCH  14  18
HETATM   18  O   UNK     0       5.207  45.826  18.406  0.00  0.00    -0.390 OA
HETATM   19  H   UNK     0       4.441  45.330  18.068  0.00  0.00     0.210 HD
ENDBRANCH  14  18
BRANCH  15  20
HETATM   20  O   UNK     0       5.072  46.827  21.000  0.00  0.00    -0.388 OA
HETATM   21  H   UNK     0       5.154  47.027  21.948  0.00  0.00     0.210 HD
ENDBRANCH  15  20
ENDBRANCH   8   9
ENDBRANCH   7   8
ENDBRANCH   2   7
BRANCH   6  22
HETATM   22  O   UNK     0      12.670  42.507  21.619  0.00  0.00    -0.311 OA
BRANCH  22  23
HETATM   23  C   UNK     0      13.803  42.845  22.326  0.00  0.00     0.157 A 
HETATM   24  C   UNK     0      13.771  43.293  23.594  0.00  0.00     0.124 A 
HETATM   25  O   UNK     0      14.888  43.672  24.322  0.00  0.00    -0.306 OA
HETATM   26  C   UNK     0      16.121  43.570  23.730  0.00  0.00     0.096 A 
HETATM   27  C   UNK     0      16.296  43.113  22.426  0.00  0.00     0.084 A 
HETATM   28  C   UNK     0      17.227  43.949  24.492  0.00  0.00     0.075 A 
HETATM   29  C   UNK     0      15.114  42.722  21.643  0.00  0.00     0.223 A 
HETATM   30  C   UNK     0      17.578  43.031  21.873  0.00  0.00     0.085 A 
HETATM   31  O   UNK     0      15.206  42.318  20.492  0.00  0.00    -0.284 OA
HETATM   32  C   UNK     0      18.682  43.411  22.638  0.00  0.00     0.074 A 
HETATM   33  C   UNK     0      18.507  43.868  23.944  0.00  0.00     0.071 A 
BRANCH  24  34
HETATM   34  C   UNK     0      12.514  43.453  24.346  0.00  0.00     0.004 A 
HETATM   35  C   UNK     0      11.766  42.331  24.702  0.00  0.00     0.053 A 
HETATM   36  C   UNK     0      10.577  42.481  25.415  0.00  0.00     0.099 A 
HETATM   37  C   UNK     0      10.135  43.755  25.773  0.00  0.00     0.098 A 
HETATM   38  C   UNK     0      10.882  44.877  25.417  0.00  0.00     0.040 A 
HETATM   39  C   UNK     0      12.072  44.727  24.704  0.00  0.00     0.017 A 
BRANCH  36  40
HETATM   40  O   UNK     0       9.854  41.377  25.755  0.00  0.00    -0.358 OA
HETATM   41  H   UNK     0      10.156  40.616  25.233  0.00  0.00     0.217 HD
ENDBRANCH  36  40
BRANCH  37  42
HETATM   42  O   UNK     0       8.976  43.915  26.470  0.00  0.00    -0.358 OA
HETATM   43  H   UNK     0       8.866  44.847  26.714  0.00  0.00     0.217 HD
ENDBRANCH  37  42
ENDBRANCH  24  34
BRANCH  30  44
HETATM   44  O   UNK     0      17.804  42.592  20.605  0.00  0.00    -0.360 OA
HETATM   45  H   UNK     0      17.554  43.286  19.971  0.00  0.00     0.217 HD
ENDBRANCH  30  44
BRANCH  33  46
HETATM   46  O   UNK     0      19.587  44.238  24.685  0.00  0.00    -0.361 OA
HETATM   47  H   UNK     0      20.025  43.439  25.026  0.00  0.00     0.217 HD
ENDBRANCH  33  46
ENDBRANCH  22  23
ENDBRANCH   6  22
BRANCH   3  48
HETATM   48  O   UNK     0       9.226  46.044  19.157  0.00  0.00    -0.390 OA
HETATM   49  H   UNK     0       8.262  45.925  19.120  0.00  0.00     0.210 HD
ENDBRANCH   3  48
BRANCH   5  50
HETATM   50  O   UNK     0      13.068  43.185  18.899  0.00  0.00    -0.388 OA
HETATM   51  H   UNK     0      12.909  42.805  18.019  0.00  0.00     0.210 HD
ENDBRANCH   5  50
BRANCH   4  52
HETATM   52  O   UNK     0      10.558  44.009  17.594  0.00  0.00    -0.390 OA
HETATM   53  H   UNK     0      11.338  43.738  17.082  0.00  0.00     0.210 HD
ENDBRANCH   4  52
TORSDOF 16
ENDMDL
MODEL 7
REMARK VINA RESULT:      -7.8      5.312     10.385
REMARK  16 active torsions:
REMARK  status: ('A' for Active; 'I' for Inactive)
REMARK    1  A    between atoms: O_2  and  C_22 
REMARK    2  A    between atoms: O_2  and  C_26 
REMARK    3  A    between atoms: O_4  and  C_18 
REMARK    4  A    between atoms: O_5  and  C_19 
REMARK    5  A    between atoms: O_6  and  C_25 
REMARK    6  A    between atoms: O_6  and  C_29 
REMARK    7  A    between atoms: O_7  and  C_20 
REMARK    8  A    between atoms: O_8  and  C_21 
REMARK    9  A    between atoms: O_9  and  C_23 
REMARK   10  A    between atoms: O_10  and  C_24 
REMARK   11  A    between atoms: O_13  and  C_35 
REMARK   12  A    between atoms: O_14  and  C_40 
REMARK   13  A    between atoms: O_15  and  C_41 
REMARK   14  A    between atoms: O_16  and  C_43 
REMARK   15  A    between atoms: C_17  and  C_26 
REMARK   16  A    between atoms: C_30  and  C_33 
ROOT
HETATM    1  O   UNK     0      10.970  43.444  21.004  0.00  0.00    -0.348 OA
HETATM    2  C   UNK     0      10.229  44.664  20.948  0.00  0.00     0.180 C 
HETATM    3  C   UNK     0       9.834  44.968  19.501  0.00  0.00     0.180 C 
HETATM    4  C   UNK     0      11.068  45.011  18.599  0.00  0.00     0.183 C 
HETATM    5  C   UNK     0      11.948  43.778  18.806  0.00  0.00     0.205 C 
HETATM    6  C   UNK     0      12.202  43.520  20.291  0.00  0.00     0.298 C 
ENDROOT
BRANCH   2   7
HETATM    7  C   UNK     0       9.006  44.500  21.845  0.00  0.00     0.205 C 
BRANCH   7   8
HETATM    8  O   UNK     0       7.998  43.802  21.130  0.00  0.00    -0.356 OA
BRANCH   8   9
HETATM    9  C   UNK     0       6.709  44.031  21.689  0.00  0.00     0.291 C 
HETATM   10  O   UNK     0       5.673  43.361  20.964  0.00  0.00    -0.351 OA
HETATM   11  C   UNK     0       5.504  43.824  19.620  0.00  0.00     0.152 C 
HETATM   12  C   UNK     0       5.167  45.322  19.591  0.00  0.00     0.178 C 
HETATM   13  C   UNK     0       4.400  42.978  18.991  0.00  0.00     0.042 C 
HETATM   14  C   UNK     0       6.225  46.114  20.360  0.00  0.00     0.183 C 
HETATM   15  C   UNK     0       6.435  45.532  21.759  0.00  0.00     0.204 C 
BRANCH  12  16
HETATM   16  O   UNK     0       5.146  45.797  18.247  0.00  0.00    -0.390 OA
HETATM   17  H   UNK     0       5.660  46.622  18.214  0.00  0.00     0.210 HD
ENDBRANCH  12  16
BRANCH  14  18
HETATM   18  O   UNK     0       5.814  47.476  20.457  0.00  0.00    -0.390 OA
HETATM   19  H   UNK     0       5.293  47.686  19.662  0.00  0.00     0.210 HD
ENDBRANCH  14  18
BRANCH  15  20
HETATM   20  O   UNK     0       5.260  45.724  22.548  0.00  0.00    -0.388 OA
HETATM   21  H   UNK     0       5.340  46.573  23.015  0.00  0.00     0.210 HD
ENDBRANCH  15  20
ENDBRANCH   8   9
ENDBRANCH   7   8
ENDBRANCH   2   7
BRANCH   6  22
HETATM   22  O   UNK     0      12.903  42.282  20.408  0.00  0.00    -0.311 OA
BRANCH  22  23
HETATM   23  C   UNK     0      13.903  42.353  21.353  0.00  0.00     0.157 A 
HETATM   24  C   UNK     0      13.773  41.861  22.598  0.00  0.00     0.124 A 
HETATM   25  O   UNK     0      14.746  41.944  23.583  0.00  0.00    -0.306 OA
HETATM   26  C   UNK     0      15.937  42.550  23.275  0.00  0.00     0.096 A 
HETATM   27  C   UNK     0      16.206  43.094  22.022  0.00  0.00     0.084 A 
HETATM   28  C   UNK     0      16.900  42.610  24.284  0.00  0.00     0.075 A 
HETATM   29  C   UNK     0      15.172  43.021  20.977  0.00  0.00     0.223 A 
HETATM   30  C   UNK     0      17.438  43.702  21.765  0.00  0.00     0.085 A 
HETATM   31  O   UNK     0      15.350  43.486  19.859  0.00  0.00    -0.284 OA
HETATM   32  C   UNK     0      18.399  43.760  22.775  0.00  0.00     0.074 A 
HETATM   33  C   UNK     0      18.131  43.215  24.031  0.00  0.00     0.071 A 
BRANCH  24  34
HETATM   34  C   UNK     0      12.546  41.188  23.060  0.00  0.00     0.004 A 
HETATM   35  C   UNK     0      12.216  39.924  22.571  0.00  0.00     0.053 A 
HETATM   36  C   UNK     0      11.056  39.287  23.009  0.00  0.00     0.099 A 
HETATM   37  C   UNK     0      10.223  39.913  23.936  0.00  0.00     0.098 A 
HETATM   38  C   UNK     0      10.552  41.178  24.425  0.00  0.00     0.040 A 
HETATM   39  C   UNK     0      11.713  41.814  23.988  0.00  0.00     0.017 A 
BRANCH  36  40
HETATM   40  O   UNK     0      10.743  38.053  22.522  0.00  0.00    -0.358 OA
HETATM   41  H   UNK     0       9.838  37.818  22.783  0.00  0.00     0.217 HD
ENDBRANCH  36  40
BRANCH  37  42
HETATM   42  O   UNK     0       9.087  39.301  24.371  0.00  0.00    -0.358 OA
HETATM   43  H   UNK     0       8.314  39.710  23.954  0.00  0.00     0.217 HD
ENDBRANCH  37  42
ENDBRANCH  24  34
BRANCH  30  44
HETATM   44  O   UNK     0      17.751  44.249  20.559  0.00  0.00    -0.360 OA
HETATM   45  H   UNK     0      16.944  44.598  20.141  0.00  0.00     0.217 HD
ENDBRANCH  30  44
BRANCH  33  46
HETATM   46  O   UNK     0      19.072  43.275  25.013  0.00  0.00    -0.361 OA
HETATM   47  H   UNK     0      19.692  43.997  24.814  0.00  0.00     0.217 HD
ENDBRANCH  33  46
ENDBRANCH  22  23
ENDBRANCH   6  22
BRANCH   3  48
HETATM   48  O   UNK     0       9.169  46.228  19.449  0.00  0.00    -0.390 OA
HETATM   49  H   UNK     0       8.330  46.145  19.932  0.00  0.00     0.210 HD
ENDBRANCH   3  48
BRANCH   5  50
HETATM   50  O   UNK     0      13.206  43.981  18.164  0.00  0.00    -0.388 OA
HETATM   51  H   UNK     0      13.370  44.938  18.117  0.00  0.00     0.210 HD
ENDBRANCH   5  50
BRANCH   4  52
HETATM   52  O   UNK     0      10.622  45.055  17.242  0.00  0.00    -0.390 OA
HETATM   53  H   UNK     0       9.650  45.082  17.256  0.00  0.00     0.210 HD
ENDBRANCH   4  52
TORSDOF 16
ENDMDL
MODEL 8
REMARK VINA RESULT:      -7.8      1.655      2.488
REMARK  16 active torsions:
REMARK  status: ('A' for Active; 'I' for Inactive)
REMARK    1  A    between atoms: O_2  and  C_22 
REMARK    2  A    between atoms: O_2  and  C_26 
REMARK    3  A    between atoms: O_4  and  C_18 
REMARK    4  A    between atoms: O_5  and  C_19 
REMARK    5  A    between atoms: O_6  and  C_25 
REMARK    6  A    between atoms: O_6  and  C_29 
REMARK    7  A    between atoms: O_7  and  C_20 
REMARK    8  A    between atoms: O_8  and  C_21 
REMARK    9  A    between atoms: O_9  and  C_23 
REMARK   10  A    between atoms: O_10  and  C_24 
REMARK   11  A    between atoms: O_13  and  C_35 
REMARK   12  A    between atoms: O_14  and  C_40 
REMARK   13  A    between atoms: O_15  and  C_41 
REMARK   14  A    between atoms: O_16  and  C_43 
REMARK   15  A    between atoms: C_17  and  C_26 
REMARK   16  A    between atoms: C_30  and  C_33 
ROOT
HETATM    1  O   UNK     0       8.529  44.220  25.243  0.00  0.00    -0.348 OA
HETATM    2  C   UNK     0       9.711  43.595  25.748  0.00  0.00     0.180 C 
HETATM    3  C   UNK     0      10.840  44.623  25.855  0.00  0.00     0.180 C 
HETATM    4  C   UNK     0      11.088  45.299  24.507  0.00  0.00     0.183 C 
HETATM    5  C   UNK     0       9.782  45.804  23.892  0.00  0.00     0.205 C 
HETATM    6  C   UNK     0       8.701  44.724  23.920  0.00  0.00     0.298 C 
ENDROOT
BRANCH   2   7
HETATM    7  C   UNK     0       9.365  42.991  27.105  0.00  0.00     0.205 C 
BRANCH   7   8
HETATM    8  O   UNK     0       8.112  42.330  27.012  0.00  0.00    -0.356 OA
BRANCH   8   9
HETATM    9  C   UNK     0       7.993  41.299  27.987  0.00  0.00     0.291 C 
HETATM   10  O   UNK     0       6.697  40.693  27.984  0.00  0.00    -0.351 OA
HETATM   11  C   UNK     0       5.634  41.578  28.351  0.00  0.00     0.152 C 
HETATM   12  C   UNK     0       5.853  42.146  29.761  0.00  0.00     0.178 C 
HETATM   13  C   UNK     0       4.335  40.783  28.252  0.00  0.00     0.042 C 
HETATM   14  C   UNK     0       7.229  42.806  29.854  0.00  0.00     0.183 C 
HETATM   15  C   UNK     0       8.326  41.855  29.370  0.00  0.00     0.204 C 
BRANCH  12  16
HETATM   16  O   UNK     0       4.867  43.134  30.054  0.00  0.00    -0.390 OA
HETATM   17  H   UNK     0       4.095  42.682  30.435  0.00  0.00     0.210 HD
ENDBRANCH  12  16
BRANCH  14  18
HETATM   18  O   UNK     0       7.477  43.186  31.206  0.00  0.00    -0.390 OA
HETATM   19  H   UNK     0       7.579  44.153  31.228  0.00  0.00     0.210 HD
ENDBRANCH  14  18
BRANCH  15  20
HETATM   20  O   UNK     0       8.442  40.750  30.267  0.00  0.00    -0.388 OA
HETATM   21  H   UNK     0       8.396  39.928  29.748  0.00  0.00     0.210 HD
ENDBRANCH  15  20
ENDBRANCH   8   9
ENDBRANCH   7   8
ENDBRANCH   2   7
BRANCH   6  22
HETATM   22  O   UNK     0       7.481  45.310  23.466  0.00  0.00    -0.311 OA
BRANCH  22  23
HETATM   23  C   UNK     0       6.591  44.355  23.029  0.00  0.00     0.157 A 
HETATM   24  C   UNK     0       6.614  43.841  21.786  0.00  0.00     0.124 A 
HETATM   25  O   UNK     0       5.713  42.903  21.306  0.00  0.00    -0.306 OA
HETATM   26  C   UNK     0       4.736  42.442  22.150  0.00  0.00     0.096 A 
HETATM   27  C   UNK     0       4.605  42.883  23.465  0.00  0.00     0.084 A 
HETATM   28  C   UNK     0       3.851  41.491  21.640  0.00  0.00     0.075 A 
HETATM   29  C   UNK     0       5.549  43.888  23.976  0.00  0.00     0.223 A 
HETATM   30  C   UNK     0       3.588  42.378  24.280  0.00  0.00     0.085 A 
HETATM   31  O   UNK     0       5.479  44.317  25.120  0.00  0.00    -0.284 OA
HETATM   32  C   UNK     0       2.704  41.427  23.768  0.00  0.00     0.074 A 
HETATM   33  C   UNK     0       2.835  40.985  22.452  0.00  0.00     0.071 A 
BRANCH  24  34
HETATM   34  C   UNK     0       7.608  44.251  20.779  0.00  0.00     0.004 A 
HETATM   35  C   UNK     0       8.683  43.414  20.478  0.00  0.00     0.053 A 
HETATM   36  C   UNK     0       9.623  43.800  19.523  0.00  0.00     0.099 A 
HETATM   37  C   UNK     0       9.490  45.025  18.869  0.00  0.00     0.098 A 
HETATM   38  C   UNK     0       8.416  45.863  19.170  0.00  0.00     0.040 A 
HETATM   39  C   UNK     0       7.475  45.475  20.124  0.00  0.00     0.017 A 
BRANCH  36  40
HETATM   40  O   UNK     0      10.669  42.974  19.239  0.00  0.00    -0.358 OA
HETATM   41  H   UNK     0      10.335  42.130  18.896  0.00  0.00     0.217 HD
ENDBRANCH  36  40
BRANCH  37  42
HETATM   42  O   UNK     0      10.402  45.413  17.935  0.00  0.00    -0.358 OA
HETATM   43  H   UNK     0      10.650  44.654  17.384  0.00  0.00     0.217 HD
ENDBRANCH  37  42
ENDBRANCH  24  34
BRANCH  30  44
HETATM   44  O   UNK     0       3.415  42.776  25.570  0.00  0.00    -0.360 OA
HETATM   45  H   UNK     0       2.996  42.060  26.078  0.00  0.00     0.217 HD
ENDBRANCH  30  44
BRANCH  33  46
HETATM   46  O   UNK     0       1.971  40.057  21.957  0.00  0.00    -0.361 OA
HETATM   47  H   UNK     0       1.462  39.675  22.692  0.00  0.00     0.217 HD
ENDBRANCH  33  46
ENDBRANCH  22  23
ENDBRANCH   6  22
BRANCH   3  48
HETATM   48  O   UNK     0      12.033  43.969  26.280  0.00  0.00    -0.390 OA
HETATM   49  H   UNK     0      12.492  43.637  25.490  0.00  0.00     0.210 HD
ENDBRANCH   3  48
BRANCH   5  50
HETATM   50  O   UNK     0      10.010  46.176  22.533  0.00  0.00    -0.388 OA
HETATM   51  H   UNK     0      10.073  45.362  22.005  0.00  0.00     0.210 HD
ENDBRANCH   5  50
BRANCH   4  52
HETATM   52  O   UNK     0      11.970  46.403  24.722  0.00  0.00    -0.390 OA
HETATM   53  H   UNK     0      12.208  46.405  25.665  0.00  0.00     0.210 HD
ENDBRANCH   4  52
TORSDOF 16
ENDMDL
MODEL 9
REMARK VINA RESULT:      -7.8      3.243      7.526
REMARK  16 active torsions:
REMARK  status: ('A' for Active; 'I' for Inactive)
REMARK    1  A    between atoms: O_2  and  C_22 
REMARK    2  A    between atoms: O_2  and  C_26 
REMARK    3  A    between atoms: O_4  and  C_18 
REMARK    4  A    between atoms: O_5  and  C_19 
REMARK    5  A    between atoms: O_6  and  C_25 
REMARK    6  A    between atoms: O_6  and  C_29 
REMARK    7  A    between atoms: O_7  and  C_20 
REMARK    8  A    between atoms: O_8  and  C_21 
REMARK    9  A    between atoms: O_9  and  C_23 
REMARK   10  A    between atoms: O_10  and  C_24 
REMARK   11  A    between atoms: O_13  and  C_35 
REMARK   12  A    between atoms: O_14  and  C_40 
REMARK   13  A    between atoms: O_15  and  C_41 
REMARK   14  A    between atoms: O_16  and  C_43 
REMARK   15  A    between atoms: C_17  and  C_26 
REMARK   16  A    between atoms: C_30  and  C_33 
ROOT
HETATM    1  O   UNK     0       7.751  45.177  21.138  0.00  0.00    -0.348 OA
HETATM    2  C   UNK     0       8.802  44.745  20.272  0.00  0.00     0.180 C 
HETATM    3  C   UNK     0       8.472  45.116  18.825  0.00  0.00     0.180 C 
HETATM    4  C   UNK     0       7.121  44.534  18.410  0.00  0.00     0.183 C 
HETATM    5  C   UNK     0       6.040  44.853  19.444  0.00  0.00     0.205 C 
HETATM    6  C   UNK     0       6.513  44.527  20.860  0.00  0.00     0.298 C 
ENDROOT
BRANCH   2   7
HETATM    7  C   UNK     0      10.090  45.411  20.747  0.00  0.00     0.205 C 
BRANCH   7   8
HETATM    8  O   UNK     0      11.199  44.741  20.166  0.00  0.00    -0.356 OA
BRANCH   8   9
HETATM    9  C   UNK     0      11.448  43.494  20.807  0.00  0.00     0.291 C 
HETATM   10  O   UNK     0      12.186  43.643  22.024  0.00  0.00    -0.351 OA
HETATM   11  C   UNK     0      13.509  44.159  21.846  0.00  0.00     0.152 C 
HETATM   12  C   UNK     0      14.340  43.246  20.934  0.00  0.00     0.178 C 
HETATM   13  C   UNK     0      14.127  44.293  23.236  0.00  0.00     0.042 C 
HETATM   14  C   UNK     0      13.611  43.023  19.609  0.00  0.00     0.183 C 
HETATM   15  C   UNK     0      12.174  42.555  19.846  0.00  0.00     0.204 C 
BRANCH  12  16
HETATM   16  O   UNK     0      15.602  43.846  20.651  0.00  0.00    -0.390 OA
HETATM   17  H   UNK     0      15.699  44.623  21.228  0.00  0.00     0.210 HD
ENDBRANCH  12  16
BRANCH  14  18
HETATM   18  O   UNK     0      14.318  42.051  18.842  0.00  0.00    -0.390 OA
HETATM   19  H   UNK     0      14.464  41.274  19.409  0.00  0.00     0.210 HD
ENDBRANCH  14  18
BRANCH  15  20
HETATM   20  O   UNK     0      12.177  41.251  20.430  0.00  0.00    -0.388 OA
HETATM   21  H   UNK     0      11.507  41.230  21.135  0.00  0.00     0.210 HD
ENDBRANCH  15  20
ENDBRANCH   8   9
ENDBRANCH   7   8
ENDBRANCH   2   7
BRANCH   6  22
HETATM   22  O   UNK     0       5.514  44.982  21.773  0.00  0.00    -0.311 OA
BRANCH  22  23
HETATM   23  C   UNK     0       5.072  43.965  22.590  0.00  0.00     0.157 A 
HETATM   24  C   UNK     0       5.806  43.462  23.599  0.00  0.00     0.124 A 
HETATM   25  O   UNK     0       5.405  42.418  24.419  0.00  0.00    -0.306 OA
HETATM   26  C   UNK     0       4.169  41.862  24.212  0.00  0.00     0.096 A 
HETATM   27  C   UNK     0       3.305  42.294  23.208  0.00  0.00     0.084 A 
HETATM   28  C   UNK     0       3.790  40.820  25.059  0.00  0.00     0.075 A 
HETATM   29  C   UNK     0       3.730  43.392  22.327  0.00  0.00     0.223 A 
HETATM   30  C   UNK     0       2.056  41.688  23.043  0.00  0.00     0.085 A 
HETATM   31  O   UNK     0       3.017  43.809  21.425  0.00  0.00    -0.284 OA
HETATM   32  C   UNK     0       1.679  40.646  23.892  0.00  0.00     0.074 A 
HETATM   33  C   UNK     0       2.544  40.214  24.898  0.00  0.00     0.071 A 
BRANCH  24  34
HETATM   34  C   UNK     0       7.151  43.965  23.928  0.00  0.00     0.004 A 
HETATM   35  C   UNK     0       8.245  43.099  23.909  0.00  0.00     0.053 A 
HETATM   36  C   UNK     0       9.518  43.575  24.219  0.00  0.00     0.099 A 
HETATM   37  C   UNK     0       9.700  44.918  24.549  0.00  0.00     0.098 A 
HETATM   38  C   UNK     0       8.607  45.785  24.568  0.00  0.00     0.040 A 
HETATM   39  C   UNK     0       7.333  45.308  24.258  0.00  0.00     0.017 A 
BRANCH  36  40
HETATM   40  O   UNK     0      10.578  42.719  24.199  0.00  0.00    -0.358 OA
HETATM   41  H   UNK     0      11.263  43.061  23.601  0.00  0.00     0.217 HD
ENDBRANCH  36  40
BRANCH  37  42
HETATM   42  O   UNK     0      10.939  45.395  24.852  0.00  0.00    -0.358 OA
HETATM   43  H   UNK     0      10.954  45.705  25.771  0.00  0.00     0.217 HD
ENDBRANCH  37  42
ENDBRANCH  24  34
BRANCH  30  44
HETATM   44  O   UNK     0       1.176  42.071  22.078  0.00  0.00    -0.360 OA
HETATM   45  H   UNK     0       0.311  42.259  22.483  0.00  0.00     0.217 HD
ENDBRANCH  30  44
BRANCH  33  46
HETATM   46  O   UNK     0       2.172  39.197  25.723  0.00  0.00    -0.361 OA
HETATM   47  H   UNK     0       1.966  39.562  26.601  0.00  0.00     0.217 HD
ENDBRANCH  33  46
ENDBRANCH  22  23
ENDBRANCH   6  22
BRANCH   3  48
HETATM   48  O   UNK     0       9.488  44.606  17.965  0.00  0.00    -0.390 OA
HETATM   49  H   UNK     0      10.347  44.747  18.397  0.00  0.00     0.210 HD
ENDBRANCH   3  48
BRANCH   5  50
HETATM   50  O   UNK     0       4.876  44.074  19.169  0.00  0.00    -0.388 OA
HETATM   51  H   UNK     0       4.125  44.682  19.064  0.00  0.00     0.210 HD
ENDBRANCH   5  50
BRANCH   4  52
HETATM   52  O   UNK     0       6.760  45.109  17.152  0.00  0.00    -0.390 OA
HETATM   53  H   UNK     0       7.129  46.008  17.126  0.00  0.00     0.210 HD
ENDBRANCH   4  52
TORSDOF 16
ENDMDL
