MODEL 1
REMARK VINA RESULT:      -7.6      0.000      0.000
REMARK  5 active torsions:
REMARK  status: ('A' for Active; 'I' for Inactive)
REMARK    1  A    between atoms: C_3  and  O_1 
REMARK    2  A    between atoms: C_4  and  O_14 
REMARK    3  A    between atoms: C_7  and  C_8 
REMARK    4  A    between atoms: C_9  and  C_10 
REMARK    5  A    between atoms: C_10  and  O_12 
ROOT
ATOM      1  C   LIG     1       8.628  21.938  22.851  0.00  0.00     0.162 A 
ATOM      2  C   LIG     1       8.186  23.237  22.598  0.00  0.00     0.158 A 
ATOM      3  C   LIG     1       8.283  24.212  23.590  0.00  0.00     0.050 A 
ATOM      4  C   LIG     1       8.821  23.888  24.836  0.00  0.00     0.012 A 
ATOM      5  C   LIG     1       9.263  22.590  25.088  0.00  0.00    -0.021 A 
ATOM      6  C   LIG     1       9.167  21.615  24.096  0.00  0.00     0.057 A 
ENDROOT
BRANCH   5   7
ATOM      7  C   LIG     1       9.825  22.254  26.386  0.00  0.00     0.015 C 
ATOM      8  C   LIG     1      11.137  22.051  26.642  0.00  0.00     0.092 C 
BRANCH   8   9
ATOM      9  C   LIG     1      11.583  21.723  28.010  0.00  0.00     0.330 C 
ATOM     10  O   LIG     1      11.561  20.622  28.536  0.00  0.00    -0.246 OA
BRANCH   9  11
ATOM     11  O   LIG     1      12.031  22.854  28.604  0.00  0.00    -0.478 OA
ATOM     12  H   LIG     1      12.225  22.717  29.556  0.00  0.00     0.295 HD
ENDBRANCH   9  11
ENDBRANCH   8   9
ENDBRANCH   5   7
BRANCH   1  13
ATOM     13  O   LIG     1       8.538  20.977  21.889  0.00  0.00    -0.491 OA
ATOM     14  C   LIG     1       8.755  19.628  22.300  0.00  0.00     0.277 C 
ENDBRANCH   1  13
BRANCH   2  15
ATOM     15  O   LIG     1       7.657  23.564  21.386  0.00  0.00    -0.503 OA
ATOM     16  H   LIG     1       6.720  23.303  21.368  0.00  0.00     0.292 HD
ENDBRANCH   2  15
TORSDOF 5
ENDMDL
MODEL 2
REMARK VINA RESULT:      -7.5      2.429      6.186
REMARK  5 active torsions:
REMARK  status: ('A' for Active; 'I' for Inactive)
REMARK    1  A    between atoms: C_3  and  O_1 
REMARK    2  A    between atoms: C_4  and  O_14 
REMARK    3  A    between atoms: C_7  and  C_8 
REMARK    4  A    between atoms: C_9  and  C_10 
REMARK    5  A    between atoms: C_10  and  O_12 
ROOT
ATOM      1  C   LIG     1      11.474  22.349  27.618  0.00  0.00     0.162 A 
ATOM      2  C   LIG     1      12.656  21.880  28.191  0.00  0.00     0.158 A 
ATOM      3  C   LIG     1      13.347  20.824  27.597  0.00  0.00     0.050 A 
ATOM      4  C   LIG     1      12.856  20.237  26.430  0.00  0.00     0.012 A 
ATOM      5  C   LIG     1      11.675  20.706  25.858  0.00  0.00    -0.021 A 
ATOM      6  C   LIG     1      10.983  21.762  26.451  0.00  0.00     0.057 A 
ENDROOT
BRANCH   5   7
ATOM      7  C   LIG     1      11.164  20.095  24.642  0.00  0.00     0.015 C 
ATOM      8  C   LIG     1       9.884  20.160  24.211  0.00  0.00     0.092 C 
BRANCH   8   9
ATOM      9  C   LIG     1       9.492  19.503  22.949  0.00  0.00     0.330 C 
ATOM     10  O   LIG     1       9.719  18.346  22.633  0.00  0.00    -0.246 OA
BRANCH   9  11
ATOM     11  O   LIG     1       8.828  20.398  22.181  0.00  0.00    -0.478 OA
ATOM     12  H   LIG     1       7.963  20.050  21.877  0.00  0.00     0.295 HD
ENDBRANCH   9  11
ENDBRANCH   8   9
ENDBRANCH   5   7
BRANCH   1  13
ATOM     13  O   LIG     1      10.789  23.379  28.189  0.00  0.00    -0.491 OA
ATOM     14  C   LIG     1       9.421  23.533  27.816  0.00  0.00     0.277 C 
ENDBRANCH   1  13
BRANCH   2  15
ATOM     15  O   LIG     1      13.145  22.444  29.330  0.00  0.00    -0.503 OA
ATOM     16  H   LIG     1      12.401  22.677  29.913  0.00  0.00     0.292 HD
ENDBRANCH   2  15
TORSDOF 5
ENDMDL
MODEL 3
REMARK VINA RESULT:      -7.4     21.279     22.244
REMARK  5 active torsions:
REMARK  status: ('A' for Active; 'I' for Inactive)
REMARK    1  A    between atoms: C_3  and  O_1 
REMARK    2  A    between atoms: C_4  and  O_14 
REMARK    3  A    between atoms: C_7  and  C_8 
REMARK    4  A    between atoms: C_9  and  C_10 
REMARK    5  A    between atoms: C_10  and  O_12 
ROOT
ATOM      1  C   LIG     1      23.383  34.962  10.687  0.00  0.00     0.162 A 
ATOM      2  C   LIG     1      23.238  33.608  10.384  0.00  0.00     0.158 A 
ATOM      3  C   LIG     1      23.049  32.681  11.409  0.00  0.00     0.050 A 
ATOM      4  C   LIG     1      23.006  33.107  12.736  0.00  0.00     0.012 A 
ATOM      5  C   LIG     1      23.151  34.460  13.039  0.00  0.00    -0.021 A 
ATOM      6  C   LIG     1      23.340  35.388  12.015  0.00  0.00     0.057 A 
ENDROOT
BRANCH   5   7
ATOM      7  C   LIG     1      23.105  34.905  14.423  0.00  0.00     0.015 C 
ATOM      8  C   LIG     1      22.046  35.496  15.020  0.00  0.00     0.092 C 
BRANCH   8   9
ATOM      9  C   LIG     1      22.122  35.893  16.439  0.00  0.00     0.330 C 
ATOM     10  O   LIG     1      22.901  36.697  16.926  0.00  0.00    -0.246 OA
BRANCH   9  11
ATOM     11  O   LIG     1      21.176  35.216  17.131  0.00  0.00    -0.478 OA
ATOM     12  H   LIG     1      20.394  35.775  17.327  0.00  0.00     0.295 HD
ENDBRANCH   9  11
ENDBRANCH   8   9
ENDBRANCH   5   7
BRANCH   1  13
ATOM     13  O   LIG     1      23.569  35.877   9.695  0.00  0.00    -0.491 OA
ATOM     14  C   LIG     1      23.924  37.200  10.092  0.00  0.00     0.277 C 
ENDBRANCH   1  13
BRANCH   2  15
ATOM     15  O   LIG     1      23.280  33.179   9.092  0.00  0.00    -0.503 OA
ATOM     16  H   LIG     1      24.168  32.829   8.903  0.00  0.00     0.292 HD
ENDBRANCH   2  15
TORSDOF 5
ENDMDL
MODEL 4
REMARK VINA RESULT:      -7.3      8.297     10.072
REMARK  5 active torsions:
REMARK  status: ('A' for Active; 'I' for Inactive)
REMARK    1  A    between atoms: C_3  and  O_1 
REMARK    2  A    between atoms: C_4  and  O_14 
REMARK    3  A    between atoms: C_7  and  C_8 
REMARK    4  A    between atoms: C_9  and  C_10 
REMARK    5  A    between atoms: C_10  and  O_12 
ROOT
ATOM      1  C   LIG     1      11.499  11.795  24.262  0.00  0.00     0.162 A 
ATOM      2  C   LIG     1      11.587  10.689  25.108  0.00  0.00     0.158 A 
ATOM      3  C   LIG     1      12.012  10.852  26.426  0.00  0.00     0.050 A 
ATOM      4  C   LIG     1      12.350  12.120  26.899  0.00  0.00     0.012 A 
ATOM      5  C   LIG     1      12.263  13.225  26.053  0.00  0.00    -0.021 A 
ATOM      6  C   LIG     1      11.838  13.063  24.735  0.00  0.00     0.057 A 
ENDROOT
BRANCH   5   7
ATOM      7  C   LIG     1      12.614  14.547  26.546  0.00  0.00     0.015 C 
ATOM      8  C   LIG     1      13.808  14.891  27.080  0.00  0.00     0.092 C 
BRANCH   8   9
ATOM      9  C   LIG     1      14.044  16.275  27.536  0.00  0.00     0.330 C 
ATOM     10  O   LIG     1      14.080  17.273  26.835  0.00  0.00    -0.246 OA
BRANCH   9  11
ATOM     11  O   LIG     1      14.216  16.267  28.879  0.00  0.00    -0.478 OA
ATOM     12  H   LIG     1      14.280  15.355  29.235  0.00  0.00     0.295 HD
ENDBRANCH   9  11
ENDBRANCH   8   9
ENDBRANCH   5   7
BRANCH   1  13
ATOM     13  O   LIG     1      11.086  11.648  22.972  0.00  0.00    -0.491 OA
ATOM     14  C   LIG     1      10.530  12.797  22.336  0.00  0.00     0.277 C 
ENDBRANCH   1  13
BRANCH   2  15
ATOM     15  O   LIG     1      11.260   9.445  24.658  0.00  0.00    -0.503 OA
ATOM     16  H   LIG     1      10.439   9.156  25.093  0.00  0.00     0.292 HD
ENDBRANCH   2  15
TORSDOF 5
ENDMDL
MODEL 5
REMARK VINA RESULT:      -7.3     27.149     29.182
REMARK  5 active torsions:
REMARK  status: ('A' for Active; 'I' for Inactive)
REMARK    1  A    between atoms: C_3  and  O_1 
REMARK    2  A    between atoms: C_4  and  O_14 
REMARK    3  A    between atoms: C_7  and  C_8 
REMARK    4  A    between atoms: C_9  and  C_10 
REMARK    5  A    between atoms: C_10  and  O_12 
ROOT
ATOM      1  C   LIG     1      32.699  35.691  30.337  0.00  0.00     0.162 A 
ATOM      2  C   LIG     1      33.038  34.478  30.937  0.00  0.00     0.158 A 
ATOM      3  C   LIG     1      34.288  33.908  30.700  0.00  0.00     0.050 A 
ATOM      4  C   LIG     1      35.200  34.550  29.861  0.00  0.00     0.012 A 
ATOM      5  C   LIG     1      34.861  35.761  29.261  0.00  0.00    -0.021 A 
ATOM      6  C   LIG     1      33.611  36.333  29.498  0.00  0.00     0.057 A 
ENDROOT
BRANCH   5   7
ATOM      7  C   LIG     1      35.811  36.431  28.388  0.00  0.00     0.015 C 
ATOM      8  C   LIG     1      35.784  36.407  27.037  0.00  0.00     0.092 C 
BRANCH   8   9
ATOM      9  C   LIG     1      36.805  37.140  26.262  0.00  0.00     0.330 C 
ATOM     10  O   LIG     1      37.004  38.343  26.281  0.00  0.00    -0.246 OA
BRANCH   9  11
ATOM     11  O   LIG     1      37.501  36.252  25.513  0.00  0.00    -0.478 OA
ATOM     12  H   LIG     1      36.943  35.501  25.221  0.00  0.00     0.295 HD
ENDBRANCH   9  11
ENDBRANCH   8   9
ENDBRANCH   5   7
BRANCH   1  13
ATOM     13  O   LIG     1      31.480  36.257  30.561  0.00  0.00    -0.491 OA
ATOM     14  C   LIG     1      31.468  37.561  31.140  0.00  0.00     0.277 C 
ENDBRANCH   1  13
BRANCH   2  15
ATOM     15  O   LIG     1      32.155  33.841  31.757  0.00  0.00    -0.503 OA
ATOM     16  H   LIG     1      31.417  34.442  31.956  0.00  0.00     0.292 HD
ENDBRANCH   2  15
TORSDOF 5
ENDMDL
MODEL 6
REMARK VINA RESULT:      -7.3      1.917      2.708
REMARK  5 active torsions:
REMARK  status: ('A' for Active; 'I' for Inactive)
REMARK    1  A    between atoms: C_3  and  O_1 
REMARK    2  A    between atoms: C_4  and  O_14 
REMARK    3  A    between atoms: C_7  and  C_8 
REMARK    4  A    between atoms: C_9  and  C_10 
REMARK    5  A    between atoms: C_10  and  O_12 
ROOT
ATOM      1  C   LIG     1       9.537  19.424  23.040  0.00  0.00     0.162 A 
ATOM      2  C   LIG     1       8.548  20.008  22.247  0.00  0.00     0.158 A 
ATOM      3  C   LIG     1       8.087  21.291  22.541  0.00  0.00     0.050 A 
ATOM      4  C   LIG     1       8.613  21.990  23.628  0.00  0.00     0.012 A 
ATOM      5  C   LIG     1       9.601  21.406  24.420  0.00  0.00    -0.021 A 
ATOM      6  C   LIG     1      10.063  20.123  24.127  0.00  0.00     0.057 A 
ENDROOT
BRANCH   5   7
ATOM      7  C   LIG     1      10.150  22.135  25.551  0.00  0.00     0.015 C 
ATOM      8  C   LIG     1       9.429  22.674  26.560  0.00  0.00     0.092 C 
BRANCH   8   9
ATOM      9  C   LIG     1      10.109  23.385  27.660  0.00  0.00     0.330 C 
ATOM     10  O   LIG     1      11.178  23.084  28.166  0.00  0.00    -0.246 OA
BRANCH   9  11
ATOM     11  O   LIG     1       9.350  24.444  28.028  0.00  0.00    -0.478 OA
ATOM     12  H   LIG     1       9.296  24.535  29.003  0.00  0.00     0.295 HD
ENDBRANCH   9  11
ENDBRANCH   8   9
ENDBRANCH   5   7
BRANCH   1  13
ATOM     13  O   LIG     1       9.995  18.171  22.764  0.00  0.00    -0.491 OA
ATOM     14  C   LIG     1      11.242  17.795  23.345  0.00  0.00     0.277 C 
ENDBRANCH   1  13
BRANCH   2  15
ATOM     15  O   LIG     1       8.026  19.335  21.185  0.00  0.00    -0.503 OA
ATOM     16  H   LIG     1       8.752  19.047  20.604  0.00  0.00     0.292 HD
ENDBRANCH   2  15
TORSDOF 5
ENDMDL
MODEL 7
REMARK VINA RESULT:      -7.3     20.746     21.577
REMARK  5 active torsions:
REMARK  status: ('A' for Active; 'I' for Inactive)
REMARK    1  A    between atoms: C_3  and  O_1 
REMARK    2  A    between atoms: C_4  and  O_14 
REMARK    3  A    between atoms: C_7  and  C_8 
REMARK    4  A    between atoms: C_9  and  C_10 
REMARK    5  A    between atoms: C_10  and  O_12 
ROOT
ATOM      1  C   LIG     1      23.048  32.971  11.579  0.00  0.00     0.162 A 
ATOM      2  C   LIG     1      23.267  33.825  10.497  0.00  0.00     0.158 A 
ATOM      3  C   LIG     1      23.472  35.187  10.715  0.00  0.00     0.050 A 
ATOM      4  C   LIG     1      23.457  35.696  12.013  0.00  0.00     0.012 A 
ATOM      5  C   LIG     1      23.238  34.843  13.094  0.00  0.00    -0.021 A 
ATOM      6  C   LIG     1      23.033  33.481  12.878  0.00  0.00     0.057 A 
ENDROOT
BRANCH   5   7
ATOM      7  C   LIG     1      23.223  35.374  14.448  0.00  0.00     0.015 C 
ATOM      8  C   LIG     1      22.160  35.358  15.283  0.00  0.00     0.092 C 
BRANCH   8   9
ATOM      9  C   LIG     1      22.278  35.923  16.642  0.00  0.00     0.330 C 
ATOM     10  O   LIG     1      23.000  36.845  16.984  0.00  0.00    -0.246 OA
BRANCH   9  11
ATOM     11  O   LIG     1      21.443  35.248  17.466  0.00  0.00    -0.478 OA
ATOM     12  H   LIG     1      20.504  35.344  17.197  0.00  0.00     0.295 HD
ENDBRANCH   9  11
ENDBRANCH   8   9
ENDBRANCH   5   7
BRANCH   1  13
ATOM     13  O   LIG     1      22.846  31.638  11.379  0.00  0.00    -0.491 OA
ATOM     14  C   LIG     1      22.688  30.826  12.541  0.00  0.00     0.277 C 
ENDBRANCH   1  13
BRANCH   2  15
ATOM     15  O   LIG     1      23.283  33.339   9.225  0.00  0.00    -0.503 OA
ATOM     16  H   LIG     1      24.188  33.402   8.873  0.00  0.00     0.292 HD
ENDBRANCH   2  15
TORSDOF 5
ENDMDL
MODEL 8
REMARK VINA RESULT:      -7.1     15.103     17.359
REMARK  5 active torsions:
REMARK  status: ('A' for Active; 'I' for Inactive)
REMARK    1  A    between atoms: C_3  and  O_1 
REMARK    2  A    between atoms: C_4  and  O_14 
REMARK    3  A    between atoms: C_7  and  C_8 
REMARK    4  A    between atoms: C_9  and  C_10 
REMARK    5  A    between atoms: C_10  and  O_12 
ROOT
ATOM      1  C   LIG     1      27.465  25.334  24.880  0.00  0.00     0.162 A 
ATOM      2  C   LIG     1      27.514  24.168  25.645  0.00  0.00     0.158 A 
ATOM      3  C   LIG     1      26.660  24.013  26.735  0.00  0.00     0.050 A 
ATOM      4  C   LIG     1      25.755  25.024  27.062  0.00  0.00     0.012 A 
ATOM      5  C   LIG     1      25.706  26.188  26.298  0.00  0.00    -0.021 A 
ATOM      6  C   LIG     1      26.560  26.344  25.207  0.00  0.00     0.057 A 
ENDROOT
BRANCH   5   7
ATOM      7  C   LIG     1      24.763  27.242  26.638  0.00  0.00     0.015 C 
ATOM      8  C   LIG     1      23.465  27.053  26.966  0.00  0.00     0.092 C 
BRANCH   8   9
ATOM      9  C   LIG     1      22.610  28.209  27.302  0.00  0.00     0.330 C 
ATOM     10  O   LIG     1      22.152  28.477  28.401  0.00  0.00    -0.246 OA
BRANCH   9  11
ATOM     11  O   LIG     1      22.410  28.941  26.181  0.00  0.00    -0.478 OA
ATOM     12  H   LIG     1      23.102  28.776  25.506  0.00  0.00     0.295 HD
ENDBRANCH   9  11
ENDBRANCH   8   9
ENDBRANCH   5   7
BRANCH   1  13
ATOM     13  O   LIG     1      28.296  25.497  23.812  0.00  0.00    -0.491 OA
ATOM     14  C   LIG     1      28.410  26.814  23.277  0.00  0.00     0.277 C 
ENDBRANCH   1  13
BRANCH   2  15
ATOM     15  O   LIG     1      28.394  23.174  25.336  0.00  0.00    -0.503 OA
ATOM     16  H   LIG     1      28.581  23.202  24.382  0.00  0.00     0.292 HD
ENDBRANCH   2  15
TORSDOF 5
ENDMDL
MODEL 9
REMARK VINA RESULT:      -7.1     14.457     16.114
REMARK  5 active torsions:
REMARK  status: ('A' for Active; 'I' for Inactive)
REMARK    1  A    between atoms: C_3  and  O_1 
REMARK    2  A    between atoms: C_4  and  O_14 
REMARK    3  A    between atoms: C_7  and  C_8 
REMARK    4  A    between atoms: C_9  and  C_10 
REMARK    5  A    between atoms: C_10  and  O_12 
ROOT
ATOM      1  C   LIG     1      19.780  31.546  26.751  0.00  0.00     0.162 A 
ATOM      2  C   LIG     1      18.695  31.541  27.629  0.00  0.00     0.158 A 
ATOM      3  C   LIG     1      18.015  32.727  27.903  0.00  0.00     0.050 A 
ATOM      4  C   LIG     1      18.420  33.919  27.302  0.00  0.00     0.012 A 
ATOM      5  C   LIG     1      19.504  33.924  26.426  0.00  0.00    -0.021 A 
ATOM      6  C   LIG     1      20.184  32.738  26.150  0.00  0.00     0.057 A 
ENDROOT
BRANCH   5   7
ATOM      7  C   LIG     1      19.925  35.166  25.798  0.00  0.00     0.015 C 
ATOM      8  C   LIG     1      19.469  36.398  26.116  0.00  0.00     0.092 C 
BRANCH   8   9
ATOM      9  C   LIG     1      19.985  37.586  25.408  0.00  0.00     0.330 C 
ATOM     10  O   LIG     1      19.354  38.588  25.117  0.00  0.00    -0.246 OA
BRANCH   9  11
ATOM     11  O   LIG     1      21.295  37.388  25.127  0.00  0.00    -0.478 OA
ATOM     12  H   LIG     1      21.545  37.767  24.258  0.00  0.00     0.295 HD
ENDBRANCH   9  11
ENDBRANCH   8   9
ENDBRANCH   5   7
BRANCH   1  13
ATOM     13  O   LIG     1      20.452  30.394  26.476  0.00  0.00    -0.491 OA
ATOM     14  C   LIG     1      21.415  29.961  27.436  0.00  0.00     0.277 C 
ENDBRANCH   1  13
BRANCH   2  15
ATOM     15  O   LIG     1      18.291  30.384  28.223  0.00  0.00    -0.503 OA
ATOM     16  H   LIG     1      18.073  29.733  27.533  0.00  0.00     0.292 HD
ENDBRANCH   2  15
TORSDOF 5
ENDMDL
