MODEL 1
REMARK VINA RESULT:      -7.3      0.000      0.000
REMARK  5 active torsions:
REMARK  status: ('A' for Active; 'I' for Inactive)
REMARK    1  A    between atoms: C_3  and  O_1 
REMARK    2  A    between atoms: C_4  and  O_14 
REMARK    3  A    between atoms: C_7  and  C_8 
REMARK    4  A    between atoms: C_9  and  C_10 
REMARK    5  A    between atoms: C_10  and  O_12 
ROOT
ATOM      1  C   LIG     1       6.107  37.760  88.574  0.00  0.00     0.162 A 
ATOM      2  C   LIG     1       5.269  36.857  89.229  0.00  0.00     0.158 A 
ATOM      3  C   LIG     1       5.182  35.538  88.784  0.00  0.00     0.050 A 
ATOM      4  C   LIG     1       5.932  35.122  87.684  0.00  0.00     0.012 A 
ATOM      5  C   LIG     1       6.768  36.024  87.029  0.00  0.00    -0.021 A 
ATOM      6  C   LIG     1       6.857  37.343  87.474  0.00  0.00     0.057 A 
ENDROOT
BRANCH   5   7
ATOM      7  C   LIG     1       7.551  35.590  85.883  0.00  0.00     0.015 C 
ATOM      8  C   LIG     1       8.496  36.326  85.257  0.00  0.00     0.092 C 
BRANCH   8   9
ATOM      9  C   LIG     1       9.230  35.765  84.105  0.00  0.00     0.330 C 
ATOM     10  O   LIG     1       9.858  36.394  83.269  0.00  0.00    -0.246 OA
BRANCH   9  11
ATOM     11  O   LIG     1       9.098  34.418  84.121  0.00  0.00    -0.478 OA
ATOM     12  H   LIG     1       9.447  34.005  83.303  0.00  0.00     0.295 HD
ENDBRANCH   9  11
ENDBRANCH   8   9
ENDBRANCH   5   7
BRANCH   1  13
ATOM     13  O   LIG     1       6.200  39.051  88.999  0.00  0.00    -0.491 OA
ATOM     14  C   LIG     1       6.572  40.027  88.027  0.00  0.00     0.277 C 
ENDBRANCH   1  13
BRANCH   2  15
ATOM     15  O   LIG     1       4.531  37.252  90.304  0.00  0.00    -0.503 OA
ATOM     16  H   LIG     1       3.599  37.327  90.037  0.00  0.00     0.292 HD
ENDBRANCH   2  15
TORSDOF 5
ENDMDL
MODEL 2
REMARK VINA RESULT:      -7.3     27.576     29.653
REMARK  5 active torsions:
REMARK  status: ('A' for Active; 'I' for Inactive)
REMARK    1  A    between atoms: C_3  and  O_1 
REMARK    2  A    between atoms: C_4  and  O_14 
REMARK    3  A    between atoms: C_7  and  C_8 
REMARK    4  A    between atoms: C_9  and  C_10 
REMARK    5  A    between atoms: C_10  and  O_12 
ROOT
ATOM      1  C   LIG     1      33.634  22.743  92.738  0.00  0.00     0.162 A 
ATOM      2  C   LIG     1      34.428  23.887  92.822  0.00  0.00     0.158 A 
ATOM      3  C   LIG     1      34.365  24.854  91.819  0.00  0.00     0.050 A 
ATOM      4  C   LIG     1      33.508  24.678  90.732  0.00  0.00     0.012 A 
ATOM      5  C   LIG     1      32.715  23.535  90.649  0.00  0.00    -0.021 A 
ATOM      6  C   LIG     1      32.776  22.567  91.651  0.00  0.00     0.057 A 
ENDROOT
BRANCH   5   7
ATOM      7  C   LIG     1      31.820  23.352  89.517  0.00  0.00     0.015 C 
ATOM      8  C   LIG     1      32.020  23.846  88.275  0.00  0.00     0.092 C 
BRANCH   8   9
ATOM      9  C   LIG     1      31.037  23.580  87.205  0.00  0.00     0.330 C 
ATOM     10  O   LIG     1      30.536  22.502  86.933  0.00  0.00    -0.246 OA
BRANCH   9  11
ATOM     11  O   LIG     1      30.773  24.741  86.561  0.00  0.00    -0.478 OA
ATOM     12  H   LIG     1      31.593  25.205  86.288  0.00  0.00     0.295 HD
ENDBRANCH   9  11
ENDBRANCH   8   9
ENDBRANCH   5   7
BRANCH   1  13
ATOM     13  O   LIG     1      33.687  21.791  93.711  0.00  0.00    -0.491 OA
ATOM     14  C   LIG     1      33.952  20.453  93.293  0.00  0.00     0.277 C 
ENDBRANCH   1  13
BRANCH   2  15
ATOM     15  O   LIG     1      35.270  24.069  93.877  0.00  0.00    -0.503 OA
ATOM     16  H   LIG     1      34.831  24.631  94.539  0.00  0.00     0.292 HD
ENDBRANCH   2  15
TORSDOF 5
ENDMDL
MODEL 3
REMARK VINA RESULT:      -7.3      2.401      6.331
REMARK  5 active torsions:
REMARK  status: ('A' for Active; 'I' for Inactive)
REMARK    1  A    between atoms: C_3  and  O_1 
REMARK    2  A    between atoms: C_4  and  O_14 
REMARK    3  A    between atoms: C_7  and  C_8 
REMARK    4  A    between atoms: C_9  and  C_10 
REMARK    5  A    between atoms: C_10  and  O_12 
ROOT
ATOM      1  C   LIG     1       9.274  35.658  84.441  0.00  0.00     0.162 A 
ATOM      2  C   LIG     1      10.483  35.921  83.796  0.00  0.00     0.158 A 
ATOM      3  C   LIG     1      11.135  37.136  84.004  0.00  0.00     0.050 A 
ATOM      4  C   LIG     1      10.578  38.089  84.858  0.00  0.00     0.012 A 
ATOM      5  C   LIG     1       9.371  37.826  85.503  0.00  0.00    -0.021 A 
ATOM      6  C   LIG     1       8.718  36.611  85.295  0.00  0.00     0.057 A 
ENDROOT
BRANCH   5   7
ATOM      7  C   LIG     1       8.791  38.818  86.394  0.00  0.00     0.015 C 
ATOM      8  C   LIG     1       7.492  38.874  86.765  0.00  0.00     0.092 C 
BRANCH   8   9
ATOM      9  C   LIG     1       7.029  39.930  87.686  0.00  0.00     0.330 C 
ATOM     10  O   LIG     1       7.187  41.132  87.549  0.00  0.00    -0.246 OA
BRANCH   9  11
ATOM     11  O   LIG     1       6.389  39.347  88.727  0.00  0.00    -0.478 OA
ATOM     12  H   LIG     1       5.470  39.093  88.497  0.00  0.00     0.295 HD
ENDBRANCH   9  11
ENDBRANCH   8   9
ENDBRANCH   5   7
BRANCH   1  13
ATOM     13  O   LIG     1       8.627  34.475  84.245  0.00  0.00    -0.491 OA
ATOM     14  C   LIG     1       7.309  34.362  84.776  0.00  0.00     0.277 C 
ENDBRANCH   1  13
BRANCH   2  15
ATOM     15  O   LIG     1      11.035  34.999  82.959  0.00  0.00    -0.503 OA
ATOM     16  H   LIG     1      11.660  34.448  83.462  0.00  0.00     0.292 HD
ENDBRANCH   2  15
TORSDOF 5
ENDMDL
MODEL 4
REMARK VINA RESULT:      -7.3     30.171     32.360
REMARK  5 active torsions:
REMARK  status: ('A' for Active; 'I' for Inactive)
REMARK    1  A    between atoms: C_3  and  O_1 
REMARK    2  A    between atoms: C_4  and  O_14 
REMARK    3  A    between atoms: C_7  and  C_8 
REMARK    4  A    between atoms: C_9  and  C_10 
REMARK    5  A    between atoms: C_10  and  O_12 
ROOT
ATOM      1  C   LIG     1      31.028  13.034  91.153  0.00  0.00     0.162 A 
ATOM      2  C   LIG     1      30.673  11.907  90.411  0.00  0.00     0.158 A 
ATOM      3  C   LIG     1      29.914  12.047  89.250  0.00  0.00     0.050 A 
ATOM      4  C   LIG     1      29.509  13.314  88.830  0.00  0.00     0.012 A 
ATOM      5  C   LIG     1      29.863  14.440  89.571  0.00  0.00    -0.021 A 
ATOM      6  C   LIG     1      30.623  14.301  90.732  0.00  0.00     0.057 A 
ENDROOT
BRANCH   5   7
ATOM      7  C   LIG     1      29.442  15.761  89.133  0.00  0.00     0.015 C 
ATOM      8  C   LIG     1      28.542  16.011  88.155  0.00  0.00     0.092 C 
BRANCH   8   9
ATOM      9  C   LIG     1      28.191  17.403  87.810  0.00  0.00     0.330 C 
ATOM     10  O   LIG     1      28.748  18.412  88.209  0.00  0.00    -0.246 OA
BRANCH   9  11
ATOM     11  O   LIG     1      27.135  17.387  86.963  0.00  0.00    -0.478 OA
ATOM     12  H   LIG     1      26.282  17.300  87.441  0.00  0.00     0.295 HD
ENDBRANCH   9  11
ENDBRANCH   8   9
ENDBRANCH   5   7
BRANCH   1  13
ATOM     13  O   LIG     1      31.769  12.909  92.289  0.00  0.00    -0.491 OA
ATOM     14  C   LIG     1      31.879  14.064  93.120  0.00  0.00     0.277 C 
ENDBRANCH   1  13
BRANCH   2  15
ATOM     15  O   LIG     1      31.062  10.664  90.812  0.00  0.00    -0.503 OA
ATOM     16  H   LIG     1      30.420  10.325  91.460  0.00  0.00     0.292 HD
ENDBRANCH   2  15
TORSDOF 5
ENDMDL
MODEL 5
REMARK VINA RESULT:      -7.2     17.705     19.382
REMARK  5 active torsions:
REMARK  status: ('A' for Active; 'I' for Inactive)
REMARK    1  A    between atoms: C_3  and  O_1 
REMARK    2  A    between atoms: C_4  and  O_14 
REMARK    3  A    between atoms: C_7  and  C_8 
REMARK    4  A    between atoms: C_9  and  C_10 
REMARK    5  A    between atoms: C_10  and  O_12 
ROOT
ATOM      1  C   LIG     1      24.416  37.848  89.510  0.00  0.00     0.162 A 
ATOM      2  C   LIG     1      23.667  38.867  90.100  0.00  0.00     0.158 A 
ATOM      3  C   LIG     1      24.087  40.192  89.994  0.00  0.00     0.050 A 
ATOM      4  C   LIG     1      25.256  40.500  89.298  0.00  0.00     0.012 A 
ATOM      5  C   LIG     1      26.005  39.483  88.708  0.00  0.00    -0.021 A 
ATOM      6  C   LIG     1      25.585  38.156  88.813  0.00  0.00     0.057 A 
ENDROOT
BRANCH   5   7
ATOM      7  C   LIG     1      27.223  39.804  87.981  0.00  0.00     0.015 C 
ATOM      8  C   LIG     1      27.621  41.048  87.634  0.00  0.00     0.092 C 
BRANCH   8   9
ATOM      9  C   LIG     1      28.889  41.242  86.903  0.00  0.00     0.330 C 
ATOM     10  O   LIG     1      29.052  41.921  85.902  0.00  0.00    -0.246 OA
BRANCH   9  11
ATOM     11  O   LIG     1      29.862  40.538  87.526  0.00  0.00    -0.478 OA
ATOM     12  H   LIG     1      30.750  40.927  87.376  0.00  0.00     0.295 HD
ENDBRANCH   9  11
ENDBRANCH   8   9
ENDBRANCH   5   7
BRANCH   1  13
ATOM     13  O   LIG     1      24.017  36.549  89.608  0.00  0.00    -0.491 OA
ATOM     14  C   LIG     1      23.220  36.035  88.542  0.00  0.00     0.277 C 
ENDBRANCH   1  13
BRANCH   2  15
ATOM     15  O   LIG     1      22.525  38.578  90.784  0.00  0.00    -0.503 OA
ATOM     16  H   LIG     1      21.814  39.167  90.476  0.00  0.00     0.292 HD
ENDBRANCH   2  15
TORSDOF 5
ENDMDL
MODEL 6
REMARK VINA RESULT:      -7.1      1.370      5.998
REMARK  5 active torsions:
REMARK  status: ('A' for Active; 'I' for Inactive)
REMARK    1  A    between atoms: C_3  and  O_1 
REMARK    2  A    between atoms: C_4  and  O_14 
REMARK    3  A    between atoms: C_7  and  C_8 
REMARK    4  A    between atoms: C_9  and  C_10 
REMARK    5  A    between atoms: C_10  and  O_12 
ROOT
ATOM      1  C   LIG     1       8.532  36.219  85.134  0.00  0.00     0.162 A 
ATOM      2  C   LIG     1       9.570  37.105  84.843  0.00  0.00     0.158 A 
ATOM      3  C   LIG     1       9.744  38.252  85.617  0.00  0.00     0.050 A 
ATOM      4  C   LIG     1       8.881  38.514  86.681  0.00  0.00     0.012 A 
ATOM      5  C   LIG     1       7.844  37.629  86.971  0.00  0.00    -0.021 A 
ATOM      6  C   LIG     1       7.668  36.481  86.198  0.00  0.00     0.057 A 
ENDROOT
BRANCH   5   7
ATOM      7  C   LIG     1       6.944  37.901  88.080  0.00  0.00     0.015 C 
ATOM      8  C   LIG     1       5.872  37.151  88.421  0.00  0.00     0.092 C 
BRANCH   8   9
ATOM      9  C   LIG     1       5.040  37.531  89.580  0.00  0.00     0.330 C 
ATOM     10  O   LIG     1       4.226  38.439  89.622  0.00  0.00    -0.246 OA
BRANCH   9  11
ATOM     11  O   LIG     1       5.325  36.699  90.609  0.00  0.00    -0.478 OA
ATOM     12  H   LIG     1       5.384  35.763  90.319  0.00  0.00     0.295 HD
ENDBRANCH   9  11
ENDBRANCH   8   9
ENDBRANCH   5   7
BRANCH   1  13
ATOM     13  O   LIG     1       8.351  35.096  84.384  0.00  0.00    -0.491 OA
ATOM     14  C   LIG     1       7.215  34.289  84.691  0.00  0.00     0.277 C 
ENDBRANCH   1  13
BRANCH   2  15
ATOM     15  O   LIG     1      10.419  36.860  83.806  0.00  0.00    -0.503 OA
ATOM     16  H   LIG     1      11.078  37.575  83.762  0.00  0.00     0.292 HD
ENDBRANCH   2  15
TORSDOF 5
ENDMDL
MODEL 7
REMARK VINA RESULT:      -7.0     26.511     28.692
REMARK  5 active torsions:
REMARK  status: ('A' for Active; 'I' for Inactive)
REMARK    1  A    between atoms: C_3  and  O_1 
REMARK    2  A    between atoms: C_4  and  O_14 
REMARK    3  A    between atoms: C_7  and  C_8 
REMARK    4  A    between atoms: C_9  and  C_10 
REMARK    5  A    between atoms: C_10  and  O_12 
ROOT
ATOM      1  C   LIG     1      30.785  23.433  87.489  0.00  0.00     0.162 A 
ATOM      2  C   LIG     1      29.646  22.844  86.937  0.00  0.00     0.158 A 
ATOM      3  C   LIG     1      29.116  21.686  87.504  0.00  0.00     0.050 A 
ATOM      4  C   LIG     1      29.724  21.115  88.622  0.00  0.00     0.012 A 
ATOM      5  C   LIG     1      30.861  21.703  89.174  0.00  0.00    -0.021 A 
ATOM      6  C   LIG     1      31.392  22.862  88.608  0.00  0.00     0.057 A 
ENDROOT
BRANCH   5   7
ATOM      7  C   LIG     1      31.493  21.109  90.341  0.00  0.00     0.015 C 
ATOM      8  C   LIG     1      32.530  21.642  91.026  0.00  0.00     0.092 C 
BRANCH   8   9
ATOM      9  C   LIG     1      33.077  20.942  92.204  0.00  0.00     0.330 C 
ATOM     10  O   LIG     1      33.409  21.453  93.262  0.00  0.00    -0.246 OA
BRANCH   9  11
ATOM     11  O   LIG     1      33.155  19.620  91.926  0.00  0.00    -0.478 OA
ATOM     12  H   LIG     1      33.238  19.451  90.964  0.00  0.00     0.295 HD
ENDBRANCH   9  11
ENDBRANCH   8   9
ENDBRANCH   5   7
BRANCH   1  13
ATOM     13  O   LIG     1      31.313  24.564  86.944  0.00  0.00    -0.491 OA
ATOM     14  C   LIG     1      32.594  24.975  87.418  0.00  0.00     0.277 C 
ENDBRANCH   1  13
BRANCH   2  15
ATOM     15  O   LIG     1      29.045  23.391  85.844  0.00  0.00    -0.503 OA
ATOM     16  H   LIG     1      28.626  24.231  86.100  0.00  0.00     0.292 HD
ENDBRANCH   2  15
TORSDOF 5
ENDMDL
MODEL 8
REMARK VINA RESULT:      -7.0      4.092      6.340
REMARK  5 active torsions:
REMARK  status: ('A' for Active; 'I' for Inactive)
REMARK    1  A    between atoms: C_3  and  O_1 
REMARK    2  A    between atoms: C_4  and  O_14 
REMARK    3  A    between atoms: C_7  and  C_8 
REMARK    4  A    between atoms: C_9  and  C_10 
REMARK    5  A    between atoms: C_10  and  O_12 
ROOT
ATOM      1  C   LIG     1      10.470  40.494  82.973  0.00  0.00     0.162 A 
ATOM      2  C   LIG     1      10.313  41.218  84.155  0.00  0.00     0.158 A 
ATOM      3  C   LIG     1       9.832  40.584  85.301  0.00  0.00     0.050 A 
ATOM      4  C   LIG     1       9.507  39.228  85.264  0.00  0.00     0.012 A 
ATOM      5  C   LIG     1       9.664  38.506  84.083  0.00  0.00    -0.021 A 
ATOM      6  C   LIG     1      10.145  39.138  82.936  0.00  0.00     0.057 A 
ENDROOT
BRANCH   5   7
ATOM      7  C   LIG     1       9.326  37.092  84.045  0.00  0.00     0.015 C 
ATOM      8  C   LIG     1       8.152  36.556  84.448  0.00  0.00     0.092 C 
BRANCH   8   9
ATOM      9  C   LIG     1       7.928  35.101  84.349  0.00  0.00     0.330 C 
ATOM     10  O   LIG     1       8.782  34.231  84.404  0.00  0.00    -0.246 OA
BRANCH   9  11
ATOM     11  O   LIG     1       6.604  34.875  84.185  0.00  0.00    -0.478 OA
ATOM     12  H   LIG     1       6.190  35.536  83.590  0.00  0.00     0.295 HD
ENDBRANCH   9  11
ENDBRANCH   8   9
ENDBRANCH   5   7
BRANCH   1  13
ATOM     13  O   LIG     1      10.939  41.102  81.847  0.00  0.00    -0.491 OA
ATOM     14  C   LIG     1      12.249  40.740  81.413  0.00  0.00     0.277 C 
ENDBRANCH   1  13
BRANCH   2  15
ATOM     15  O   LIG     1      10.626  42.543  84.203  0.00  0.00    -0.503 OA
ATOM     16  H   LIG     1       9.856  43.060  83.909  0.00  0.00     0.292 HD
ENDBRANCH   2  15
TORSDOF 5
ENDMDL
MODEL 9
REMARK VINA RESULT:      -7.0     27.397     29.750
REMARK  5 active torsions:
REMARK  status: ('A' for Active; 'I' for Inactive)
REMARK    1  A    between atoms: C_3  and  O_1 
REMARK    2  A    between atoms: C_4  and  O_14 
REMARK    3  A    between atoms: C_7  and  C_8 
REMARK    4  A    between atoms: C_9  and  C_10 
REMARK    5  A    between atoms: C_10  and  O_12 
ROOT
ATOM      1  C   LIG     1      31.871  23.302  87.895  0.00  0.00     0.162 A 
ATOM      2  C   LIG     1      32.289  24.622  87.723  0.00  0.00     0.158 A 
ATOM      3  C   LIG     1      33.107  25.225  88.678  0.00  0.00     0.050 A 
ATOM      4  C   LIG     1      33.508  24.508  89.805  0.00  0.00     0.012 A 
ATOM      5  C   LIG     1      33.090  23.189  89.977  0.00  0.00    -0.021 A 
ATOM      6  C   LIG     1      32.272  22.586  89.023  0.00  0.00     0.057 A 
ENDROOT
BRANCH   5   7
ATOM      7  C   LIG     1      33.509  22.442  91.153  0.00  0.00     0.015 C 
ATOM      8  C   LIG     1      33.918  22.985  92.321  0.00  0.00     0.092 C 
BRANCH   8   9
ATOM      9  C   LIG     1      34.309  22.114  93.446  0.00  0.00     0.330 C 
ATOM     10  O   LIG     1      33.648  21.207  93.925  0.00  0.00    -0.246 OA
BRANCH   9  11
ATOM     11  O   LIG     1      35.540  22.483  93.874  0.00  0.00    -0.478 OA
ATOM     12  H   LIG     1      35.991  21.761  94.361  0.00  0.00     0.295 HD
ENDBRANCH   9  11
ENDBRANCH   8   9
ENDBRANCH   5   7
BRANCH   1  13
ATOM     13  O   LIG     1      31.070  22.703  86.969  0.00  0.00    -0.491 OA
ATOM     14  C   LIG     1      29.728  22.421  87.360  0.00  0.00     0.277 C 
ENDBRANCH   1  13
BRANCH   2  15
ATOM     15  O   LIG     1      31.903  25.333  86.626  0.00  0.00    -0.503 OA
ATOM     16  H   LIG     1      32.421  26.156  86.584  0.00  0.00     0.292 HD
ENDBRANCH   2  15
TORSDOF 5
ENDMDL
