MODEL 1
REMARK VINA RESULT:    -7.809      0.000      0.000
REMARK INTER + INTRA:         -13.380
REMARK INTER:                 -12.027
REMARK INTRA:                  -1.353
REMARK UNBOUND:                -1.006
REMARK  Name = 9823887
REMARK                            x       y       z     vdW  Elec       q    Type
REMARK                         _______ _______ _______ _____ _____    ______ ____
ROOT
ATOM      1  O   LIG    1        6.389  43.489  20.845  0.00  0.00    -0.341 OA
ATOM      2  C   LIG    1        5.434  43.684  19.805  0.00  0.00    +0.282 C 
ATOM      3  C   LIG    1        5.792  44.916  18.973  0.00  0.00    +0.201 C 
ATOM      4  C   LIG    1        7.227  44.838  18.453  0.00  0.00    +0.179 C 
ATOM      5  C   LIG    1        8.202  44.470  19.570  0.00  0.00    +0.177 C 
ATOM     22  C   LIG    1        7.704  43.246  20.344  0.00  0.00    +0.178 C 
ENDROOT
BRANCH   5   6
ATOM      6  O   LIG    1        9.480  44.183  19.006  0.00  0.00    -0.386 OA
ATOM      7  H   LIG    1        9.338  43.718  18.164  0.00  0.00    +0.210 HD
ENDBRANCH   5   6
BRANCH   4   8
ATOM      8  O   LIG    1        7.613  46.111  17.931  0.00  0.00    -0.386 OA
ATOM      9  H   LIG    1        7.012  46.775  18.309  0.00  0.00    +0.210 HD
ENDBRANCH   4   8
BRANCH   3  10
ATOM     10  O   LIG    1        4.890  44.988  17.869  0.00  0.00    -0.384 OA
ATOM     11  H   LIG    1        5.403  45.218  17.076  0.00  0.00    +0.210 HD
ENDBRANCH   3  10
BRANCH   2  12
ATOM     12  O   LIG    1        4.141  43.894  20.370  0.00  0.00    -0.345 OA
BRANCH  12  13
ATOM     13  C   LIG    1        3.284  42.791  20.124  0.00  0.00    +0.190 C 
BRANCH  13  14
ATOM     14  C   LIG    1        3.099  42.032  21.399  0.00  0.00    +0.001 C 
ATOM     15  C   LIG    1        3.046  42.618  22.605  0.00  0.00    +0.006 C 
BRANCH  15  16
ATOM     16  C   LIG    1        2.850  41.914  23.884  0.00  0.00    -0.025 A 
ATOM     17  C   LIG    1        2.071  40.768  23.916  0.00  0.00    +0.008 A 
ATOM     18  C   LIG    1        1.887  40.101  25.127  0.00  0.00    +0.001 A 
ATOM     19  C   LIG    1        2.482  40.589  26.290  0.00  0.00    +0.000 A 
ATOM     20  C   LIG    1        3.263  41.744  26.242  0.00  0.00    +0.001 A 
ATOM     21  C   LIG    1        3.448  42.411  25.031  0.00  0.00    +0.008 A 
ENDBRANCH  15  16
ENDBRANCH  13  14
ENDBRANCH  12  13
ENDBRANCH   2  12
BRANCH  22  23
ATOM     23  C   LIG    1        8.601  42.929  21.537  0.00  0.00    +0.197 C 
BRANCH  23  24
ATOM     24  O   LIG    1        9.271  44.115  21.925  0.00  0.00    -0.346 OA
BRANCH  24  25
ATOM     25  C   LIG    1        8.717  44.670  23.113  0.00  0.00    +0.281 C 
ATOM     26  C   LIG    1        9.176  43.857  24.334  0.00  0.00    +0.201 C 
ATOM     27  C   LIG    1       10.642  44.129  24.689  0.00  0.00    +0.178 C 
ATOM     28  C   LIG    1       10.898  45.636  24.749  0.00  0.00    +0.171 C 
ATOM     29  C   LIG    1       10.420  46.313  23.471  0.00  0.00    +0.197 C 
ATOM     36  O   LIG    1        9.033  46.059  23.256  0.00  0.00    -0.346 OA
BRANCH  28  30
ATOM     30  O   LIG    1       12.283  45.882  24.952  0.00  0.00    -0.387 OA
ATOM     31  H   LIG    1       12.415  46.846  24.938  0.00  0.00    +0.210 HD
ENDBRANCH  28  30
BRANCH  27  32
ATOM     32  O   LIG    1       11.489  43.546  23.700  0.00  0.00    -0.386 OA
ATOM     33  H   LIG    1       11.400  42.580  23.771  0.00  0.00    +0.210 HD
ENDBRANCH  27  32
BRANCH  26  34
ATOM     34  O   LIG    1        8.349  44.214  25.438  0.00  0.00    -0.384 OA
ATOM     35  H   LIG    1        8.225  45.178  25.431  0.00  0.00    +0.210 HD
ENDBRANCH  26  34
ENDBRANCH  24  25
ENDBRANCH  23  24
ENDBRANCH  22  23
TORSDOF 13
ENDMDL
MODEL 2
REMARK VINA RESULT:    -7.783      1.259      1.912
REMARK INTER + INTRA:         -13.339
REMARK INTER:                 -11.881
REMARK INTRA:                  -1.458
REMARK UNBOUND:                -1.006
REMARK  Name = 9823887
REMARK                            x       y       z     vdW  Elec       q    Type
REMARK                         _______ _______ _______ _____ _____    ______ ____
ROOT
ATOM      1  O   LIG    1        7.452  43.340  20.048  0.00  0.00    -0.341 OA
ATOM      2  C   LIG    1        6.329  43.747  19.270  0.00  0.00    +0.282 C 
ATOM      3  C   LIG    1        6.234  45.272  19.222  0.00  0.00    +0.201 C 
ATOM      4  C   LIG    1        7.544  45.896  18.743  0.00  0.00    +0.179 C 
ATOM      5  C   LIG    1        8.742  45.316  19.495  0.00  0.00    +0.177 C 
ATOM     22  C   LIG    1        8.692  43.786  19.497  0.00  0.00    +0.178 C 
ENDROOT
BRANCH   5   6
ATOM      6  O   LIG    1        9.947  45.747  18.868  0.00  0.00    -0.386 OA
ATOM      7  H   LIG    1       10.675  45.625  19.502  0.00  0.00    +0.210 HD
ENDBRANCH   5   6
BRANCH   4   8
ATOM      8  O   LIG    1        7.515  47.305  18.981  0.00  0.00    -0.386 OA
ATOM      9  H   LIG    1        8.224  47.705  18.449  0.00  0.00    +0.210 HD
ENDBRANCH   4   8
BRANCH   3  10
ATOM     10  O   LIG    1        5.183  45.627  18.325  0.00  0.00    -0.384 OA
ATOM     11  H   LIG    1        5.586  45.951  17.502  0.00  0.00    +0.210 HD
ENDBRANCH   3  10
BRANCH   2  12
ATOM     12  O   LIG    1        5.128  43.249  19.857  0.00  0.00    -0.345 OA
BRANCH  12  13
ATOM     13  C   LIG    1        4.889  43.841  21.124  0.00  0.00    +0.190 C 
BRANCH  13  14
ATOM     14  C   LIG    1        4.437  42.780  22.074  0.00  0.00    +0.001 C 
ATOM     15  C   LIG    1        3.313  42.873  22.803  0.00  0.00    +0.006 C 
BRANCH  15  16
ATOM     16  C   LIG    1        2.822  41.848  23.739  0.00  0.00    -0.025 A 
ATOM     17  C   LIG    1        2.026  40.817  23.263  0.00  0.00    +0.008 A 
ATOM     18  C   LIG    1        1.562  39.848  24.150  0.00  0.00    +0.001 A 
ATOM     19  C   LIG    1        1.896  39.920  25.502  0.00  0.00    +0.000 A 
ATOM     20  C   LIG    1        2.697  40.962  25.968  0.00  0.00    +0.001 A 
ATOM     21  C   LIG    1        3.163  41.933  25.080  0.00  0.00    +0.008 A 
ENDBRANCH  15  16
ENDBRANCH  13  14
ENDBRANCH  12  13
ENDBRANCH   2  12
BRANCH  22  23
ATOM     23  C   LIG    1        9.813  43.185  20.340  0.00  0.00    +0.197 C 
BRANCH  23  24
ATOM     24  O   LIG    1       10.195  44.131  21.322  0.00  0.00    -0.346 OA
BRANCH  24  25
ATOM     25  C   LIG    1       10.273  43.546  22.617  0.00  0.00    +0.281 C 
ATOM     26  C   LIG    1       10.932  44.530  23.596  0.00  0.00    +0.201 C 
ATOM     27  C   LIG    1        9.991  45.674  23.985  0.00  0.00    +0.178 C 
ATOM     28  C   LIG    1        8.630  45.117  24.406  0.00  0.00    +0.171 C 
ATOM     29  C   LIG    1        8.080  44.179  23.338  0.00  0.00    +0.197 C 
ATOM     36  O   LIG    1        8.993  43.112  23.088  0.00  0.00    -0.346 OA
BRANCH  28  30
ATOM     30  O   LIG    1        7.723  46.184  24.643  0.00  0.00    -0.387 OA
ATOM     31  H   LIG    1        6.915  46.003  24.132  0.00  0.00    +0.210 HD
ENDBRANCH  28  30
BRANCH  27  32
ATOM     32  O   LIG    1        9.817  46.550  22.872  0.00  0.00    -0.386 OA
ATOM     33  H   LIG    1        8.915  46.417  22.533  0.00  0.00    +0.210 HD
ENDBRANCH  27  32
BRANCH  26  34
ATOM     34  O   LIG    1       11.303  43.805  24.767  0.00  0.00    -0.384 OA
ATOM     35  H   LIG    1       11.543  42.901  24.505  0.00  0.00    +0.210 HD
ENDBRANCH  26  34
ENDBRANCH  24  25
ENDBRANCH  23  24
ENDBRANCH  22  23
TORSDOF 13
ENDMDL
MODEL 3
REMARK VINA RESULT:    -7.767      2.458      3.243
REMARK INTER + INTRA:         -13.313
REMARK INTER:                 -12.252
REMARK INTRA:                  -1.061
REMARK UNBOUND:                -1.006
REMARK  Name = 9823887
REMARK                            x       y       z     vdW  Elec       q    Type
REMARK                         _______ _______ _______ _____ _____    ______ ____
ROOT
ATOM      1  O   LIG    1        7.195  44.172  21.247  0.00  0.00    -0.341 OA
ATOM      2  C   LIG    1        6.179  44.324  20.258  0.00  0.00    +0.282 C 
ATOM      3  C   LIG    1        6.138  45.766  19.750  0.00  0.00    +0.201 C 
ATOM      4  C   LIG    1        7.511  46.224  19.262  0.00  0.00    +0.179 C 
ATOM      5  C   LIG    1        8.599  45.898  20.285  0.00  0.00    +0.177 C 
ATOM     22  C   LIG    1        8.502  44.438  20.735  0.00  0.00    +0.178 C 
ENDROOT
BRANCH   5   6
ATOM      6  O   LIG    1        9.879  46.127  19.701  0.00  0.00    -0.386 OA
ATOM      7  H   LIG    1        9.816  46.920  19.141  0.00  0.00    +0.210 HD
ENDBRANCH   5   6
BRANCH   4   8
ATOM      8  O   LIG    1        7.499  47.639  19.066  0.00  0.00    -0.386 OA
ATOM      9  H   LIG    1        6.615  47.880  18.741  0.00  0.00    +0.210 HD
ENDBRANCH   4   8
BRANCH   3  10
ATOM     10  O   LIG    1        5.204  45.833  18.673  0.00  0.00    -0.384 OA
ATOM     11  H   LIG    1        5.612  45.418  17.894  0.00  0.00    +0.210 HD
ENDBRANCH   3  10
BRANCH   2  12
ATOM     12  O   LIG    1        4.906  44.020  20.825  0.00  0.00    -0.345 OA
BRANCH  12  13
ATOM     13  C   LIG    1        4.727  44.669  22.073  0.00  0.00    +0.190 C 
BRANCH  13  14
ATOM     14  C   LIG    1        4.267  43.663  23.078  0.00  0.00    +0.001 C 
ATOM     15  C   LIG    1        3.265  42.799  22.851  0.00  0.00    +0.006 C 
BRANCH  15  16
ATOM     16  C   LIG    1        2.788  41.782  23.804  0.00  0.00    -0.025 A 
ATOM     17  C   LIG    1        3.145  41.882  25.139  0.00  0.00    +0.008 A 
ATOM     18  C   LIG    1        2.692  40.919  26.040  0.00  0.00    +0.001 A 
ATOM     19  C   LIG    1        1.890  39.869  25.596  0.00  0.00    +0.000 A 
ATOM     20  C   LIG    1        1.538  39.781  24.249  0.00  0.00    +0.001 A 
ATOM     21  C   LIG    1        1.991  40.744  23.347  0.00  0.00    +0.008 A 
ENDBRANCH  15  16
ENDBRANCH  13  14
ENDBRANCH  12  13
ENDBRANCH   2  12
BRANCH  22  23
ATOM     23  C   LIG    1        9.504  44.121  21.842  0.00  0.00    +0.197 C 
BRANCH  23  24
ATOM     24  O   LIG    1       10.767  43.877  21.250  0.00  0.00    -0.346 OA
BRANCH  24  25
ATOM     25  C   LIG    1       11.454  42.809  21.894  0.00  0.00    +0.281 C 
ATOM     26  C   LIG    1       11.863  41.751  20.858  0.00  0.00    +0.201 C 
ATOM     27  C   LIG    1       13.042  42.214  19.995  0.00  0.00    +0.178 C 
ATOM     28  C   LIG    1       14.164  42.755  20.883  0.00  0.00    +0.171 C 
ATOM     29  C   LIG    1       13.628  43.810  21.842  0.00  0.00    +0.197 C 
ATOM     36  O   LIG    1       12.581  43.273  22.646  0.00  0.00    -0.346 OA
BRANCH  28  30
ATOM     30  O   LIG    1       15.198  43.299  20.075  0.00  0.00    -0.387 OA
ATOM     31  H   LIG    1       16.033  43.212  20.568  0.00  0.00    +0.210 HD
ENDBRANCH  28  30
BRANCH  27  32
ATOM     32  O   LIG    1       12.608  43.241  19.105  0.00  0.00    -0.386 OA
ATOM     33  H   LIG    1       12.977  44.082  19.427  0.00  0.00    +0.210 HD
ENDBRANCH  27  32
BRANCH  26  34
ATOM     34  O   LIG    1       12.229  40.565  21.560  0.00  0.00    -0.384 OA
ATOM     35  H   LIG    1       13.131  40.677  21.904  0.00  0.00    +0.210 HD
ENDBRANCH  26  34
ENDBRANCH  24  25
ENDBRANCH  23  24
ENDBRANCH  22  23
TORSDOF 13
ENDMDL
MODEL 4
REMARK VINA RESULT:    -7.672      1.453      2.199
REMARK INTER + INTRA:         -13.163
REMARK INTER:                 -11.967
REMARK INTRA:                  -1.196
REMARK UNBOUND:                -1.006
REMARK  Name = 9823887
REMARK                            x       y       z     vdW  Elec       q    Type
REMARK                         _______ _______ _______ _____ _____    ______ ____
ROOT
ATOM      1  O   LIG    1        7.042  44.015  21.037  0.00  0.00    -0.341 OA
ATOM      2  C   LIG    1        6.781  43.833  19.647  0.00  0.00    +0.282 C 
ATOM      3  C   LIG    1        6.612  45.185  18.953  0.00  0.00    +0.201 C 
ATOM      4  C   LIG    1        7.808  46.099  19.216  0.00  0.00    +0.179 C 
ATOM      5  C   LIG    1        8.156  46.142  20.704  0.00  0.00    +0.177 C 
ATOM     22  C   LIG    1        8.256  44.727  21.279  0.00  0.00    +0.178 C 
ENDROOT
BRANCH   5   6
ATOM      6  O   LIG    1        9.402  46.812  20.878  0.00  0.00    -0.386 OA
ATOM      7  H   LIG    1        9.503  47.451  20.152  0.00  0.00    +0.210 HD
ENDBRANCH   5   6
BRANCH   4   8
ATOM      8  O   LIG    1        7.491  47.429  18.799  0.00  0.00    -0.386 OA
ATOM      9  H   LIG    1        8.174  47.704  18.163  0.00  0.00    +0.210 HD
ENDBRANCH   4   8
BRANCH   3  10
ATOM     10  O   LIG    1        6.491  44.955  17.549  0.00  0.00    -0.384 OA
ATOM     11  H   LIG    1        5.637  44.521  17.388  0.00  0.00    +0.210 HD
ENDBRANCH   3  10
BRANCH   2  12
ATOM     12  O   LIG    1        5.573  43.096  19.475  0.00  0.00    -0.345 OA
BRANCH  12  13
ATOM     13  C   LIG    1        4.486  43.722  20.139  0.00  0.00    +0.190 C 
BRANCH  13  14
ATOM     14  C   LIG    1        3.865  42.739  21.079  0.00  0.00    +0.001 C 
ATOM     15  C   LIG    1        3.751  42.952  22.399  0.00  0.00    +0.006 C 
BRANCH  15  16
ATOM     16  C   LIG    1        3.134  42.021  23.359  0.00  0.00    -0.025 A 
ATOM     17  C   LIG    1        2.306  41.014  22.892  0.00  0.00    +0.008 A 
ATOM     18  C   LIG    1        1.722  40.133  23.802  0.00  0.00    +0.001 A 
ATOM     19  C   LIG    1        1.974  40.271  25.167  0.00  0.00    +0.000 A 
ATOM     20  C   LIG    1        2.810  41.290  25.623  0.00  0.00    +0.001 A 
ATOM     21  C   LIG    1        3.394  42.171  24.712  0.00  0.00    +0.008 A 
ENDBRANCH  15  16
ENDBRANCH  13  14
ENDBRANCH  12  13
ENDBRANCH   2  12
BRANCH  22  23
ATOM     23  C   LIG    1        8.488  44.744  22.787  0.00  0.00    +0.197 C 
BRANCH  23  24
ATOM     24  O   LIG    1        9.816  45.167  23.034  0.00  0.00    -0.346 OA
BRANCH  24  25
ATOM     25  C   LIG    1       10.750  44.108  22.851  0.00  0.00    +0.281 C 
ATOM     26  C   LIG    1       12.183  44.661  22.888  0.00  0.00    +0.201 C 
ATOM     27  C   LIG    1       12.622  45.028  24.310  0.00  0.00    +0.178 C 
ATOM     28  C   LIG    1       12.321  43.875  25.268  0.00  0.00    +0.171 C 
ATOM     29  C   LIG    1       10.865  43.441  25.147  0.00  0.00    +0.197 C 
ATOM     36  O   LIG    1       10.565  43.058  23.807  0.00  0.00    -0.346 OA
BRANCH  28  30
ATOM     30  O   LIG    1       12.611  44.267  26.602  0.00  0.00    -0.387 OA
ATOM     31  H   LIG    1       11.938  43.867  27.180  0.00  0.00    +0.210 HD
ENDBRANCH  28  30
BRANCH  27  32
ATOM     32  O   LIG    1       11.920  46.194  24.741  0.00  0.00    -0.386 OA
ATOM     33  H   LIG    1       11.791  46.762  23.962  0.00  0.00    +0.210 HD
ENDBRANCH  27  32
BRANCH  26  34
ATOM     34  O   LIG    1       13.055  43.661  22.368  0.00  0.00    -0.384 OA
ATOM     35  H   LIG    1       13.713  43.442  23.049  0.00  0.00    +0.210 HD
ENDBRANCH  26  34
ENDBRANCH  24  25
ENDBRANCH  23  24
ENDBRANCH  22  23
TORSDOF 13
ENDMDL
MODEL 5
REMARK VINA RESULT:    -7.573      1.582      2.762
REMARK INTER + INTRA:         -13.006
REMARK INTER:                 -12.377
REMARK INTRA:                  -0.629
REMARK UNBOUND:                -1.006
REMARK  Name = 9823887
REMARK                            x       y       z     vdW  Elec       q    Type
REMARK                         _______ _______ _______ _____ _____    ______ ____
ROOT
ATOM      1  O   LIG    1        8.441  44.573  20.955  0.00  0.00    -0.341 OA
ATOM      2  C   LIG    1        7.588  44.950  19.877  0.00  0.00    +0.282 C 
ATOM      3  C   LIG    1        8.410  45.499  18.711  0.00  0.00    +0.201 C 
ATOM      4  C   LIG    1        9.501  44.516  18.287  0.00  0.00    +0.179 C 
ATOM      5  C   LIG    1       10.291  44.012  19.493  0.00  0.00    +0.177 C 
ATOM     22  C   LIG    1        9.347  43.529  20.598  0.00  0.00    +0.178 C 
ENDROOT
BRANCH   5   6
ATOM      6  O   LIG    1       11.134  42.936  19.089  0.00  0.00    -0.386 OA
ATOM      7  H   LIG    1       10.625  42.110  19.170  0.00  0.00    +0.210 HD
ENDBRANCH   5   6
BRANCH   4   8
ATOM      8  O   LIG    1       10.413  45.170  17.403  0.00  0.00    -0.386 OA
ATOM      9  H   LIG    1        9.988  45.989  17.099  0.00  0.00    +0.210 HD
ENDBRANCH   4   8
BRANCH   3  10
ATOM     10  O   LIG    1        7.529  45.732  17.612  0.00  0.00    -0.384 OA
ATOM     11  H   LIG    1        7.906  45.303  16.827  0.00  0.00    +0.210 HD
ENDBRANCH   3  10
BRANCH   2  12
ATOM     12  O   LIG    1        6.693  45.975  20.305  0.00  0.00    -0.345 OA
BRANCH  12  13
ATOM     13  C   LIG    1        5.374  45.737  19.839  0.00  0.00    +0.190 C 
BRANCH  13  14
ATOM     14  C   LIG    1        4.817  44.549  20.555  0.00  0.00    +0.001 C 
ATOM     15  C   LIG    1        3.988  44.644  21.606  0.00  0.00    +0.006 C 
BRANCH  15  16
ATOM     16  C   LIG    1        3.403  43.503  22.332  0.00  0.00    -0.025 A 
ATOM     17  C   LIG    1        2.470  42.700  21.697  0.00  0.00    +0.008 A 
ATOM     18  C   LIG    1        1.917  41.620  22.385  0.00  0.00    +0.001 A 
ATOM     19  C   LIG    1        2.303  41.358  23.699  0.00  0.00    +0.000 A 
ATOM     20  C   LIG    1        3.243  42.175  24.326  0.00  0.00    +0.001 A 
ATOM     21  C   LIG    1        3.797  43.255  23.638  0.00  0.00    +0.008 A 
ENDBRANCH  15  16
ENDBRANCH  13  14
ENDBRANCH  12  13
ENDBRANCH   2  12
BRANCH  22  23
ATOM     23  C   LIG    1       10.110  43.129  21.858  0.00  0.00    +0.197 C 
BRANCH  23  24
ATOM     24  O   LIG    1       11.169  44.048  22.054  0.00  0.00    -0.346 OA
BRANCH  24  25
ATOM     25  C   LIG    1       11.473  44.216  23.434  0.00  0.00    +0.281 C 
ATOM     26  C   LIG    1       11.608  45.711  23.762  0.00  0.00    +0.201 C 
ATOM     27  C   LIG    1       10.249  46.417  23.802  0.00  0.00    +0.178 C 
ATOM     28  C   LIG    1        9.269  45.624  24.669  0.00  0.00    +0.171 C 
ATOM     29  C   LIG    1        9.214  44.169  24.223  0.00  0.00    +0.197 C 
ATOM     36  O   LIG    1       10.510  43.576  24.278  0.00  0.00    -0.346 OA
BRANCH  28  30
ATOM     30  O   LIG    1        7.978  46.213  24.600  0.00  0.00    -0.387 OA
ATOM     31  H   LIG    1        7.393  45.709  25.192  0.00  0.00    +0.210 HD
ENDBRANCH  28  30
BRANCH  27  32
ATOM     32  O   LIG    1        9.727  46.524  22.479  0.00  0.00    -0.386 OA
ATOM     33  H   LIG    1        8.894  46.022  22.451  0.00  0.00    +0.210 HD
ENDBRANCH  27  32
BRANCH  26  34
ATOM     34  O   LIG    1       12.239  45.829  25.034  0.00  0.00    -0.384 OA
ATOM     35  H   LIG    1       11.661  46.349  25.618  0.00  0.00    +0.210 HD
ENDBRANCH  26  34
ENDBRANCH  24  25
ENDBRANCH  23  24
ENDBRANCH  22  23
TORSDOF 13
ENDMDL
MODEL 6
REMARK VINA RESULT:    -7.558      1.451      2.393
REMARK INTER + INTRA:         -12.983
REMARK INTER:                 -11.638
REMARK INTRA:                  -1.345
REMARK UNBOUND:                -1.006
REMARK  Name = 9823887
REMARK                            x       y       z     vdW  Elec       q    Type
REMARK                         _______ _______ _______ _____ _____    ______ ____
ROOT
ATOM      1  O   LIG    1        7.085  43.826  20.623  0.00  0.00    -0.341 OA
ATOM      2  C   LIG    1        6.046  44.101  19.687  0.00  0.00    +0.282 C 
ATOM      3  C   LIG    1        6.006  45.594  19.354  0.00  0.00    +0.201 C 
ATOM      4  C   LIG    1        7.372  46.096  18.888  0.00  0.00    +0.179 C 
ATOM      5  C   LIG    1        8.482  45.644  19.835  0.00  0.00    +0.177 C 
ATOM     22  C   LIG    1        8.382  44.142  20.112  0.00  0.00    +0.178 C 
ENDROOT
BRANCH   5   6
ATOM      6  O   LIG    1        9.749  45.932  19.250  0.00  0.00    -0.386 OA
ATOM      7  H   LIG    1       10.410  45.352  19.666  0.00  0.00    +0.210 HD
ENDBRANCH   5   6
BRANCH   4   8
ATOM      8  O   LIG    1        7.369  47.525  18.861  0.00  0.00    -0.386 OA
ATOM      9  H   LIG    1        6.449  47.812  18.729  0.00  0.00    +0.210 HD
ENDBRANCH   4   8
BRANCH   3  10
ATOM     10  O   LIG    1        5.047  45.795  18.317  0.00  0.00    -0.384 OA
ATOM     11  H   LIG    1        5.266  45.197  17.583  0.00  0.00    +0.210 HD
ENDBRANCH   3  10
BRANCH   2  12
ATOM     12  O   LIG    1        4.785  43.741  20.246  0.00  0.00    -0.345 OA
BRANCH  12  13
ATOM     13  C   LIG    1        4.415  44.620  21.297  0.00  0.00    +0.190 C 
BRANCH  13  14
ATOM     14  C   LIG    1        3.929  43.810  22.455  0.00  0.00    +0.001 C 
ATOM     15  C   LIG    1        3.367  42.598  22.323  0.00  0.00    +0.006 C 
BRANCH  15  16
ATOM     16  C   LIG    1        2.888  41.758  23.434  0.00  0.00    -0.025 A 
ATOM     17  C   LIG    1        3.245  42.083  24.733  0.00  0.00    +0.008 A 
ATOM     18  C   LIG    1        2.790  41.288  25.785  0.00  0.00    +0.001 A 
ATOM     19  C   LIG    1        1.987  40.178  25.525  0.00  0.00    +0.000 A 
ATOM     20  C   LIG    1        1.636  39.863  24.212  0.00  0.00    +0.001 A 
ATOM     21  C   LIG    1        2.090  40.659  23.160  0.00  0.00    +0.008 A 
ENDBRANCH  15  16
ENDBRANCH  13  14
ENDBRANCH  12  13
ENDBRANCH   2  12
BRANCH  22  23
ATOM     23  C   LIG    1        9.407  43.688  21.146  0.00  0.00    +0.197 C 
BRANCH  23  24
ATOM     24  O   LIG    1        8.728  43.377  22.349  0.00  0.00    -0.346 OA
BRANCH  24  25
ATOM     25  C   LIG    1        8.831  44.431  23.301  0.00  0.00    +0.281 C 
ATOM     26  C   LIG    1        7.446  44.739  23.892  0.00  0.00    +0.201 C 
ATOM     27  C   LIG    1        6.990  43.663  24.882  0.00  0.00    +0.178 C 
ATOM     28  C   LIG    1        8.102  43.370  25.891  0.00  0.00    +0.171 C 
ATOM     29  C   LIG    1        9.409  43.057  25.173  0.00  0.00    +0.197 C 
ATOM     36  O   LIG    1        9.788  44.138  24.325  0.00  0.00    -0.346 OA
BRANCH  28  30
ATOM     30  O   LIG    1        7.722  42.284  26.725  0.00  0.00    -0.387 OA
ATOM     31  H   LIG    1        6.767  42.145  26.610  0.00  0.00    +0.210 HD
ENDBRANCH  28  30
BRANCH  27  32
ATOM     32  O   LIG    1        6.669  42.467  24.173  0.00  0.00    -0.386 OA
ATOM     33  H   LIG    1        6.129  41.913  24.763  0.00  0.00    +0.210 HD
ENDBRANCH  27  32
BRANCH  26  34
ATOM     34  O   LIG    1        7.522  45.995  24.562  0.00  0.00    -0.384 OA
ATOM     35  H   LIG    1        7.329  46.699  23.920  0.00  0.00    +0.210 HD
ENDBRANCH  26  34
ENDBRANCH  24  25
ENDBRANCH  23  24
ENDBRANCH  22  23
TORSDOF 13
ENDMDL
MODEL 7
REMARK VINA RESULT:    -7.553      2.815      7.792
REMARK INTER + INTRA:         -12.974
REMARK INTER:                 -12.224
REMARK INTRA:                  -0.750
REMARK UNBOUND:                -1.006
REMARK  Name = 9823887
REMARK                            x       y       z     vdW  Elec       q    Type
REMARK                         _______ _______ _______ _____ _____    ______ ____
ROOT
ATOM      1  O   LIG    1        6.252  44.466  20.535  0.00  0.00    -0.341 OA
ATOM      2  C   LIG    1        7.646  44.708  20.359  0.00  0.00    +0.282 C 
ATOM      3  C   LIG    1        7.870  45.857  19.375  0.00  0.00    +0.201 C 
ATOM      4  C   LIG    1        7.099  47.108  19.795  0.00  0.00    +0.179 C 
ATOM      5  C   LIG    1        5.646  46.777  20.129  0.00  0.00    +0.177 C 
ATOM     22  C   LIG    1        5.566  45.589  21.090  0.00  0.00    +0.178 C 
ENDROOT
BRANCH   5   6
ATOM      6  O   LIG    1        5.029  47.913  20.731  0.00  0.00    -0.386 OA
ATOM      7  H   LIG    1        5.708  48.603  20.833  0.00  0.00    +0.210 HD
ENDBRANCH   5   6
BRANCH   4   8
ATOM      8  O   LIG    1        7.103  48.051  18.722  0.00  0.00    -0.386 OA
ATOM      9  H   LIG    1        6.244  47.981  18.270  0.00  0.00    +0.210 HD
ENDBRANCH   4   8
BRANCH   3  10
ATOM     10  O   LIG    1        9.266  46.149  19.339  0.00  0.00    -0.384 OA
ATOM     11  H   LIG    1        9.469  46.545  18.475  0.00  0.00    +0.210 HD
ENDBRANCH   3  10
BRANCH   2  12
ATOM     12  O   LIG    1        8.275  43.544  19.828  0.00  0.00    -0.345 OA
BRANCH  12  13
ATOM     13  C   LIG    1        8.960  42.820  20.837  0.00  0.00    +0.190 C 
BRANCH  13  14
ATOM     14  C   LIG    1       10.256  43.505  21.127  0.00  0.00    +0.001 C 
ATOM     15  C   LIG    1       11.235  42.952  21.860  0.00  0.00    +0.006 C 
BRANCH  15  16
ATOM     16  C   LIG    1       12.532  43.582  22.158  0.00  0.00    -0.025 A 
ATOM     17  C   LIG    1       13.637  43.261  21.386  0.00  0.00    +0.008 A 
ATOM     18  C   LIG    1       14.865  43.858  21.669  0.00  0.00    +0.001 A 
ATOM     19  C   LIG    1       14.973  44.767  22.720  0.00  0.00    +0.000 A 
ATOM     20  C   LIG    1       13.853  45.081  23.489  0.00  0.00    +0.001 A 
ATOM     21  C   LIG    1       12.624  44.484  23.206  0.00  0.00    +0.008 A 
ENDBRANCH  15  16
ENDBRANCH  13  14
ENDBRANCH  12  13
ENDBRANCH   2  12
BRANCH  22  23
ATOM     23  C   LIG    1        4.122  45.165  21.347  0.00  0.00    +0.197 C 
BRANCH  23  24
ATOM     24  O   LIG    1        4.034  43.759  21.210  0.00  0.00    -0.346 OA
BRANCH  24  25
ATOM     25  C   LIG    1        4.317  43.090  22.434  0.00  0.00    +0.281 C 
ATOM     26  C   LIG    1        3.053  43.036  23.305  0.00  0.00    +0.201 C 
ATOM     27  C   LIG    1        2.038  42.013  22.786  0.00  0.00    +0.178 C 
ATOM     28  C   LIG    1        2.729  40.674  22.520  0.00  0.00    +0.171 C 
ATOM     29  C   LIG    1        3.948  40.868  21.627  0.00  0.00    +0.197 C 
ATOM     36  O   LIG    1        4.865  41.785  22.219  0.00  0.00    -0.346 OA
BRANCH  28  30
ATOM     30  O   LIG    1        1.813  39.769  21.920  0.00  0.00    -0.387 OA
ATOM     31  H   LIG    1        1.521  39.147  22.608  0.00  0.00    +0.210 HD
ENDBRANCH  28  30
BRANCH  27  32
ATOM     32  O   LIG    1        1.455  42.491  21.574  0.00  0.00    -0.386 OA
ATOM     33  H   LIG    1        0.561  42.113  21.511  0.00  0.00    +0.210 HD
ENDBRANCH  27  32
BRANCH  26  34
ATOM     34  O   LIG    1        3.444  42.683  24.630  0.00  0.00    -0.384 OA
ATOM     35  H   LIG    1        2.643  42.518  25.154  0.00  0.00    +0.210 HD
ENDBRANCH  26  34
ENDBRANCH  24  25
ENDBRANCH  23  24
ENDBRANCH  22  23
TORSDOF 13
ENDMDL
MODEL 8
REMARK VINA RESULT:    -7.448      1.486      2.426
REMARK INTER + INTRA:         -12.808
REMARK INTER:                 -11.801
REMARK INTRA:                  -1.006
REMARK UNBOUND:                -1.006
REMARK  Name = 9823887
REMARK                            x       y       z     vdW  Elec       q    Type
REMARK                         _______ _______ _______ _____ _____    ______ ____
ROOT
ATOM      1  O   LIG    1        7.347  45.628  21.364  0.00  0.00    -0.341 OA
ATOM      2  C   LIG    1        6.210  44.785  21.196  0.00  0.00    +0.282 C 
ATOM      3  C   LIG    1        5.664  44.900  19.772  0.00  0.00    +0.201 C 
ATOM      4  C   LIG    1        6.755  44.637  18.735  0.00  0.00    +0.179 C 
ATOM      5  C   LIG    1        8.017  45.442  19.042  0.00  0.00    +0.177 C 
ATOM     22  C   LIG    1        8.430  45.267  20.506  0.00  0.00    +0.178 C 
ENDROOT
BRANCH   5   6
ATOM      6  O   LIG    1        9.077  45.000  18.198  0.00  0.00    -0.386 OA
ATOM      7  H   LIG    1        9.894  44.985  18.725  0.00  0.00    +0.210 HD
ENDBRANCH   5   6
BRANCH   4   8
ATOM      8  O   LIG    1        6.287  45.027  17.442  0.00  0.00    -0.386 OA
ATOM      9  H   LIG    1        6.683  44.421  16.794  0.00  0.00    +0.210 HD
ENDBRANCH   4   8
BRANCH   3  10
ATOM     10  O   LIG    1        4.619  43.941  19.615  0.00  0.00    -0.384 OA
ATOM     11  H   LIG    1        3.897  44.180  20.219  0.00  0.00    +0.210 HD
ENDBRANCH   3  10
BRANCH   2  12
ATOM     12  O   LIG    1        5.177  45.181  22.096  0.00  0.00    -0.345 OA
BRANCH  12  13
ATOM     13  C   LIG    1        5.386  44.640  23.391  0.00  0.00    +0.190 C 
BRANCH  13  14
ATOM     14  C   LIG    1        4.617  43.364  23.510  0.00  0.00    +0.001 C 
ATOM     15  C   LIG    1        3.820  43.077  24.552  0.00  0.00    +0.006 C 
BRANCH  15  16
ATOM     16  C   LIG    1        3.034  41.841  24.704  0.00  0.00    -0.025 A 
ATOM     17  C   LIG    1        2.431  41.278  23.591  0.00  0.00    +0.008 A 
ATOM     18  C   LIG    1        1.686  40.108  23.736  0.00  0.00    +0.001 A 
ATOM     19  C   LIG    1        1.553  39.517  24.992  0.00  0.00    +0.000 A 
ATOM     20  C   LIG    1        2.165  40.095  26.104  0.00  0.00    +0.001 A 
ATOM     21  C   LIG    1        2.910  41.265  25.958  0.00  0.00    +0.008 A 
ENDBRANCH  15  16
ENDBRANCH  13  14
ENDBRANCH  12  13
ENDBRANCH   2  12
BRANCH  22  23
ATOM     23  C   LIG    1        9.619  46.152  20.868  0.00  0.00    +0.197 C 
BRANCH  23  24
ATOM     24  O   LIG    1        9.623  46.351  22.270  0.00  0.00    -0.346 OA
BRANCH  24  25
ATOM     25  C   LIG    1       10.866  45.976  22.853  0.00  0.00    +0.281 C 
ATOM     26  C   LIG    1       10.821  46.202  24.372  0.00  0.00    +0.201 C 
ATOM     27  C   LIG    1        9.974  45.145  25.087  0.00  0.00    +0.178 C 
ATOM     28  C   LIG    1       10.382  43.744  24.628  0.00  0.00    +0.171 C 
ATOM     29  C   LIG    1       10.361  43.650  23.108  0.00  0.00    +0.197 C 
ATOM     36  O   LIG    1       11.225  44.627  22.532  0.00  0.00    -0.346 OA
BRANCH  28  30
ATOM     30  O   LIG    1        9.510  42.777  25.197  0.00  0.00    -0.387 OA
ATOM     31  H   LIG    1        9.960  42.395  25.971  0.00  0.00    +0.210 HD
ENDBRANCH  28  30
BRANCH  27  32
ATOM     32  O   LIG    1        8.595  45.355  24.789  0.00  0.00    -0.386 OA
ATOM     33  H   LIG    1        8.265  44.554  24.346  0.00  0.00    +0.210 HD
ENDBRANCH  27  32
BRANCH  26  34
ATOM     34  O   LIG    1       12.157  46.150  24.865  0.00  0.00    -0.384 OA
ATOM     35  H   LIG    1       12.582  47.007  24.695  0.00  0.00    +0.210 HD
ENDBRANCH  26  34
ENDBRANCH  24  25
ENDBRANCH  23  24
ENDBRANCH  22  23
TORSDOF 13
ENDMDL
MODEL 9
REMARK VINA RESULT:    -7.366      1.994      3.339
REMARK INTER + INTRA:         -12.678
REMARK INTER:                 -11.379
REMARK INTRA:                  -1.298
REMARK UNBOUND:                -1.006
REMARK  Name = 9823887
REMARK                            x       y       z     vdW  Elec       q    Type
REMARK                         _______ _______ _______ _____ _____    ______ ____
ROOT
ATOM      1  O   LIG    1        6.691  44.339  20.187  0.00  0.00    -0.341 OA
ATOM      2  C   LIG    1        6.599  45.523  19.400  0.00  0.00    +0.282 C 
ATOM      3  C   LIG    1        7.525  46.607  19.952  0.00  0.00    +0.201 C 
ATOM      4  C   LIG    1        8.959  46.097  20.089  0.00  0.00    +0.179 C 
ATOM      5  C   LIG    1        9.001  44.745  20.800  0.00  0.00    +0.177 C 
ATOM     22  C   LIG    1        8.001  43.770  20.172  0.00  0.00    +0.178 C 
ENDROOT
BRANCH   5   6
ATOM      6  O   LIG    1       10.315  44.201  20.703  0.00  0.00    -0.386 OA
ATOM      7  H   LIG    1       10.778  44.663  19.983  0.00  0.00    +0.210 HD
ENDBRANCH   5   6
BRANCH   4   8
ATOM      8  O   LIG    1        9.723  47.026  20.861  0.00  0.00    -0.386 OA
ATOM      9  H   LIG    1       10.184  46.520  21.552  0.00  0.00    +0.210 HD
ENDBRANCH   4   8
BRANCH   3  10
ATOM     10  O   LIG    1        7.500  47.717  19.055  0.00  0.00    -0.384 OA
ATOM     11  H   LIG    1        6.571  47.956  18.897  0.00  0.00    +0.210 HD
ENDBRANCH   3  10
BRANCH   2  12
ATOM     12  O   LIG    1        5.264  46.024  19.436  0.00  0.00    -0.345 OA
BRANCH  12  13
ATOM     13  C   LIG    1        4.865  46.337  20.761  0.00  0.00    +0.190 C 
BRANCH  13  14
ATOM     14  C   LIG    1        4.157  45.155  21.342  0.00  0.00    +0.001 C 
ATOM     15  C   LIG    1        4.409  44.675  22.569  0.00  0.00    +0.006 C 
BRANCH  15  16
ATOM     16  C   LIG    1        3.727  43.525  23.188  0.00  0.00    -0.025 A 
ATOM     17  C   LIG    1        3.956  43.238  24.524  0.00  0.00    +0.008 A 
ATOM     18  C   LIG    1        3.310  42.149  25.109  0.00  0.00    +0.001 A 
ATOM     19  C   LIG    1        2.445  41.361  24.351  0.00  0.00    +0.000 A 
ATOM     20  C   LIG    1        2.224  41.662  23.007  0.00  0.00    +0.001 A 
ATOM     21  C   LIG    1        2.870  42.751  22.422  0.00  0.00    +0.008 A 
ENDBRANCH  15  16
ENDBRANCH  13  14
ENDBRANCH  12  13
ENDBRANCH   2  12
BRANCH  22  23
ATOM     23  C   LIG    1        7.941  42.452  20.938  0.00  0.00    +0.197 C 
BRANCH  23  24
ATOM     24  O   LIG    1        7.841  42.738  22.321  0.00  0.00    -0.346 OA
BRANCH  24  25
ATOM     25  C   LIG    1        8.668  41.880  23.099  0.00  0.00    +0.281 C 
ATOM     26  C   LIG    1        9.335  42.680  24.229  0.00  0.00    +0.201 C 
ATOM     27  C   LIG    1        8.349  43.025  25.350  0.00  0.00    +0.178 C 
ATOM     28  C   LIG    1        7.577  41.775  25.776  0.00  0.00    +0.171 C 
ATOM     29  C   LIG    1        6.948  41.095  24.567  0.00  0.00    +0.197 C 
ATOM     36  O   LIG    1        7.945  40.753  23.607  0.00  0.00    -0.346 OA
BRANCH  28  30
ATOM     30  O   LIG    1        6.578  42.124  26.724  0.00  0.00    -0.387 OA
ATOM     31  H   LIG    1        5.850  41.486  26.632  0.00  0.00    +0.210 HD
ENDBRANCH  28  30
BRANCH  27  32
ATOM     32  O   LIG    1        7.429  44.013  24.890  0.00  0.00    -0.386 OA
ATOM     33  H   LIG    1        6.571  43.575  24.757  0.00  0.00    +0.210 HD
ENDBRANCH  27  32
BRANCH  26  34
ATOM     34  O   LIG    1       10.397  41.891  24.760  0.00  0.00    -0.384 OA
ATOM     35  H   LIG    1       10.057  40.999  24.943  0.00  0.00    +0.210 HD
ENDBRANCH  26  34
ENDBRANCH  24  25
ENDBRANCH  23  24
ENDBRANCH  22  23
TORSDOF 13
ENDMDL
