MODEL 1
REMARK VINA RESULT:      -7.6      0.000      0.000
REMARK  Name = 9823887
REMARK                            x       y       z     vdW  Elec       q    Type
REMARK                         _______ _______ _______ _____ _____    ______ ____
ROOT
ATOM      1  O   LIG    1        6.355  43.428  20.876  0.00  0.00    -0.341 OA
ATOM      2  C   LIG    1        5.430  43.628  19.810  0.00  0.00    +0.282 C 
ATOM      3  C   LIG    1        5.825  44.852  18.982  0.00  0.00    +0.201 C 
ATOM      4  C   LIG    1        7.272  44.756  18.501  0.00  0.00    +0.179 C 
ATOM      5  C   LIG    1        8.213  44.382  19.645  0.00  0.00    +0.177 C 
ATOM     22  C   LIG    1        7.681  43.168  20.411  0.00  0.00    +0.178 C 
ENDROOT
BRANCH   5   6
ATOM      6  O   LIG    1        9.501  44.079  19.117  0.00  0.00    -0.386 OA
ATOM      7  H   LIG    1        9.390  43.408  18.421  0.00  0.00    +0.210 HD
ENDBRANCH   5   6
BRANCH   4   8
ATOM      8  O   LIG    1        7.686  46.022  17.984  0.00  0.00    -0.386 OA
ATOM      9  H   LIG    1        8.654  45.996  17.893  0.00  0.00    +0.210 HD
ENDBRANCH   4   8
BRANCH   3  10
ATOM     10  O   LIG    1        4.953  44.929  17.854  0.00  0.00    -0.384 OA
ATOM     11  H   LIG    1        4.610  44.037  17.678  0.00  0.00    +0.210 HD
ENDBRANCH   3  10
BRANCH   2  12
ATOM     12  O   LIG    1        4.126  43.856  20.339  0.00  0.00    -0.345 OA
BRANCH  12  13
ATOM     13  C   LIG    1        3.282  42.733  20.136  0.00  0.00    +0.190 C 
BRANCH  13  14
ATOM     14  C   LIG    1        3.204  41.953  21.409  0.00  0.00    +0.001 C 
ATOM     15  C   LIG    1        2.736  42.464  22.558  0.00  0.00    +0.006 C 
BRANCH  15  16
ATOM     16  C   LIG    1        2.626  41.730  23.831  0.00  0.00    -0.025 A 
ATOM     17  C   LIG    1        1.872  40.569  23.883  0.00  0.00    +0.008 A 
ATOM     18  C   LIG    1        1.769  39.875  25.088  0.00  0.00    +0.001 A 
ATOM     19  C   LIG    1        2.420  40.351  26.225  0.00  0.00    +0.000 A 
ATOM     20  C   LIG    1        3.175  41.521  26.159  0.00  0.00    +0.001 A 
ATOM     21  C   LIG    1        3.279  42.215  24.953  0.00  0.00    +0.008 A 
ENDBRANCH  15  16
ENDBRANCH  13  14
ENDBRANCH  12  13
ENDBRANCH   2  12
BRANCH  22  23
ATOM     23  C   LIG    1        8.541  42.847  21.629  0.00  0.00    +0.197 C 
BRANCH  23  24
ATOM     24  O   LIG    1        9.227  44.023  22.019  0.00  0.00    -0.346 OA
BRANCH  24  25
ATOM     25  C   LIG    1        8.690  44.575  23.216  0.00  0.00    +0.281 C 
ATOM     26  C   LIG    1        9.208  43.791  24.432  0.00  0.00    +0.201 C 
ATOM     27  C   LIG    1       10.674  44.111  24.742  0.00  0.00    +0.178 C 
ATOM     28  C   LIG    1       10.887  45.625  24.778  0.00  0.00    +0.171 C 
ATOM     29  C   LIG    1       10.353  46.272  23.507  0.00  0.00    +0.197 C 
ATOM     36  O   LIG    1        8.969  45.974  23.334  0.00  0.00    -0.346 OA
BRANCH  28  30
ATOM     30  O   LIG    1       12.268  45.915  24.939  0.00  0.00    -0.387 OA
ATOM     31  H   LIG    1       12.720  45.658  24.117  0.00  0.00    +0.210 HD
ENDBRANCH  28  30
BRANCH  27  32
ATOM     32  O   LIG    1       11.511  43.541  23.736  0.00  0.00    -0.386 OA
ATOM     33  H   LIG    1       11.067  42.741  23.406  0.00  0.00    +0.210 HD
ENDBRANCH  27  32
BRANCH  26  34
ATOM     34  O   LIG    1        8.402  44.137  25.555  0.00  0.00    -0.384 OA
ATOM     35  H   LIG    1        7.626  44.628  25.238  0.00  0.00    +0.210 HD
ENDBRANCH  26  34
ENDBRANCH  24  25
ENDBRANCH  23  24
ENDBRANCH  22  23
TORSDOF 13
ENDMDL
MODEL 2
REMARK VINA RESULT:      -7.6      1.323      2.081
REMARK  Name = 9823887
REMARK                            x       y       z     vdW  Elec       q    Type
REMARK                         _______ _______ _______ _____ _____    ______ ____
ROOT
ATOM      1  O   LIG    1        7.431  43.354  20.018  0.00  0.00    -0.341 OA
ATOM      2  C   LIG    1        6.322  43.799  19.241  0.00  0.00    +0.282 C 
ATOM      3  C   LIG    1        6.226  45.325  19.269  0.00  0.00    +0.201 C 
ATOM      4  C   LIG    1        7.544  45.973  18.846  0.00  0.00    +0.179 C 
ATOM      5  C   LIG    1        8.728  45.356  19.588  0.00  0.00    +0.177 C 
ATOM     22  C   LIG    1        8.681  43.828  19.513  0.00  0.00    +0.178 C 
ENDROOT
BRANCH   5   6
ATOM      6  O   LIG    1        9.944  45.819  19.005  0.00  0.00    -0.386 OA
ATOM      7  H   LIG    1       10.104  45.303  18.196  0.00  0.00    +0.210 HD
ENDBRANCH   5   6
BRANCH   4   8
ATOM      8  O   LIG    1        7.508  47.368  19.153  0.00  0.00    -0.386 OA
ATOM      9  H   LIG    1        7.554  47.454  20.121  0.00  0.00    +0.210 HD
ENDBRANCH   4   8
BRANCH   3  10
ATOM     10  O   LIG    1        5.191  45.724  18.372  0.00  0.00    -0.384 OA
ATOM     11  H   LIG    1        5.508  46.492  17.868  0.00  0.00    +0.210 HD
ENDBRANCH   3  10
BRANCH   2  12
ATOM     12  O   LIG    1        5.112  43.271  19.781  0.00  0.00    -0.345 OA
BRANCH  12  13
ATOM     13  C   LIG    1        4.796  43.873  21.026  0.00  0.00    +0.190 C 
BRANCH  13  14
ATOM     14  C   LIG    1        4.368  42.807  21.982  0.00  0.00    +0.001 C 
ATOM     15  C   LIG    1        3.290  42.917  22.774  0.00  0.00    +0.006 C 
BRANCH  15  16
ATOM     16  C   LIG    1        2.822  41.888  23.719  0.00  0.00    -0.025 A 
ATOM     17  C   LIG    1        3.194  41.971  25.052  0.00  0.00    +0.008 A 
ATOM     18  C   LIG    1        2.751  40.997  25.946  0.00  0.00    +0.001 A 
ATOM     19  C   LIG    1        1.943  39.952  25.497  0.00  0.00    +0.000 A 
ATOM     20  C   LIG    1        1.577  39.882  24.153  0.00  0.00    +0.001 A 
ATOM     21  C   LIG    1        2.020  40.857  23.258  0.00  0.00    +0.008 A 
ENDBRANCH  15  16
ENDBRANCH  13  14
ENDBRANCH  12  13
ENDBRANCH   2  12
BRANCH  22  23
ATOM     23  C   LIG    1        9.788  43.186  20.344  0.00  0.00    +0.197 C 
BRANCH  23  24
ATOM     24  O   LIG    1       10.143  44.077  21.386  0.00  0.00    -0.346 OA
BRANCH  24  25
ATOM     25  C   LIG    1       10.118  43.439  22.658  0.00  0.00    +0.281 C 
ATOM     26  C   LIG    1       10.796  44.335  23.706  0.00  0.00    +0.201 C 
ATOM     27  C   LIG    1        9.917  45.527  24.099  0.00  0.00    +0.178 C 
ATOM     28  C   LIG    1        8.503  45.051  24.435  0.00  0.00    +0.171 C 
ATOM     29  C   LIG    1        7.942  44.197  23.305  0.00  0.00    +0.197 C 
ATOM     36  O   LIG    1        8.789  43.079  23.052  0.00  0.00    -0.346 OA
BRANCH  28  30
ATOM     30  O   LIG    1        7.661  46.170  24.675  0.00  0.00    -0.387 OA
ATOM     31  H   LIG    1        7.875  46.514  25.559  0.00  0.00    +0.210 HD
ENDBRANCH  28  30
BRANCH  27  32
ATOM     32  O   LIG    1        9.858  46.454  23.017  0.00  0.00    -0.386 OA
ATOM     33  H   LIG    1       10.018  45.957  22.196  0.00  0.00    +0.210 HD
ENDBRANCH  27  32
BRANCH  26  34
ATOM     34  O   LIG    1       11.059  43.541  24.860  0.00  0.00    -0.384 OA
ATOM     35  H   LIG    1       11.865  43.877  25.288  0.00  0.00    +0.210 HD
ENDBRANCH  26  34
ENDBRANCH  24  25
ENDBRANCH  23  24
ENDBRANCH  22  23
TORSDOF 13
ENDMDL
MODEL 3
REMARK VINA RESULT:      -7.6      2.229      3.180
REMARK  Name = 9823887
REMARK                            x       y       z     vdW  Elec       q    Type
REMARK                         _______ _______ _______ _____ _____    ______ ____
ROOT
ATOM      1  O   LIG    1        7.065  44.318  21.252  0.00  0.00    -0.341 OA
ATOM      2  C   LIG    1        6.183  44.399  20.134  0.00  0.00    +0.282 C 
ATOM      3  C   LIG    1        6.113  45.835  19.611  0.00  0.00    +0.201 C 
ATOM      4  C   LIG    1        7.506  46.386  19.308  0.00  0.00    +0.179 C 
ATOM      5  C   LIG    1        8.465  46.136  20.471  0.00  0.00    +0.177 C 
ATOM     22  C   LIG    1        8.408  44.673  20.918  0.00  0.00    +0.178 C 
ENDROOT
BRANCH   5   6
ATOM      6  O   LIG    1        9.794  46.452  20.062  0.00  0.00    -0.386 OA
ATOM      7  H   LIG    1       10.407  46.062  20.709  0.00  0.00    +0.210 HD
ENDBRANCH   5   6
BRANCH   4   8
ATOM      8  O   LIG    1        7.424  47.797  19.098  0.00  0.00    -0.386 OA
ATOM      9  H   LIG    1        8.204  48.199  19.517  0.00  0.00    +0.210 HD
ENDBRANCH   4   8
BRANCH   3  10
ATOM     10  O   LIG    1        5.331  45.837  18.417  0.00  0.00    -0.384 OA
ATOM     11  H   LIG    1        4.933  44.957  18.316  0.00  0.00    +0.210 HD
ENDBRANCH   3  10
BRANCH   2  12
ATOM     12  O   LIG    1        4.869  44.008  20.527  0.00  0.00    -0.345 OA
BRANCH  12  13
ATOM     13  C   LIG    1        4.363  44.852  21.549  0.00  0.00    +0.190 C 
BRANCH  13  14
ATOM     14  C   LIG    1        3.954  44.008  22.713  0.00  0.00    +0.001 C 
ATOM     15  C   LIG    1        3.336  42.824  22.583  0.00  0.00    +0.006 C 
BRANCH  15  16
ATOM     16  C   LIG    1        2.928  41.952  23.698  0.00  0.00    -0.025 A 
ATOM     17  C   LIG    1        3.380  42.231  24.979  0.00  0.00    +0.008 A 
ATOM     18  C   LIG    1        2.993  41.405  26.034  0.00  0.00    +0.001 A 
ATOM     19  C   LIG    1        2.162  40.311  25.796  0.00  0.00    +0.000 A 
ATOM     20  C   LIG    1        1.715  40.042  24.502  0.00  0.00    +0.001 A 
ATOM     21  C   LIG    1        2.102  40.868  23.446  0.00  0.00    +0.008 A 
ENDBRANCH  15  16
ENDBRANCH  13  14
ENDBRANCH  12  13
ENDBRANCH   2  12
BRANCH  22  23
ATOM     23  C   LIG    1        9.270  44.425  22.152  0.00  0.00    +0.197 C 
BRANCH  23  24
ATOM     24  O   LIG    1       10.630  44.409  21.756  0.00  0.00    -0.346 OA
BRANCH  24  25
ATOM     25  C   LIG    1       11.321  43.284  22.287  0.00  0.00    +0.281 C 
ATOM     26  C   LIG    1       10.974  42.026  21.474  0.00  0.00    +0.201 C 
ATOM     27  C   LIG    1       11.663  42.017  20.105  0.00  0.00    +0.178 C 
ATOM     28  C   LIG    1       13.153  42.326  20.263  0.00  0.00    +0.171 C 
ATOM     29  C   LIG    1       13.353  43.607  21.064  0.00  0.00    +0.197 C 
ATOM     36  O   LIG    1       12.735  43.500  22.344  0.00  0.00    -0.346 OA
BRANCH  28  30
ATOM     30  O   LIG    1       13.759  42.441  18.984  0.00  0.00    -0.387 OA
ATOM     31  H   LIG    1       13.110  42.146  18.322  0.00  0.00    +0.210 HD
ENDBRANCH  28  30
BRANCH  27  32
ATOM     32  O   LIG    1       11.064  42.999  19.262  0.00  0.00    -0.386 OA
ATOM     33  H   LIG    1       11.744  43.301  18.635  0.00  0.00    +0.210 HD
ENDBRANCH  27  32
BRANCH  26  34
ATOM     34  O   LIG    1       11.395  40.888  22.223  0.00  0.00    -0.384 OA
ATOM     35  H   LIG    1       10.608  40.376  22.472  0.00  0.00    +0.210 HD
ENDBRANCH  26  34
ENDBRANCH  24  25
ENDBRANCH  23  24
ENDBRANCH  22  23
TORSDOF 13
ENDMDL
MODEL 4
REMARK VINA RESULT:      -7.5      1.536      2.245
REMARK  Name = 9823887
REMARK                            x       y       z     vdW  Elec       q    Type
REMARK                         _______ _______ _______ _____ _____    ______ ____
ROOT
ATOM      1  O   LIG    1        7.163  44.471  21.139  0.00  0.00    -0.341 OA
ATOM      2  C   LIG    1        5.932  45.131  20.851  0.00  0.00    +0.282 C 
ATOM      3  C   LIG    1        6.187  46.577  20.425  0.00  0.00    +0.201 C 
ATOM      4  C   LIG    1        7.182  46.649  19.268  0.00  0.00    +0.179 C 
ATOM      5  C   LIG    1        8.421  45.799  19.548  0.00  0.00    +0.177 C 
ATOM     22  C   LIG    1        8.022  44.392  20.001  0.00  0.00    +0.178 C 
ENDROOT
BRANCH   5   6
ATOM      6  O   LIG    1        9.209  45.708  18.364  0.00  0.00    -0.386 OA
ATOM      7  H   LIG    1        8.625  45.433  17.636  0.00  0.00    +0.210 HD
ENDBRANCH   5   6
BRANCH   4   8
ATOM      8  O   LIG    1        7.607  48.002  19.089  0.00  0.00    -0.386 OA
ATOM      9  H   LIG    1        7.129  48.545  19.739  0.00  0.00    +0.210 HD
ENDBRANCH   4   8
BRANCH   3  10
ATOM     10  O   LIG    1        4.944  47.149  20.018  0.00  0.00    -0.384 OA
ATOM     11  H   LIG    1        4.484  46.503  19.457  0.00  0.00    +0.210 HD
ENDBRANCH   3  10
BRANCH   2  12
ATOM     12  O   LIG    1        5.113  45.154  22.018  0.00  0.00    -0.345 OA
BRANCH  12  13
ATOM     13  C   LIG    1        3.966  44.334  21.860  0.00  0.00    +0.190 C 
BRANCH  13  14
ATOM     14  C   LIG    1        3.756  43.551  23.117  0.00  0.00    +0.001 C 
ATOM     15  C   LIG    1        2.988  42.453  23.181  0.00  0.00    +0.006 C 
BRANCH  15  16
ATOM     16  C   LIG    1        2.765  41.642  24.391  0.00  0.00    -0.025 A 
ATOM     17  C   LIG    1        1.986  40.499  24.309  0.00  0.00    +0.008 A 
ATOM     18  C   LIG    1        1.775  39.733  25.454  0.00  0.00    +0.001 A 
ATOM     19  C   LIG    1        2.344  40.119  26.667  0.00  0.00    +0.000 A 
ATOM     20  C   LIG    1        3.125  41.272  26.735  0.00  0.00    +0.001 A 
ATOM     21  C   LIG    1        3.337  42.039  25.589  0.00  0.00    +0.008 A 
ENDBRANCH  15  16
ENDBRANCH  13  14
ENDBRANCH  12  13
ENDBRANCH   2  12
BRANCH  22  23
ATOM     23  C   LIG    1        9.238  43.561  20.399  0.00  0.00    +0.197 C 
BRANCH  23  24
ATOM     24  O   LIG    1        9.177  43.309  21.791  0.00  0.00    -0.346 OA
BRANCH  24  25
ATOM     25  C   LIG    1       10.272  43.898  22.483  0.00  0.00    +0.281 C 
ATOM     26  C   LIG    1        9.851  45.254  23.071  0.00  0.00    +0.201 C 
ATOM     27  C   LIG    1        8.944  45.094  24.296  0.00  0.00    +0.178 C 
ATOM     28  C   LIG    1        9.558  44.096  25.279  0.00  0.00    +0.171 C 
ATOM     29  C   LIG    1        9.905  42.791  24.573  0.00  0.00    +0.197 C 
ATOM     36  O   LIG    1       10.801  43.029  23.490  0.00  0.00    -0.346 OA
BRANCH  28  30
ATOM     30  O   LIG    1        8.656  43.856  26.350  0.00  0.00    -0.387 OA
ATOM     31  H   LIG    1        7.873  43.412  25.980  0.00  0.00    +0.210 HD
ENDBRANCH  28  30
BRANCH  27  32
ATOM     32  O   LIG    1        7.663  44.622  23.883  0.00  0.00    -0.386 OA
ATOM     33  H   LIG    1        7.042  44.785  24.614  0.00  0.00    +0.210 HD
ENDBRANCH  27  32
BRANCH  26  34
ATOM     34  O   LIG    1       11.032  45.958  23.446  0.00  0.00    -0.384 OA
ATOM     35  H   LIG    1       10.847  46.460  24.257  0.00  0.00    +0.210 HD
ENDBRANCH  26  34
ENDBRANCH  24  25
ENDBRANCH  23  24
ENDBRANCH  22  23
TORSDOF 13
ENDMDL
MODEL 5
REMARK VINA RESULT:      -7.5      1.739      2.662
REMARK  Name = 9823887
REMARK                            x       y       z     vdW  Elec       q    Type
REMARK                         _______ _______ _______ _____ _____    ______ ____
ROOT
ATOM      1  O   LIG    1        8.220  44.132  21.048  0.00  0.00    -0.341 OA
ATOM      2  C   LIG    1        7.460  44.846  20.076  0.00  0.00    +0.282 C 
ATOM      3  C   LIG    1        8.385  45.625  19.141  0.00  0.00    +0.201 C 
ATOM      4  C   LIG    1        9.440  44.713  18.515  0.00  0.00    +0.179 C 
ATOM      5  C   LIG    1       10.122  43.847  19.573  0.00  0.00    +0.177 C 
ATOM     22  C   LIG    1        9.084  43.157  20.462  0.00  0.00    +0.178 C 
ENDROOT
BRANCH   5   6
ATOM      6  O   LIG    1       10.924  42.860  18.930  0.00  0.00    -0.386 OA
ATOM      7  H   LIG    1       11.726  42.730  19.465  0.00  0.00    +0.210 HD
ENDBRANCH   5   6
BRANCH   4   8
ATOM      8  O   LIG    1       10.443  45.510  17.883  0.00  0.00    -0.386 OA
ATOM      9  H   LIG    1       10.985  44.917  17.335  0.00  0.00    +0.210 HD
ENDBRANCH   4   8
BRANCH   3  10
ATOM     10  O   LIG    1        7.590  46.208  18.109  0.00  0.00    -0.384 OA
ATOM     11  H   LIG    1        6.655  46.059  18.329  0.00  0.00    +0.210 HD
ENDBRANCH   3  10
BRANCH   2  12
ATOM     12  O   LIG    1        6.602  45.781  20.727  0.00  0.00    -0.345 OA
BRANCH  12  13
ATOM     13  C   LIG    1        5.236  45.489  20.478  0.00  0.00    +0.190 C 
BRANCH  13  14
ATOM     14  C   LIG    1        4.779  44.453  21.453  0.00  0.00    +0.001 C 
ATOM     15  C   LIG    1        4.551  44.711  22.750  0.00  0.00    +0.006 C 
BRANCH  15  16
ATOM     16  C   LIG    1        4.087  43.726  23.743  0.00  0.00    -0.025 A 
ATOM     17  C   LIG    1        4.491  43.851  25.063  0.00  0.00    +0.008 A 
ATOM     18  C   LIG    1        4.051  42.919  26.002  0.00  0.00    +0.001 A 
ATOM     19  C   LIG    1        3.214  41.874  25.610  0.00  0.00    +0.000 A 
ATOM     20  C   LIG    1        2.816  41.761  24.279  0.00  0.00    +0.001 A 
ATOM     21  C   LIG    1        3.256  42.694  23.339  0.00  0.00    +0.008 A 
ENDBRANCH  15  16
ENDBRANCH  13  14
ENDBRANCH  12  13
ENDBRANCH   2  12
BRANCH  22  23
ATOM     23  C   LIG    1        9.741  42.380  21.599  0.00  0.00    +0.197 C 
BRANCH  23  24
ATOM     24  O   LIG    1        9.520  43.079  22.810  0.00  0.00    -0.346 OA
BRANCH  24  25
ATOM     25  C   LIG    1       10.672  43.066  23.645  0.00  0.00    +0.281 C 
ATOM     26  C   LIG    1       11.778  43.934  23.026  0.00  0.00    +0.201 C 
ATOM     27  C   LIG    1       11.484  45.431  23.170  0.00  0.00    +0.178 C 
ATOM     28  C   LIG    1       11.103  45.756  24.615  0.00  0.00    +0.171 C 
ATOM     29  C   LIG    1        9.983  44.842  25.094  0.00  0.00    +0.197 C 
ATOM     36  O   LIG    1       10.370  43.474  24.984  0.00  0.00    -0.346 OA
BRANCH  28  30
ATOM     30  O   LIG    1       10.709  47.117  24.716  0.00  0.00    -0.387 OA
ATOM     31  H   LIG    1       10.225  47.344  23.903  0.00  0.00    +0.210 HD
ENDBRANCH  28  30
BRANCH  27  32
ATOM     32  O   LIG    1       10.407  45.791  22.307  0.00  0.00    -0.386 OA
ATOM     33  H   LIG    1       10.274  45.058  21.681  0.00  0.00    +0.210 HD
ENDBRANCH  27  32
BRANCH  26  34
ATOM     34  O   LIG    1       13.003  43.628  23.688  0.00  0.00    -0.384 OA
ATOM     35  H   LIG    1       12.976  42.698  23.969  0.00  0.00    +0.210 HD
ENDBRANCH  26  34
ENDBRANCH  24  25
ENDBRANCH  23  24
ENDBRANCH  22  23
TORSDOF 13
ENDMDL
MODEL 6
REMARK VINA RESULT:      -7.5      3.417      8.282
REMARK  Name = 9823887
REMARK                            x       y       z     vdW  Elec       q    Type
REMARK                         _______ _______ _______ _____ _____    ______ ____
ROOT
ATOM      1  O   LIG    1        7.946  43.846  19.577  0.00  0.00    -0.341 OA
ATOM      2  C   LIG    1        8.798  44.666  20.374  0.00  0.00    +0.282 C 
ATOM      3  C   LIG    1        8.814  46.099  19.840  0.00  0.00    +0.201 C 
ATOM      4  C   LIG    1        7.400  46.662  19.713  0.00  0.00    +0.179 C 
ATOM      5  C   LIG    1        6.476  45.682  18.991  0.00  0.00    +0.177 C 
ATOM     22  C   LIG    1        6.586  44.282  19.601  0.00  0.00    +0.178 C 
ENDROOT
BRANCH   5   6
ATOM      6  O   LIG    1        5.130  46.137  19.096  0.00  0.00    -0.386 OA
ATOM      7  H   LIG    1        5.102  46.838  19.771  0.00  0.00    +0.210 HD
ENDBRANCH   5   6
BRANCH   4   8
ATOM      8  O   LIG    1        7.436  47.873  18.957  0.00  0.00    -0.386 OA
ATOM      9  H   LIG    1        7.576  47.631  18.026  0.00  0.00    +0.210 HD
ENDBRANCH   4   8
BRANCH   3  10
ATOM     10  O   LIG    1        9.567  46.905  20.747  0.00  0.00    -0.384 OA
ATOM     11  H   LIG    1       10.503  46.656  20.665  0.00  0.00    +0.210 HD
ENDBRANCH   3  10
BRANCH   2  12
ATOM     12  O   LIG    1       10.131  44.163  20.329  0.00  0.00    -0.345 OA
BRANCH  12  13
ATOM     13  C   LIG    1       10.354  43.196  21.343  0.00  0.00    +0.190 C 
BRANCH  13  14
ATOM     14  C   LIG    1       11.816  42.892  21.406  0.00  0.00    +0.001 C 
ATOM     15  C   LIG    1       12.304  41.666  21.652  0.00  0.00    +0.006 C 
BRANCH  15  16
ATOM     16  C   LIG    1       13.734  41.317  21.709  0.00  0.00    -0.025 A 
ATOM     17  C   LIG    1       14.161  40.345  22.600  0.00  0.00    +0.008 A 
ATOM     18  C   LIG    1       15.515  40.015  22.653  0.00  0.00    +0.001 A 
ATOM     19  C   LIG    1       16.424  40.661  21.816  0.00  0.00    +0.000 A 
ATOM     20  C   LIG    1       15.980  41.637  20.925  0.00  0.00    +0.001 A 
ATOM     21  C   LIG    1       14.626  41.967  20.871  0.00  0.00    +0.008 A 
ENDBRANCH  15  16
ENDBRANCH  13  14
ENDBRANCH  12  13
ENDBRANCH   2  12
BRANCH  22  23
ATOM     23  C   LIG    1        5.761  43.261  18.823  0.00  0.00    +0.197 C 
BRANCH  23  24
ATOM     24  O   LIG    1        4.542  43.049  19.511  0.00  0.00    -0.346 OA
BRANCH  24  25
ATOM     25  C   LIG    1        4.683  43.256  20.912  0.00  0.00    +0.281 C 
ATOM     26  C   LIG    1        3.396  43.873  21.481  0.00  0.00    +0.201 C 
ATOM     27  C   LIG    1        2.259  42.849  21.577  0.00  0.00    +0.178 C 
ATOM     28  C   LIG    1        2.755  41.574  22.262  0.00  0.00    +0.171 C 
ATOM     29  C   LIG    1        4.018  41.057  21.585  0.00  0.00    +0.197 C 
ATOM     36  O   LIG    1        5.040  42.052  21.600  0.00  0.00    -0.346 OA
BRANCH  28  30
ATOM     30  O   LIG    1        1.737  40.584  22.233  0.00  0.00    -0.387 OA
ATOM     31  H   LIG    1        0.907  41.008  22.510  0.00  0.00    +0.210 HD
ENDBRANCH  28  30
BRANCH  27  32
ATOM     32  O   LIG    1        1.794  42.529  20.267  0.00  0.00    -0.386 OA
ATOM     33  H   LIG    1        2.158  43.193  19.656  0.00  0.00    +0.210 HD
ENDBRANCH  27  32
BRANCH  26  34
ATOM     34  O   LIG    1        3.687  44.377  22.782  0.00  0.00    -0.384 OA
ATOM     35  H   LIG    1        4.374  43.819  23.182  0.00  0.00    +0.210 HD
ENDBRANCH  26  34
ENDBRANCH  24  25
ENDBRANCH  23  24
ENDBRANCH  22  23
TORSDOF 13
ENDMDL
MODEL 7
REMARK VINA RESULT:      -7.4      2.984      7.517
REMARK  Name = 9823887
REMARK                            x       y       z     vdW  Elec       q    Type
REMARK                         _______ _______ _______ _____ _____    ______ ____
ROOT
ATOM      1  O   LIG    1        6.169  44.549  20.639  0.00  0.00    -0.341 OA
ATOM      2  C   LIG    1        7.574  44.720  20.472  0.00  0.00    +0.282 C 
ATOM      3  C   LIG    1        7.862  45.807  19.436  0.00  0.00    +0.201 C 
ATOM      4  C   LIG    1        7.144  47.111  19.783  0.00  0.00    +0.179 C 
ATOM      5  C   LIG    1        5.672  46.862  20.111  0.00  0.00    +0.177 C 
ATOM     22  C   LIG    1        5.527  45.727  21.129  0.00  0.00    +0.178 C 
ENDROOT
BRANCH   5   6
ATOM      6  O   LIG    1        5.101  48.052  20.648  0.00  0.00    -0.386 OA
ATOM      7  H   LIG    1        4.149  47.896  20.778  0.00  0.00    +0.210 HD
ENDBRANCH   5   6
BRANCH   4   8
ATOM      8  O   LIG    1        7.203  47.998  18.665  0.00  0.00    -0.386 OA
ATOM      9  H   LIG    1        7.147  47.456  17.860  0.00  0.00    +0.210 HD
ENDBRANCH   4   8
BRANCH   3  10
ATOM     10  O   LIG    1        9.271  46.035  19.406  0.00  0.00    -0.384 OA
ATOM     11  H   LIG    1        9.706  45.199  19.167  0.00  0.00    +0.210 HD
ENDBRANCH   3  10
BRANCH   2  12
ATOM     12  O   LIG    1        8.156  43.503  20.008  0.00  0.00    -0.345 OA
BRANCH  12  13
ATOM     13  C   LIG    1        8.740  42.770  21.073  0.00  0.00    +0.190 C 
BRANCH  13  14
ATOM     14  C   LIG    1       10.226  42.777  20.905  0.00  0.00    +0.001 C 
ATOM     15  C   LIG    1       11.037  43.629  21.551  0.00  0.00    +0.006 C 
BRANCH  15  16
ATOM     16  C   LIG    1       12.504  43.663  21.428  0.00  0.00    -0.025 A 
ATOM     17  C   LIG    1       13.095  43.286  20.232  0.00  0.00    +0.008 A 
ATOM     18  C   LIG    1       14.484  43.319  20.117  0.00  0.00    +0.001 A 
ATOM     19  C   LIG    1       15.265  43.726  21.198  0.00  0.00    +0.000 A 
ATOM     20  C   LIG    1       14.657  44.103  22.395  0.00  0.00    +0.001 A 
ATOM     21  C   LIG    1       13.267  44.070  22.511  0.00  0.00    +0.008 A 
ENDBRANCH  15  16
ENDBRANCH  13  14
ENDBRANCH  12  13
ENDBRANCH   2  12
BRANCH  22  23
ATOM     23  C   LIG    1        4.063  45.382  21.385  0.00  0.00    +0.197 C 
BRANCH  23  24
ATOM     24  O   LIG    1        3.838  44.045  20.978  0.00  0.00    -0.346 OA
BRANCH  24  25
ATOM     25  C   LIG    1        3.070  43.324  21.936  0.00  0.00    +0.281 C 
ATOM     26  C   LIG    1        3.061  41.829  21.581  0.00  0.00    +0.201 C 
ATOM     27  C   LIG    1        4.400  41.153  21.895  0.00  0.00    +0.178 C 
ATOM     28  C   LIG    1        4.846  41.504  23.316  0.00  0.00    +0.171 C 
ATOM     29  C   LIG    1        4.833  43.013  23.525  0.00  0.00    +0.197 C 
ATOM     36  O   LIG    1        3.534  43.545  23.273  0.00  0.00    -0.346 OA
BRANCH  28  30
ATOM     30  O   LIG    1        6.145  40.981  23.557  0.00  0.00    -0.387 OA
ATOM     31  H   LIG    1        6.302  40.274  22.908  0.00  0.00    +0.210 HD
ENDBRANCH  28  30
BRANCH  27  32
ATOM     32  O   LIG    1        5.388  41.598  20.968  0.00  0.00    -0.386 OA
ATOM     33  H   LIG    1        5.532  42.547  21.125  0.00  0.00    +0.210 HD
ENDBRANCH  27  32
BRANCH  26  34
ATOM     34  O   LIG    1        2.027  41.202  22.336  0.00  0.00    -0.384 OA
ATOM     35  H   LIG    1        2.393  40.933  23.195  0.00  0.00    +0.210 HD
ENDBRANCH  26  34
ENDBRANCH  24  25
ENDBRANCH  23  24
ENDBRANCH  22  23
TORSDOF 13
ENDMDL
MODEL 8
REMARK VINA RESULT:      -7.3      1.940      3.147
REMARK  Name = 9823887
REMARK                            x       y       z     vdW  Elec       q    Type
REMARK                         _______ _______ _______ _____ _____    ______ ____
ROOT
ATOM      1  O   LIG    1        8.192  46.502  20.638  0.00  0.00    -0.341 OA
ATOM      2  C   LIG    1        7.245  45.853  19.794  0.00  0.00    +0.282 C 
ATOM      3  C   LIG    1        7.922  45.346  18.520  0.00  0.00    +0.201 C 
ATOM      4  C   LIG    1        9.128  44.465  18.844  0.00  0.00    +0.179 C 
ATOM      5  C   LIG    1       10.039  45.130  19.875  0.00  0.00    +0.177 C 
ATOM     22  C   LIG    1        9.229  45.623  21.077  0.00  0.00    +0.178 C 
ENDROOT
BRANCH   5   6
ATOM      6  O   LIG    1       11.015  44.190  20.318  0.00  0.00    -0.386 OA
ATOM      7  H   LIG    1       11.483  44.580  21.077  0.00  0.00    +0.210 HD
ENDBRANCH   5   6
BRANCH   4   8
ATOM      8  O   LIG    1        9.891  44.248  17.656  0.00  0.00    -0.386 OA
ATOM      9  H   LIG    1        9.915  43.289  17.496  0.00  0.00    +0.210 HD
ENDBRANCH   4   8
BRANCH   3  10
ATOM     10  O   LIG    1        6.967  44.589  17.777  0.00  0.00    -0.384 OA
ATOM     11  H   LIG    1        6.109  44.662  18.227  0.00  0.00    +0.210 HD
ENDBRANCH   3  10
BRANCH   2  12
ATOM     12  O   LIG    1        6.226  46.776  19.414  0.00  0.00    -0.345 OA
BRANCH  12  13
ATOM     13  C   LIG    1        5.247  46.913  20.431  0.00  0.00    +0.190 C 
BRANCH  13  14
ATOM     14  C   LIG    1        4.816  45.551  20.871  0.00  0.00    +0.001 C 
ATOM     15  C   LIG    1        3.843  45.340  21.771  0.00  0.00    +0.006 C 
BRANCH  15  16
ATOM     16  C   LIG    1        3.375  44.019  22.223  0.00  0.00    -0.025 A 
ATOM     17  C   LIG    1        2.449  43.327  21.458  0.00  0.00    +0.008 A 
ATOM     18  C   LIG    1        2.007  42.076  21.887  0.00  0.00    +0.001 A 
ATOM     19  C   LIG    1        2.495  41.533  23.075  0.00  0.00    +0.000 A 
ATOM     20  C   LIG    1        3.426  42.240  23.835  0.00  0.00    +0.001 A 
ATOM     21  C   LIG    1        3.869  43.492  23.406  0.00  0.00    +0.008 A 
ENDBRANCH  15  16
ENDBRANCH  13  14
ENDBRANCH  12  13
ENDBRANCH   2  12
BRANCH  22  23
ATOM     23  C   LIG    1       10.099  46.393  22.067  0.00  0.00    +0.197 C 
BRANCH  23  24
ATOM     24  O   LIG    1        9.899  45.851  23.359  0.00  0.00    -0.346 OA
BRANCH  24  25
ATOM     25  C   LIG    1       11.078  45.229  23.859  0.00  0.00    +0.281 C 
ATOM     26  C   LIG    1       11.004  45.123  25.390  0.00  0.00    +0.201 C 
ATOM     27  C   LIG    1       10.032  44.030  25.846  0.00  0.00    +0.178 C 
ATOM     28  C   LIG    1       10.313  42.728  25.094  0.00  0.00    +0.171 C 
ATOM     29  C   LIG    1       10.334  42.970  23.590  0.00  0.00    +0.197 C 
ATOM     36  O   LIG    1       11.310  43.953  23.253  0.00  0.00    -0.346 OA
BRANCH  28  30
ATOM     30  O   LIG    1        9.330  41.757  25.426  0.00  0.00    -0.387 OA
ATOM     31  H   LIG    1        8.571  41.893  24.834  0.00  0.00    +0.210 HD
ENDBRANCH  28  30
BRANCH  27  32
ATOM     32  O   LIG    1        8.692  44.444  25.586  0.00  0.00    -0.386 OA
ATOM     33  H   LIG    1        8.614  44.600  24.629  0.00  0.00    +0.210 HD
ENDBRANCH  27  32
BRANCH  26  34
ATOM     34  O   LIG    1       12.311  44.824  25.875  0.00  0.00    -0.384 OA
ATOM     35  H   LIG    1       12.911  45.539  25.603  0.00  0.00    +0.210 HD
ENDBRANCH  26  34
ENDBRANCH  24  25
ENDBRANCH  23  24
ENDBRANCH  22  23
TORSDOF 13
ENDMDL
MODEL 9
REMARK VINA RESULT:      -7.2      2.969      7.747
REMARK  Name = 9823887
REMARK                            x       y       z     vdW  Elec       q    Type
REMARK                         _______ _______ _______ _____ _____    ______ ____
ROOT
ATOM      1  O   LIG    1        6.385  44.297  21.168  0.00  0.00    -0.341 OA
ATOM      2  C   LIG    1        7.244  45.421  21.344  0.00  0.00    +0.282 C 
ATOM      3  C   LIG    1        8.004  45.723  20.051  0.00  0.00    +0.201 C 
ATOM      4  C   LIG    1        7.049  45.887  18.870  0.00  0.00    +0.179 C 
ATOM      5  C   LIG    1        6.040  44.741  18.810  0.00  0.00    +0.177 C 
ATOM     22  C   LIG    1        5.383  44.523  20.175  0.00  0.00    +0.178 C 
ENDROOT
BRANCH   5   6
ATOM      6  O   LIG    1        5.035  45.047  17.847  0.00  0.00    -0.386 OA
ATOM      7  H   LIG    1        5.373  45.759  17.277  0.00  0.00    +0.210 HD
ENDBRANCH   5   6
BRANCH   4   8
ATOM      8  O   LIG    1        7.794  45.883  17.651  0.00  0.00    -0.386 OA
ATOM      9  H   LIG    1        8.597  45.356  17.803  0.00  0.00    +0.210 HD
ENDBRANCH   4   8
BRANCH   3  10
ATOM     10  O   LIG    1        8.741  46.931  20.237  0.00  0.00    -0.384 OA
ATOM     11  H   LIG    1        8.489  47.549  19.531  0.00  0.00    +0.210 HD
ENDBRANCH   3  10
BRANCH   2  12
ATOM     12  O   LIG    1        8.202  45.141  22.363  0.00  0.00    -0.345 OA
BRANCH  12  13
ATOM     13  C   LIG    1        8.506  43.757  22.420  0.00  0.00    +0.190 C 
BRANCH  13  14
ATOM     14  C   LIG    1        9.957  43.569  22.111  0.00  0.00    +0.001 C 
ATOM     15  C   LIG    1       10.400  42.918  21.025  0.00  0.00    +0.006 C 
BRANCH  15  16
ATOM     16  C   LIG    1       11.817  42.721  20.673  0.00  0.00    -0.025 A 
ATOM     17  C   LIG    1       12.595  41.865  21.437  0.00  0.00    +0.008 A 
ATOM     18  C   LIG    1       13.935  41.679  21.103  0.00  0.00    +0.001 A 
ATOM     19  C   LIG    1       14.482  42.351  20.010  0.00  0.00    +0.000 A 
ATOM     20  C   LIG    1       13.688  43.209  19.250  0.00  0.00    +0.001 A 
ATOM     21  C   LIG    1       12.346  43.395  19.584  0.00  0.00    +0.008 A 
ENDBRANCH  15  16
ENDBRANCH  13  14
ENDBRANCH  12  13
ENDBRANCH   2  12
BRANCH  22  23
ATOM     23  C   LIG    1        4.458  43.310  20.171  0.00  0.00    +0.197 C 
BRANCH  23  24
ATOM     24  O   LIG    1        4.385  42.793  21.487  0.00  0.00    -0.346 OA
BRANCH  24  25
ATOM     25  C   LIG    1        3.127  43.068  22.094  0.00  0.00    +0.281 C 
ATOM     26  C   LIG    1        2.096  42.016  21.658  0.00  0.00    +0.201 C 
ATOM     27  C   LIG    1        2.323  40.666  22.347  0.00  0.00    +0.178 C 
ATOM     28  C   LIG    1        2.486  40.865  23.855  0.00  0.00    +0.171 C 
ATOM     29  C   LIG    1        3.553  41.912  24.146  0.00  0.00    +0.197 C 
ATOM     36  O   LIG    1        3.226  43.150  23.520  0.00  0.00    -0.346 OA
BRANCH  28  30
ATOM     30  O   LIG    1        2.822  39.630  24.471  0.00  0.00    -0.387 OA
ATOM     31  H   LIG    1        3.533  39.805  25.111  0.00  0.00    +0.210 HD
ENDBRANCH  28  30
BRANCH  27  32
ATOM     32  O   LIG    1        3.501  40.055  21.823  0.00  0.00    -0.386 OA
ATOM     33  H   LIG    1        4.261  40.587  22.113  0.00  0.00    +0.210 HD
ENDBRANCH  27  32
BRANCH  26  34
ATOM     34  O   LIG    1        0.799  42.505  21.994  0.00  0.00    -0.384 OA
ATOM     35  H   LIG    1        0.155  41.793  21.847  0.00  0.00    +0.210 HD
ENDBRANCH  26  34
ENDBRANCH  24  25
ENDBRANCH  23  24
ENDBRANCH  22  23
TORSDOF 13
ENDMDL
