REMARK VINA RESULT:      -6.6      2.115      2.729
REMARK  6 active torsions:
REMARK  status: ('A' for Active; 'I' for Inactive)
REMARK    1  A    between atoms: O_2  and  C_12 
REMARK    2  A    between atoms: O_3  and  C_14 
REMARK    3  A    between atoms: O_5  and  C_16 
REMARK    4  A    between atoms: O_6  and  C_20 
REMARK    5  A    between atoms: O_7  and  C_22 
REMARK    6  A    between atoms: C_10  and  C_11 
ROOT
HETATM    1  O   UNK     0     185.634 186.733 171.603  0.00  0.00    -0.306 OA
HETATM    2  O   UNK     0     188.282 186.251 168.543  0.00  0.00    -0.284 OA
HETATM    3  C   UNK     0     186.622 187.585 169.556  0.00  0.00     0.084 A 
HETATM    4  C   UNK     0     185.736 187.690 170.627  0.00  0.00     0.096 A 
HETATM    5  C   UNK     0     186.457 185.620 171.527  0.00  0.00     0.123 A 
HETATM    6  C   UNK     0     187.347 185.395 170.543  0.00  0.00     0.152 A 
HETATM    7  C   UNK     0     187.489 186.400 169.463  0.00  0.00     0.223 A 
HETATM    8  C   UNK     0     186.681 188.592 168.589  0.00  0.00     0.085 A 
HETATM    9  C   UNK     0     184.902 188.803 170.736  0.00  0.00     0.075 A 
HETATM   10  C   UNK     0     184.959 189.810 169.772  0.00  0.00     0.071 A 
HETATM   11  C   UNK     0     185.847 189.704 168.701  0.00  0.00     0.074 A 
ENDROOT
BRANCH   5  12
HETATM   12  C   UNK     0     186.247 184.673 172.636  0.00  0.00     0.004 A 
HETATM   13  C   UNK     0     187.130 184.654 173.715  0.00  0.00     0.053 A 
HETATM   14  C   UNK     0     186.930 183.757 174.765  0.00  0.00     0.099 A 
HETATM   15  C   UNK     0     185.846 182.879 174.735  0.00  0.00     0.098 A 
HETATM   16  C   UNK     0     184.963 182.898 173.656  0.00  0.00     0.040 A 
HETATM   17  C   UNK     0     185.163 183.795 172.606  0.00  0.00     0.017 A 
BRANCH  14  18
HETATM   18  O   UNK     0     187.800 183.746 175.813  0.00  0.00    -0.358 OA
HETATM   19  H   UNK     0     187.307 183.747 176.649  0.00  0.00     0.217 HD
ENDBRANCH  14  18
BRANCH  15  20
HETATM   20  O   UNK     0     185.640 182.000 175.755  0.00  0.00    -0.358 OA
HETATM   21  H   UNK     0     184.943 182.336 176.341  0.00  0.00     0.217 HD
ENDBRANCH  15  20
ENDBRANCH   5  12
BRANCH   6  22
HETATM   22  O   UNK     0     188.128 184.261 170.480  0.00  0.00    -0.355 OA
HETATM   23  H   UNK     0     187.911 183.669 171.218  0.00  0.00     0.218 HD
ENDBRANCH   6  22
BRANCH   8  24
HETATM   24  O   UNK     0     187.529 188.538 167.523  0.00  0.00    -0.360 OA
HETATM   25  H   UNK     0     187.905 187.650 167.433  0.00  0.00     0.217 HD
ENDBRANCH   8  24
BRANCH  10  26
HETATM   26  O   UNK     0     184.145 190.897 169.878  0.00  0.00    -0.361 OA
HETATM   27  H   UNK     0     183.309 190.710 169.417  0.00  0.00     0.217 HD
ENDBRANCH  10  26
TORSDOF 6
