REMARK VINA RESULT:      -6.6      8.322     10.649
REMARK  6 active torsions:
REMARK  status: ('A' for Active; 'I' for Inactive)
REMARK    1  A    between atoms: O_2  and  C_12 
REMARK    2  A    between atoms: O_3  and  C_14 
REMARK    3  A    between atoms: O_5  and  C_16 
REMARK    4  A    between atoms: O_6  and  C_20 
REMARK    5  A    between atoms: O_7  and  C_22 
REMARK    6  A    between atoms: C_10  and  C_11 
ROOT
HETATM    1  O   UNK     0     179.288 181.070 172.326  0.00  0.00    -0.306 OA
HETATM    2  O   UNK     0     182.664 178.797 172.527  0.00  0.00    -0.284 OA
HETATM    3  C   UNK     0     181.685 180.937 172.679  0.00  0.00     0.084 A 
HETATM    4  C   UNK     0     180.495 181.658 172.596  0.00  0.00     0.096 A 
HETATM    5  C   UNK     0     179.247 179.696 172.142  0.00  0.00     0.123 A 
HETATM    6  C   UNK     0     180.322 178.888 172.188  0.00  0.00     0.152 A 
HETATM    7  C   UNK     0     181.651 179.481 172.472  0.00  0.00     0.223 A 
HETATM    8  C   UNK     0     182.888 181.591 172.956  0.00  0.00     0.085 A 
HETATM    9  C   UNK     0     180.502 183.040 172.787  0.00  0.00     0.075 A 
HETATM   10  C   UNK     0     181.702 183.696 173.063  0.00  0.00     0.071 A 
HETATM   11  C   UNK     0     182.892 182.973 173.147  0.00  0.00     0.074 A 
ENDROOT
BRANCH   5  12
HETATM   12  C   UNK     0     177.890 179.194 171.861  0.00  0.00     0.004 A 
HETATM   13  C   UNK     0     177.254 179.532 170.667  0.00  0.00     0.053 A 
HETATM   14  C   UNK     0     175.970 179.056 170.401  0.00  0.00     0.099 A 
HETATM   15  C   UNK     0     175.323 178.240 171.330  0.00  0.00     0.098 A 
HETATM   16  C   UNK     0     175.959 177.901 172.523  0.00  0.00     0.040 A 
HETATM   17  C   UNK     0     177.243 178.377 172.789  0.00  0.00     0.017 A 
BRANCH  14  18
HETATM   18  O   UNK     0     175.357 179.395 169.233  0.00  0.00    -0.358 OA
HETATM   19  H   UNK     0     174.405 179.509 169.383  0.00  0.00     0.217 HD
ENDBRANCH  14  18
BRANCH  15  20
HETATM   20  O   UNK     0     174.070 177.767 171.080  0.00  0.00    -0.358 OA
HETATM   21  H   UNK     0     173.931 176.936 171.562  0.00  0.00     0.217 HD
ENDBRANCH  15  20
ENDBRANCH   5  12
BRANCH   6  22
HETATM   22  O   UNK     0     180.252 177.530 171.968  0.00  0.00    -0.355 OA
HETATM   23  H   UNK     0     180.458 177.335 171.039  0.00  0.00     0.218 HD
ENDBRANCH   6  22
BRANCH   8  24
HETATM   24  O   UNK     0     184.078 180.934 173.048  0.00  0.00    -0.360 OA
HETATM   25  H   UNK     0     184.742 181.492 173.480  0.00  0.00     0.217 HD
ENDBRANCH   8  24
BRANCH  10  26
HETATM   26  O   UNK     0     181.710 185.045 173.250  0.00  0.00    -0.361 OA
HETATM   27  H   UNK     0     180.819 185.332 173.514  0.00  0.00     0.217 HD
ENDBRANCH  10  26
TORSDOF 6
