REMARK VINA RESULT:      -6.5      4.316      6.309
REMARK  6 active torsions:
REMARK  status: ('A' for Active; 'I' for Inactive)
REMARK    1  A    between atoms: O_2  and  C_12 
REMARK    2  A    between atoms: O_3  and  C_14 
REMARK    3  A    between atoms: O_5  and  C_16 
REMARK    4  A    between atoms: O_6  and  C_20 
REMARK    5  A    between atoms: O_7  and  C_22 
REMARK    6  A    between atoms: C_10  and  C_11 
ROOT
HETATM    1  O   UNK     0     186.731 184.063 170.807  0.00  0.00    -0.306 OA
HETATM    2  O   UNK     0     188.972 187.125 172.291  0.00  0.00    -0.284 OA
HETATM    3  C   UNK     0     187.038 185.790 172.484  0.00  0.00     0.084 A 
HETATM    4  C   UNK     0     186.317 184.736 171.926  0.00  0.00     0.096 A 
HETATM    5  C   UNK     0     187.925 184.440 170.212  0.00  0.00     0.123 A 
HETATM    6  C   UNK     0     188.709 185.444 170.645  0.00  0.00     0.152 A 
HETATM    7  C   UNK     0     188.299 186.204 171.850  0.00  0.00     0.223 A 
HETATM    8  C   UNK     0     186.565 186.440 173.627  0.00  0.00     0.085 A 
HETATM    9  C   UNK     0     185.116 184.327 172.508  0.00  0.00     0.075 A 
HETATM   10  C   UNK     0     184.642 184.974 173.650  0.00  0.00     0.071 A 
HETATM   11  C   UNK     0     185.366 186.029 174.207  0.00  0.00     0.074 A 
ENDROOT
BRANCH   5  12
HETATM   12  C   UNK     0     188.252 183.637 169.020  0.00  0.00     0.004 A 
HETATM   13  C   UNK     0     189.124 182.553 169.126  0.00  0.00     0.053 A 
HETATM   14  C   UNK     0     189.433 181.794 167.998  0.00  0.00     0.099 A 
HETATM   15  C   UNK     0     188.870 182.118 166.763  0.00  0.00     0.098 A 
HETATM   16  C   UNK     0     187.998 183.201 166.657  0.00  0.00     0.040 A 
HETATM   17  C   UNK     0     187.688 183.961 167.785  0.00  0.00     0.017 A 
BRANCH  14  18
HETATM   18  O   UNK     0     190.287 180.739 168.113  0.00  0.00    -0.358 OA
HETATM   19  H   UNK     0     190.425 180.332 167.242  0.00  0.00     0.217 HD
ENDBRANCH  14  18
BRANCH  15  20
HETATM   20  O   UNK     0     189.163 181.382 165.654  0.00  0.00    -0.358 OA
HETATM   21  H   UNK     0     189.947 180.835 165.822  0.00  0.00     0.217 HD
ENDBRANCH  15  20
ENDBRANCH   5  12
BRANCH   6  22
HETATM   22  O   UNK     0     189.875 185.815 170.011  0.00  0.00    -0.355 OA
HETATM   23  H   UNK     0     190.048 185.220 169.263  0.00  0.00     0.218 HD
ENDBRANCH   6  22
BRANCH   8  24
HETATM   24  O   UNK     0     187.231 187.476 174.211  0.00  0.00    -0.360 OA
HETATM   25  H   UNK     0     186.626 188.209 174.395  0.00  0.00     0.217 HD
ENDBRANCH   8  24
BRANCH  10  26
HETATM   26  O   UNK     0     183.471 184.575 174.219  0.00  0.00    -0.361 OA
HETATM   27  H   UNK     0     183.668 184.105 175.047  0.00  0.00     0.217 HD
ENDBRANCH  10  26
TORSDOF 6
