REMARK VINA RESULT:      -6.6      4.650      6.271
REMARK  6 active torsions:
REMARK  status: ('A' for Active; 'I' for Inactive)
REMARK    1  A    between atoms: O_2  and  C_12 
REMARK    2  A    between atoms: O_3  and  C_14 
REMARK    3  A    between atoms: O_5  and  C_16 
REMARK    4  A    between atoms: O_6  and  C_20 
REMARK    5  A    between atoms: O_7  and  C_22 
REMARK    6  A    between atoms: C_10  and  C_11 
ROOT
HETATM    1  O   UNK     0     184.306 183.247 171.886  0.00  0.00    -0.306 OA
HETATM    2  O   UNK     0     182.272 179.852 172.856  0.00  0.00    -0.284 OA
HETATM    3  C   UNK     0     183.104 181.267 171.163  0.00  0.00     0.084 A 
HETATM    4  C   UNK     0     183.807 182.441 170.897  0.00  0.00     0.096 A 
HETATM    5  C   UNK     0     184.115 182.871 173.207  0.00  0.00     0.123 A 
HETATM    6  C   UNK     0     183.448 181.769 173.597  0.00  0.00     0.152 A 
HETATM    7  C   UNK     0     182.886 180.869 172.562  0.00  0.00     0.223 A 
HETATM    8  C   UNK     0     182.616 180.485 170.112  0.00  0.00     0.085 A 
HETATM    9  C   UNK     0     184.025 182.841 169.578  0.00  0.00     0.075 A 
HETATM   10  C   UNK     0     183.539 182.062 168.528  0.00  0.00     0.071 A 
HETATM   11  C   UNK     0     182.836 180.887 168.795  0.00  0.00     0.074 A 
ENDROOT
BRANCH   5  12
HETATM   12  C   UNK     0     184.701 183.823 174.167  0.00  0.00     0.004 A 
HETATM   13  C   UNK     0     186.021 183.666 174.588  0.00  0.00     0.053 A 
HETATM   14  C   UNK     0     186.575 184.568 175.497  0.00  0.00     0.099 A 
HETATM   15  C   UNK     0     185.809 185.627 175.984  0.00  0.00     0.098 A 
HETATM   16  C   UNK     0     184.489 185.784 175.562  0.00  0.00     0.040 A 
HETATM   17  C   UNK     0     183.934 184.883 174.654  0.00  0.00     0.017 A 
BRANCH  14  18
HETATM   18  O   UNK     0     187.865 184.403 175.904  0.00  0.00    -0.358 OA
HETATM   19  H   UNK     0     187.898 183.779 176.647  0.00  0.00     0.217 HD
ENDBRANCH  14  18
BRANCH  15  20
HETATM   20  O   UNK     0     186.340 186.515 176.871  0.00  0.00    -0.358 OA
HETATM   21  H   UNK     0     185.753 187.283 176.956  0.00  0.00     0.217 HD
ENDBRANCH  15  20
ENDBRANCH   5  12
BRANCH   6  22
HETATM   22  O   UNK     0     183.247 181.440 174.920  0.00  0.00    -0.355 OA
HETATM   23  H   UNK     0     182.910 182.212 175.404  0.00  0.00     0.218 HD
ENDBRANCH   6  22
BRANCH   8  24
HETATM   24  O   UNK     0     181.924 179.330 170.317  0.00  0.00    -0.360 OA
HETATM   25  H   UNK     0     181.985 179.056 171.245  0.00  0.00     0.217 HD
ENDBRANCH   8  24
BRANCH  10  26
HETATM   26  O   UNK     0     183.752 182.451 167.240  0.00  0.00    -0.361 OA
HETATM   27  H   UNK     0     183.095 183.129 167.004  0.00  0.00     0.217 HD
ENDBRANCH  10  26
TORSDOF 6
