REMARK  10 active torsions:
REMARK  status: ('A' for Active; 'I' for Inactive)
REMARK    1  A    between atoms: O_2  and  C_12 
REMARK    2  A    between atoms: O_2  and  C_14 
REMARK    3  A    between atoms: O_3  and  C_8 
REMARK    4  A    between atoms: O_4  and  C_9 
REMARK    5  A    between atoms: O_5  and  C_10 
REMARK    6  A    between atoms: O_6  and  C_13 
REMARK    7  A    between atoms: O_7  and  C_21 
REMARK    8  A    between atoms: C_11  and  C_13 
REMARK    9  A    between atoms: C_14  and  C_15 
REMARK   10  A    between atoms: C_15  and  C_16 
ROOT
HETATM    1  O   UNK     0      -1.487  -0.851   0.214  0.00  0.00    -0.348 OA
HETATM    2  C   UNK     0      -3.287   1.329  -0.293  0.00  0.00     0.183 C 
HETATM    3  C   UNK     0      -3.451  -0.041  -0.952  0.00  0.00     0.180 C 
HETATM    4  C   UNK     0      -1.847   1.550   0.172  0.00  0.00     0.204 C 
HETATM    5  C   UNK     0      -2.856  -1.142  -0.072  0.00  0.00     0.179 C 
HETATM    6  C   UNK     0      -1.328   0.351   0.965  0.00  0.00     0.291 C 
ENDROOT
BRANCH   5   7
HETATM    7  C   UNK     0      -2.902  -2.502  -0.760  0.00  0.00     0.198 C 
BRANCH   7   8
HETATM    8  O   UNK     0      -2.328  -3.465   0.104  0.00  0.00    -0.398 OA
HETATM    9  H   UNK     0      -1.419  -3.181   0.299  0.00  0.00     0.209 HD
ENDBRANCH   7   8
ENDBRANCH   5   7
BRANCH   6  10
HETATM   10  O   UNK     0       0.055   0.570   1.237  0.00  0.00    -0.358 OA
BRANCH  10  11
HETATM   11  C   UNK     0       0.613  -0.507   1.975  0.00  0.00     0.175 C 
BRANCH  11  12
HETATM   12  C   UNK     0       2.085  -0.230   2.258  0.00  0.00     0.065 C 
BRANCH  12  13
HETATM   13  C   UNK     0       2.900  -0.111   0.993  0.00  0.00    -0.056 A 
HETATM   14  C   UNK     0       3.484  -1.244   0.452  0.00  0.00     0.010 A 
HETATM   15  C   UNK     0       4.237  -1.134  -0.717  0.00  0.00     0.037 A 
HETATM   16  C   UNK     0       4.396   0.110  -1.329  0.00  0.00     0.065 A 
HETATM   17  C   UNK     0       3.802   1.242  -0.773  0.00  0.00     0.037 A 
HETATM   18  C   UNK     0       3.049   1.131   0.396  0.00  0.00     0.010 A 
BRANCH  16  19
HETATM   19  O   UNK     0       5.131   0.217  -2.470  0.00  0.00    -0.361 OA
HETATM   20  H   UNK     0       5.467  -0.663  -2.712  0.00  0.00     0.217 HD
ENDBRANCH  16  19
ENDBRANCH  12  13
ENDBRANCH  11  12
ENDBRANCH  10  11
ENDBRANCH   6  10
BRANCH   3  21
HETATM   21  O   UNK     0      -4.837  -0.301  -1.159  0.00  0.00    -0.390 OA
HETATM   22  H   UNK     0      -5.273  -0.318  -0.290  0.00  0.00     0.210 HD
ENDBRANCH   3  21
BRANCH   4  23
HETATM   23  O   UNK     0      -1.793   2.701   1.015  0.00  0.00    -0.388 OA
HETATM   24  H   UNK     0      -2.365   2.538   1.785  0.00  0.00     0.210 HD
ENDBRANCH   4  23
BRANCH   2  25
HETATM   25  O   UNK     0      -3.635   2.326  -1.254  0.00  0.00    -0.390 OA
HETATM   26  H   UNK     0      -4.548   2.150  -1.539  0.00  0.00     0.210 HD
ENDBRANCH   2  25
TORSDOF 10
