MODEL 1
REMARK VINA RESULT:      -9.5      0.000      0.000
REMARK  11 active torsions:
REMARK  status: ('A' for Active; 'I' for Inactive)
REMARK    1  A    between atoms: O_2  and  C_16 
REMARK    2  A    between atoms: O_2  and  C_18 
REMARK    3  A    between atoms: O_3  and  C_12 
REMARK    4  A    between atoms: O_4  and  C_13 
REMARK    5  A    between atoms: O_5  and  C_14 
REMARK    6  A    between atoms: O_6  and  C_17 
REMARK    7  A    between atoms: O_8  and  C_23 
REMARK    8  A    between atoms: O_10  and  C_30 
REMARK    9  A    between atoms: O_11  and  C_32 
REMARK   10  A    between atoms: C_15  and  C_17 
REMARK   11  A    between atoms: C_25  and  C_27 
ROOT
HETATM    1  O   UNK     0      56.453  17.478  26.680  0.00  0.00    -0.348 OA
HETATM    2  C   UNK     0      57.231  17.250  29.436  0.00  0.00     0.183 C 
HETATM    3  C   UNK     0      56.142  16.374  28.815  0.00  0.00     0.180 C 
HETATM    4  C   UNK     0      57.427  18.538  28.635  0.00  0.00     0.205 C 
HETATM    5  C   UNK     0      56.376  16.199  27.313  0.00  0.00     0.179 C 
HETATM    6  C   UNK     0      57.560  18.250  27.140  0.00  0.00     0.298 C 
ENDROOT
BRANCH   5   7
HETATM    7  C   UNK     0      55.239  15.426  26.652  0.00  0.00     0.198 C 
BRANCH   7   8
HETATM    8  O   UNK     0      54.058  16.202  26.738  0.00  0.00    -0.398 OA
HETATM    9  H   UNK     0      53.648  16.215  25.855  0.00  0.00     0.209 HD
ENDBRANCH   7   8
ENDBRANCH   5   7
BRANCH   6  10
HETATM   10  O   UNK     0      57.596  19.499  26.452  0.00  0.00    -0.318 OA
BRANCH  10  11
HETATM   11  C   UNK     0      58.797  19.873  25.926  0.00  0.00     0.077 A 
HETATM   12  C   UNK     0      59.468  19.019  25.050  0.00  0.00     0.075 A 
HETATM   13  C   UNK     0      60.696  19.403  24.513  0.00  0.00     0.095 A 
HETATM   14  O   UNK     0      61.310  18.523  23.658  0.00  0.00    -0.309 OA
HETATM   15  C   UNK     0      61.251  20.637  24.852  0.00  0.00     0.081 A 
HETATM   16  C   UNK     0      62.529  18.881  23.104  0.00  0.00     0.090 A 
HETATM   17  C   UNK     0      63.165  20.035  23.358  0.00  0.00     0.094 A 
HETATM   18  C   UNK     0      62.548  21.016  24.273  0.00  0.00     0.190 A 
HETATM   19  O   UNK     0      63.092  22.081  24.530  0.00  0.00    -0.287 OA
HETATM   20  C   UNK     0      60.581  21.495  25.730  0.00  0.00     0.085 A 
HETATM   21  C   UNK     0      59.352  21.107  26.264  0.00  0.00     0.074 A 
BRANCH  16  22
HETATM   22  C   UNK     0      63.103  17.859  22.204  0.00  0.00     0.001 A 
HETATM   23  C   UNK     0      64.132  18.199  21.323  0.00  0.00     0.053 A 
HETATM   24  C   UNK     0      64.674  17.233  20.475  0.00  0.00     0.099 A 
HETATM   25  C   UNK     0      64.188  15.927  20.504  0.00  0.00     0.098 A 
HETATM   26  C   UNK     0      63.161  15.584  21.384  0.00  0.00     0.040 A 
HETATM   27  C   UNK     0      62.618  16.548  22.232  0.00  0.00     0.017 A 
BRANCH  24  28
HETATM   28  O   UNK     0      65.676  17.579  19.618  0.00  0.00    -0.358 OA
HETATM   29  H   UNK     0      66.384  18.002  20.132  0.00  0.00     0.217 HD
ENDBRANCH  24  28
BRANCH  25  30
HETATM   30  O   UNK     0      64.710  14.975  19.681  0.00  0.00    -0.358 OA
HETATM   31  H   UNK     0      65.664  14.897  19.852  0.00  0.00     0.217 HD
ENDBRANCH  25  30
ENDBRANCH  16  22
BRANCH  20  32
HETATM   32  O   UNK     0      61.080  22.708  26.091  0.00  0.00    -0.360 OA
HETATM   33  H   UNK     0      60.910  22.882  27.029  0.00  0.00     0.217 HD
ENDBRANCH  20  32
ENDBRANCH  10  11
ENDBRANCH   6  10
BRANCH   3  34
HETATM   34  O   UNK     0      56.150  15.095  29.446  0.00  0.00    -0.390 OA
HETATM   35  H   UNK     0      57.030  14.702  29.315  0.00  0.00     0.210 HD
ENDBRANCH   3  34
BRANCH   4  36
HETATM   36  O   UNK     0      58.619  19.190  29.073  0.00  0.00    -0.388 OA
HETATM   37  H   UNK     0      58.712  20.017  28.570  0.00  0.00     0.210 HD
ENDBRANCH   4  36
BRANCH   2  38
HETATM   38  O   UNK     0      56.833  17.574  30.769  0.00  0.00    -0.390 OA
HETATM   39  H   UNK     0      57.238  16.917  31.361  0.00  0.00     0.210 HD
ENDBRANCH   2  38
TORSDOF 11
ENDMDL
MODEL 2
REMARK VINA RESULT:      -9.4      2.385      3.635
REMARK  11 active torsions:
REMARK  status: ('A' for Active; 'I' for Inactive)
REMARK    1  A    between atoms: O_2  and  C_16 
REMARK    2  A    between atoms: O_2  and  C_18 
REMARK    3  A    between atoms: O_3  and  C_12 
REMARK    4  A    between atoms: O_4  and  C_13 
REMARK    5  A    between atoms: O_5  and  C_14 
REMARK    6  A    between atoms: O_6  and  C_17 
REMARK    7  A    between atoms: O_8  and  C_23 
REMARK    8  A    between atoms: O_10  and  C_30 
REMARK    9  A    between atoms: O_11  and  C_32 
REMARK   10  A    between atoms: C_15  and  C_17 
REMARK   11  A    between atoms: C_25  and  C_27 
ROOT
HETATM    1  O   UNK     0      60.122  16.542  28.171  0.00  0.00    -0.348 OA
HETATM    2  C   UNK     0      57.403  15.793  28.716  0.00  0.00     0.183 C 
HETATM    3  C   UNK     0      58.397  16.137  29.825  0.00  0.00     0.180 C 
HETATM    4  C   UNK     0      58.126  15.369  27.437  0.00  0.00     0.205 C 
HETATM    5  C   UNK     0      59.470  17.101  29.313  0.00  0.00     0.179 C 
HETATM    6  C   UNK     0      59.234  16.357  27.071  0.00  0.00     0.298 C 
ENDROOT
BRANCH   5   7
HETATM    7  C   UNK     0      60.539  17.368  30.368  0.00  0.00     0.198 C 
BRANCH   7   8
HETATM    8  O   UNK     0      60.096  18.424  31.201  0.00  0.00    -0.398 OA
HETATM    9  H   UNK     0      60.211  19.256  30.710  0.00  0.00     0.209 HD
ENDBRANCH   7   8
ENDBRANCH   5   7
BRANCH   6  10
HETATM   10  O   UNK     0      59.950  15.823  25.958  0.00  0.00    -0.318 OA
BRANCH  10  11
HETATM   11  C   UNK     0      60.671  16.708  25.214  0.00  0.00     0.077 A 
HETATM   12  C   UNK     0      61.848  16.295  24.589  0.00  0.00     0.075 A 
HETATM   13  C   UNK     0      62.585  17.202  23.828  0.00  0.00     0.095 A 
HETATM   14  O   UNK     0      63.733  16.738  23.237  0.00  0.00    -0.309 OA
HETATM   15  C   UNK     0      62.145  18.519  23.694  0.00  0.00     0.081 A 
HETATM   16  C   UNK     0      64.482  17.617  22.470  0.00  0.00     0.090 A 
HETATM   17  C   UNK     0      64.167  18.906  22.272  0.00  0.00     0.094 A 
HETATM   18  C   UNK     0      62.942  19.455  22.888  0.00  0.00     0.190 A 
HETATM   19  O   UNK     0      62.617  20.624  22.732  0.00  0.00    -0.287 OA
HETATM   20  C   UNK     0      60.967  18.936  24.319  0.00  0.00     0.085 A 
HETATM   21  C   UNK     0      60.232  18.025  25.079  0.00  0.00     0.074 A 
BRANCH  16  22
HETATM   22  C   UNK     0      65.700  17.016  21.887  0.00  0.00     0.001 A 
HETATM   23  C   UNK     0      66.105  17.366  20.597  0.00  0.00     0.053 A 
HETATM   24  C   UNK     0      67.255  16.800  20.047  0.00  0.00     0.099 A 
HETATM   25  C   UNK     0      68.001  15.881  20.784  0.00  0.00     0.098 A 
HETATM   26  C   UNK     0      67.599  15.529  22.072  0.00  0.00     0.040 A 
HETATM   27  C   UNK     0      66.450  16.095  22.623  0.00  0.00     0.017 A 
BRANCH  24  28
HETATM   28  O   UNK     0      67.638  17.149  18.786  0.00  0.00    -0.358 OA
HETATM   29  H   UNK     0      68.380  16.579  18.523  0.00  0.00     0.217 HD
ENDBRANCH  24  28
BRANCH  25  30
HETATM   30  O   UNK     0      69.126  15.321  20.258  0.00  0.00    -0.358 OA
HETATM   31  H   UNK     0      69.198  15.575  19.321  0.00  0.00     0.217 HD
ENDBRANCH  25  30
ENDBRANCH  16  22
BRANCH  20  32
HETATM   32  O   UNK     0      60.496  20.210  24.219  0.00  0.00    -0.360 OA
HETATM   33  H   UNK     0      60.210  20.398  23.313  0.00  0.00     0.217 HD
ENDBRANCH  20  32
ENDBRANCH  10  11
ENDBRANCH   6  10
BRANCH   3  34
HETATM   34  O   UNK     0      57.700  16.742  30.912  0.00  0.00    -0.390 OA
HETATM   35  H   UNK     0      57.228  16.041  31.393  0.00  0.00     0.210 HD
ENDBRANCH   3  34
BRANCH   4  36
HETATM   36  O   UNK     0      57.192  15.323  26.359  0.00  0.00    -0.388 OA
HETATM   37  H   UNK     0      56.384  15.786  26.640  0.00  0.00     0.210 HD
ENDBRANCH   4  36
BRANCH   2  38
HETATM   38  O   UNK     0      56.581  14.718  29.176  0.00  0.00    -0.390 OA
HETATM   39  H   UNK     0      56.612  14.725  30.148  0.00  0.00     0.210 HD
ENDBRANCH   2  38
TORSDOF 11
ENDMDL
MODEL 3
REMARK VINA RESULT:      -9.4     21.992     25.786
REMARK  11 active torsions:
REMARK  status: ('A' for Active; 'I' for Inactive)
REMARK    1  A    between atoms: O_2  and  C_16 
REMARK    2  A    between atoms: O_2  and  C_18 
REMARK    3  A    between atoms: O_3  and  C_12 
REMARK    4  A    between atoms: O_4  and  C_13 
REMARK    5  A    between atoms: O_5  and  C_14 
REMARK    6  A    between atoms: O_6  and  C_17 
REMARK    7  A    between atoms: O_8  and  C_23 
REMARK    8  A    between atoms: O_10  and  C_30 
REMARK    9  A    between atoms: O_11  and  C_32 
REMARK   10  A    between atoms: C_15  and  C_17 
REMARK   11  A    between atoms: C_25  and  C_27 
ROOT
HETATM    1  O   UNK     0      72.437  35.558  31.989  0.00  0.00    -0.348 OA
HETATM    2  C   UNK     0      73.765  38.082  31.646  0.00  0.00     0.183 C 
HETATM    3  C   UNK     0      72.324  37.845  31.193  0.00  0.00     0.180 C 
HETATM    4  C   UNK     0      74.532  36.764  31.761  0.00  0.00     0.205 C 
HETATM    5  C   UNK     0      71.660  36.757  32.041  0.00  0.00     0.179 C 
HETATM    6  C   UNK     0      73.737  35.724  32.551  0.00  0.00     0.298 C 
ENDROOT
BRANCH   5   7
HETATM    7  C   UNK     0      70.262  36.422  31.533  0.00  0.00     0.198 C 
BRANCH   7   8
HETATM    8  O   UNK     0      70.211  36.687  30.143  0.00  0.00    -0.398 OA
HETATM    9  H   UNK     0      69.281  36.633  29.865  0.00  0.00     0.209 HD
ENDBRANCH   7   8
ENDBRANCH   5   7
BRANCH   6  10
HETATM   10  O   UNK     0      74.448  34.489  32.493  0.00  0.00    -0.318 OA
BRANCH  10  11
HETATM   11  C   UNK     0      74.617  33.825  33.671  0.00  0.00     0.077 A 
HETATM   12  C   UNK     0      75.635  34.206  34.546  0.00  0.00     0.075 A 
HETATM   13  C   UNK     0      75.806  33.526  35.751  0.00  0.00     0.095 A 
HETATM   14  O   UNK     0      76.824  33.946  36.569  0.00  0.00    -0.309 OA
HETATM   15  C   UNK     0      74.960  32.466  36.079  0.00  0.00     0.081 A 
HETATM   16  C   UNK     0      77.013  33.291  37.776  0.00  0.00     0.090 A 
HETATM   17  C   UNK     0      76.271  32.257  38.200  0.00  0.00     0.094 A 
HETATM   18  C   UNK     0      75.164  31.765  37.355  0.00  0.00     0.190 A 
HETATM   19  O   UNK     0      74.462  30.826  37.704  0.00  0.00    -0.287 OA
HETATM   20  C   UNK     0      73.940  32.081  35.206  0.00  0.00     0.085 A 
HETATM   21  C   UNK     0      73.771  32.765  34.001  0.00  0.00     0.074 A 
BRANCH  16  22
HETATM   22  C   UNK     0      78.139  33.820  38.575  0.00  0.00     0.001 A 
HETATM   23  C   UNK     0      77.986  35.001  39.305  0.00  0.00     0.053 A 
HETATM   24  C   UNK     0      79.048  35.499  40.060  0.00  0.00     0.099 A 
HETATM   25  C   UNK     0      80.264  34.818  40.087  0.00  0.00     0.098 A 
HETATM   26  C   UNK     0      80.419  33.638  39.360  0.00  0.00     0.040 A 
HETATM   27  C   UNK     0      79.359  33.139  38.605  0.00  0.00     0.017 A 
BRANCH  24  28
HETATM   28  O   UNK     0      78.886  36.654  40.765  0.00  0.00    -0.358 OA
HETATM   29  H   UNK     0      78.680  37.368  40.138  0.00  0.00     0.217 HD
ENDBRANCH  24  28
BRANCH  25  30
HETATM   30  O   UNK     0      81.308  35.294  40.821  0.00  0.00    -0.358 OA
HETATM   31  H   UNK     0      82.117  35.259  40.282  0.00  0.00     0.217 HD
ENDBRANCH  25  30
ENDBRANCH  16  22
BRANCH  20  32
HETATM   32  O   UNK     0      73.089  31.054  35.481  0.00  0.00    -0.360 OA
HETATM   33  H   UNK     0      73.480  30.452  36.131  0.00  0.00     0.217 HD
ENDBRANCH  20  32
ENDBRANCH  10  11
ENDBRANCH   6  10
BRANCH   3  34
HETATM   34  O   UNK     0      71.585  39.058  31.320  0.00  0.00    -0.390 OA
HETATM   35  H   UNK     0      70.870  38.907  31.962  0.00  0.00     0.210 HD
ENDBRANCH   3  34
BRANCH   4  36
HETATM   36  O   UNK     0      75.767  36.993  32.440  0.00  0.00    -0.388 OA
HETATM   37  H   UNK     0      75.615  36.866  33.392  0.00  0.00     0.210 HD
ENDBRANCH   4  36
BRANCH   2  38
HETATM   38  O   UNK     0      74.401  38.919  30.678  0.00  0.00    -0.390 OA
HETATM   39  H   UNK     0      73.701  39.406  30.211  0.00  0.00     0.210 HD
ENDBRANCH   2  38
TORSDOF 11
ENDMDL
MODEL 4
REMARK VINA RESULT:      -9.3      1.145      2.610
REMARK  11 active torsions:
REMARK  status: ('A' for Active; 'I' for Inactive)
REMARK    1  A    between atoms: O_2  and  C_16 
REMARK    2  A    between atoms: O_2  and  C_18 
REMARK    3  A    between atoms: O_3  and  C_12 
REMARK    4  A    between atoms: O_4  and  C_13 
REMARK    5  A    between atoms: O_5  and  C_14 
REMARK    6  A    between atoms: O_6  and  C_17 
REMARK    7  A    between atoms: O_8  and  C_23 
REMARK    8  A    between atoms: O_10  and  C_30 
REMARK    9  A    between atoms: O_11  and  C_32 
REMARK   10  A    between atoms: C_15  and  C_17 
REMARK   11  A    between atoms: C_25  and  C_27 
ROOT
HETATM    1  O   UNK     0      58.740  18.108  28.209  0.00  0.00    -0.348 OA
HETATM    2  C   UNK     0      56.460  16.791  29.358  0.00  0.00     0.183 C 
HETATM    3  C   UNK     0      57.840  16.767  30.015  0.00  0.00     0.180 C 
HETATM    4  C   UNK     0      56.567  17.082  27.860  0.00  0.00     0.205 C 
HETATM    5  C   UNK     0      58.648  18.008  29.631  0.00  0.00     0.179 C 
HETATM    6  C   UNK     0      57.468  18.286  27.589  0.00  0.00     0.298 C 
ENDROOT
BRANCH   5   7
HETATM    7  C   UNK     0      60.069  17.949  30.181  0.00  0.00     0.198 C 
BRANCH   7   8
HETATM    8  O   UNK     0      60.049  18.380  31.529  0.00  0.00    -0.398 OA
HETATM    9  H   UNK     0      60.612  17.775  32.042  0.00  0.00     0.209 HD
ENDBRANCH   7   8
ENDBRANCH   5   7
BRANCH   6  10
HETATM   10  O   UNK     0      57.632  18.405  26.177  0.00  0.00    -0.318 OA
BRANCH  10  11
HETATM   11  C   UNK     0      58.763  19.030  25.744  0.00  0.00     0.077 A 
HETATM   12  C   UNK     0      59.620  18.381  24.853  0.00  0.00     0.075 A 
HETATM   13  C   UNK     0      60.776  19.022  24.412  0.00  0.00     0.095 A 
HETATM   14  O   UNK     0      61.580  18.334  23.538  0.00  0.00    -0.309 OA
HETATM   15  C   UNK     0      61.075  20.308  24.860  0.00  0.00     0.081 A 
HETATM   16  C   UNK     0      62.733  18.950  23.077  0.00  0.00     0.090 A 
HETATM   17  C   UNK     0      63.130  20.179  23.440  0.00  0.00     0.094 A 
HETATM   18  C   UNK     0      62.303  20.960  24.380  0.00  0.00     0.190 A 
HETATM   19  O   UNK     0      62.627  22.085  24.735  0.00  0.00    -0.287 OA
HETATM   20  C   UNK     0      60.220  20.962  25.752  0.00  0.00     0.085 A 
HETATM   21  C   UNK     0      59.063  20.317  26.191  0.00  0.00     0.074 A 
BRANCH  16  22
HETATM   22  C   UNK     0      63.526  18.119  22.147  0.00  0.00     0.001 A 
HETATM   23  C   UNK     0      63.335  16.736  22.106  0.00  0.00     0.053 A 
HETATM   24  C   UNK     0      64.083  15.952  21.226  0.00  0.00     0.099 A 
HETATM   25  C   UNK     0      65.022  16.549  20.387  0.00  0.00     0.098 A 
HETATM   26  C   UNK     0      65.213  17.930  20.424  0.00  0.00     0.040 A 
HETATM   27  C   UNK     0      64.467  18.714  21.303  0.00  0.00     0.017 A 
BRANCH  24  28
HETATM   28  O   UNK     0      63.888  14.603  21.200  0.00  0.00    -0.358 OA
HETATM   29  H   UNK     0      64.515  14.217  20.564  0.00  0.00     0.217 HD
ENDBRANCH  24  28
BRANCH  25  30
HETATM   30  O   UNK     0      65.757  15.794  19.523  0.00  0.00    -0.358 OA
HETATM   31  H   UNK     0      65.261  14.986  19.307  0.00  0.00     0.217 HD
ENDBRANCH  25  30
ENDBRANCH  16  22
BRANCH  20  32
HETATM   32  O   UNK     0      60.468  22.216  26.219  0.00  0.00    -0.360 OA
HETATM   33  H   UNK     0      61.275  22.575  25.821  0.00  0.00     0.217 HD
ENDBRANCH  20  32
ENDBRANCH  10  11
ENDBRANCH   6  10
BRANCH   3  34
HETATM   34  O   UNK     0      57.685  16.725  31.432  0.00  0.00    -0.390 OA
HETATM   35  H   UNK     0      57.268  15.878  31.664  0.00  0.00     0.210 HD
ENDBRANCH   3  34
BRANCH   4  36
HETATM   36  O   UNK     0      55.269  17.368  27.340  0.00  0.00    -0.388 OA
HETATM   37  H   UNK     0      54.710  17.673  28.075  0.00  0.00     0.210 HD
ENDBRANCH   4  36
BRANCH   2  38
HETATM   38  O   UNK     0      55.854  15.513  29.552  0.00  0.00    -0.390 OA
HETATM   39  H   UNK     0      56.194  14.921  28.858  0.00  0.00     0.210 HD
ENDBRANCH   2  38
TORSDOF 11
ENDMDL
MODEL 5
REMARK VINA RESULT:      -9.2      2.086      8.563
REMARK  11 active torsions:
REMARK  status: ('A' for Active; 'I' for Inactive)
REMARK    1  A    between atoms: O_2  and  C_16 
REMARK    2  A    between atoms: O_2  and  C_18 
REMARK    3  A    between atoms: O_3  and  C_12 
REMARK    4  A    between atoms: O_4  and  C_13 
REMARK    5  A    between atoms: O_5  and  C_14 
REMARK    6  A    between atoms: O_6  and  C_17 
REMARK    7  A    between atoms: O_8  and  C_23 
REMARK    8  A    between atoms: O_10  and  C_30 
REMARK    9  A    between atoms: O_11  and  C_32 
REMARK   10  A    between atoms: C_15  and  C_17 
REMARK   11  A    between atoms: C_25  and  C_27 
ROOT
HETATM    1  O   UNK     0      64.668  18.241  23.407  0.00  0.00    -0.348 OA
HETATM    2  C   UNK     0      64.779  16.506  21.120  0.00  0.00     0.183 C 
HETATM    3  C   UNK     0      65.917  16.597  22.137  0.00  0.00     0.180 C 
HETATM    4  C   UNK     0      63.908  17.763  21.150  0.00  0.00     0.205 C 
HETATM    5  C   UNK     0      65.385  17.009  23.512  0.00  0.00     0.179 C 
HETATM    6  C   UNK     0      63.511  18.131  22.580  0.00  0.00     0.298 C 
ENDROOT
BRANCH   5   7
HETATM    7  C   UNK     0      66.516  17.220  24.514  0.00  0.00     0.198 C 
BRANCH   7   8
HETATM    8  O   UNK     0      65.965  17.243  25.817  0.00  0.00    -0.398 OA
HETATM    9  H   UNK     0      65.001  17.139  25.732  0.00  0.00     0.209 HD
ENDBRANCH   7   8
ENDBRANCH   5   7
BRANCH   6  10
HETATM   10  O   UNK     0      62.828  19.383  22.539  0.00  0.00    -0.318 OA
BRANCH  10  11
HETATM   11  C   UNK     0      61.947  19.632  23.549  0.00  0.00     0.077 A 
HETATM   12  C   UNK     0      61.094  18.620  23.993  0.00  0.00     0.075 A 
HETATM   13  C   UNK     0      60.194  18.877  25.027  0.00  0.00     0.095 A 
HETATM   14  O   UNK     0      59.380  17.844  25.420  0.00  0.00    -0.309 OA
HETATM   15  C   UNK     0      60.147  20.141  25.613  0.00  0.00     0.081 A 
HETATM   16  C   UNK     0      58.479  18.069  26.450  0.00  0.00     0.090 A 
HETATM   17  C   UNK     0      58.337  19.241  27.087  0.00  0.00     0.094 A 
HETATM   18  C   UNK     0      59.186  20.385  26.699  0.00  0.00     0.190 A 
HETATM   19  O   UNK     0      59.090  21.470  27.255  0.00  0.00    -0.287 OA
HETATM   20  C   UNK     0      60.999  21.156  25.171  0.00  0.00     0.085 A 
HETATM   21  C   UNK     0      61.900  20.896  24.137  0.00  0.00     0.074 A 
BRANCH  16  22
HETATM   22  C   UNK     0      57.651  16.893  26.789  0.00  0.00     0.001 A 
HETATM   23  C   UNK     0      57.974  16.104  27.894  0.00  0.00     0.053 A 
HETATM   24  C   UNK     0      57.191  14.994  28.215  0.00  0.00     0.099 A 
HETATM   25  C   UNK     0      56.084  14.672  27.431  0.00  0.00     0.098 A 
HETATM   26  C   UNK     0      55.758  15.460  26.327  0.00  0.00     0.040 A 
HETATM   27  C   UNK     0      56.540  16.568  26.005  0.00  0.00     0.017 A 
BRANCH  24  28
HETATM   28  O   UNK     0      57.520  14.231  29.295  0.00  0.00    -0.358 OA
HETATM   29  H   UNK     0      57.438  13.295  29.044  0.00  0.00     0.217 HD
ENDBRANCH  24  28
BRANCH  25  30
HETATM   30  O   UNK     0      55.311  13.592  27.735  0.00  0.00    -0.358 OA
HETATM   31  H   UNK     0      54.419  13.729  27.373  0.00  0.00     0.217 HD
ENDBRANCH  25  30
ENDBRANCH  16  22
BRANCH  20  32
HETATM   32  O   UNK     0      60.992  22.406  25.710  0.00  0.00    -0.360 OA
HETATM   33  H   UNK     0      60.131  22.831  25.576  0.00  0.00     0.217 HD
ENDBRANCH  20  32
ENDBRANCH  10  11
ENDBRANCH   6  10
BRANCH   3  34
HETATM   34  O   UNK     0      66.557  15.328  22.241  0.00  0.00    -0.390 OA
HETATM   35  H   UNK     0      67.308  15.319  21.623  0.00  0.00     0.210 HD
ENDBRANCH   3  34
BRANCH   4  36
HETATM   36  O   UNK     0      62.716  17.532  20.400  0.00  0.00    -0.388 OA
HETATM   37  H   UNK     0      62.488  16.590  20.480  0.00  0.00     0.210 HD
ENDBRANCH   4  36
BRANCH   2  38
HETATM   38  O   UNK     0      65.356  16.358  19.822  0.00  0.00    -0.390 OA
HETATM   39  H   UNK     0      64.945  17.025  19.244  0.00  0.00     0.210 HD
ENDBRANCH   2  38
TORSDOF 11
ENDMDL
MODEL 6
REMARK VINA RESULT:      -9.1     20.089     23.665
REMARK  11 active torsions:
REMARK  status: ('A' for Active; 'I' for Inactive)
REMARK    1  A    between atoms: O_2  and  C_16 
REMARK    2  A    between atoms: O_2  and  C_18 
REMARK    3  A    between atoms: O_3  and  C_12 
REMARK    4  A    between atoms: O_4  and  C_13 
REMARK    5  A    between atoms: O_5  and  C_14 
REMARK    6  A    between atoms: O_6  and  C_17 
REMARK    7  A    between atoms: O_8  and  C_23 
REMARK    8  A    between atoms: O_10  and  C_30 
REMARK    9  A    between atoms: O_11  and  C_32 
REMARK   10  A    between atoms: C_15  and  C_17 
REMARK   11  A    between atoms: C_25  and  C_27 
ROOT
HETATM    1  O   UNK     0      72.889  35.760  30.341  0.00  0.00    -0.348 OA
HETATM    2  C   UNK     0      72.645  38.315  29.052  0.00  0.00     0.183 C 
HETATM    3  C   UNK     0      73.460  37.169  28.454  0.00  0.00     0.180 C 
HETATM    4  C   UNK     0      72.473  38.143  30.562  0.00  0.00     0.205 C 
HETATM    5  C   UNK     0      72.913  35.816  28.913  0.00  0.00     0.179 C 
HETATM    6  C   UNK     0      72.010  36.728  30.911  0.00  0.00     0.298 C 
ENDROOT
BRANCH   5   7
HETATM    7  C   UNK     0      73.781  34.661  28.423  0.00  0.00     0.198 C 
BRANCH   7   8
HETATM    8  O   UNK     0      73.341  34.283  27.132  0.00  0.00    -0.398 OA
HETATM    9  H   UNK     0      72.810  35.016  26.774  0.00  0.00     0.209 HD
ENDBRANCH   7   8
ENDBRANCH   5   7
BRANCH   6  10
HETATM   10  O   UNK     0      72.011  36.603  32.332  0.00  0.00    -0.318 OA
BRANCH  10  11
HETATM   11  C   UNK     0      72.031  35.335  32.833  0.00  0.00     0.077 A 
HETATM   12  C   UNK     0      72.986  34.978  33.787  0.00  0.00     0.075 A 
HETATM   13  C   UNK     0      73.004  33.681  34.298  0.00  0.00     0.095 A 
HETATM   14  O   UNK     0      73.965  33.389  35.232  0.00  0.00    -0.309 OA
HETATM   15  C   UNK     0      72.070  32.744  33.856  0.00  0.00     0.081 A 
HETATM   16  C   UNK     0      74.004  32.109  35.762  0.00  0.00     0.090 A 
HETATM   17  C   UNK     0      73.165  31.121  35.413  0.00  0.00     0.094 A 
HETATM   18  C   UNK     0      72.114  31.383  34.410  0.00  0.00     0.190 A 
HETATM   19  O   UNK     0      71.328  30.511  34.065  0.00  0.00    -0.287 OA
HETATM   20  C   UNK     0      71.113  33.097  32.901  0.00  0.00     0.085 A 
HETATM   21  C   UNK     0      71.097  34.397  32.392  0.00  0.00     0.074 A 
BRANCH  16  22
HETATM   22  C   UNK     0      75.080  31.902  36.753  0.00  0.00     0.001 A 
HETATM   23  C   UNK     0      75.888  32.972  37.144  0.00  0.00     0.053 A 
HETATM   24  C   UNK     0      76.903  32.776  38.081  0.00  0.00     0.099 A 
HETATM   25  C   UNK     0      77.113  31.511  38.628  0.00  0.00     0.098 A 
HETATM   26  C   UNK     0      76.306  30.441  38.241  0.00  0.00     0.040 A 
HETATM   27  C   UNK     0      75.292  30.635  37.304  0.00  0.00     0.017 A 
BRANCH  24  28
HETATM   28  O   UNK     0      77.686  33.829  38.451  0.00  0.00    -0.358 OA
HETATM   29  H   UNK     0      77.105  34.566  38.705  0.00  0.00     0.217 HD
ENDBRANCH  24  28
BRANCH  25  30
HETATM   30  O   UNK     0      78.100  31.308  39.545  0.00  0.00    -0.358 OA
HETATM   31  H   UNK     0      78.184  32.101  40.102  0.00  0.00     0.217 HD
ENDBRANCH  25  30
ENDBRANCH  16  22
BRANCH  20  32
HETATM   32  O   UNK     0      70.181  32.219  32.438  0.00  0.00    -0.360 OA
HETATM   33  H   UNK     0      69.315  32.648  32.364  0.00  0.00     0.217 HD
ENDBRANCH  20  32
ENDBRANCH  10  11
ENDBRANCH   6  10
BRANCH   3  34
HETATM   34  O   UNK     0      73.401  37.242  27.031  0.00  0.00    -0.390 OA
HETATM   35  H   UNK     0      74.201  37.701  26.721  0.00  0.00     0.210 HD
ENDBRANCH   3  34
BRANCH   4  36
HETATM   36  O   UNK     0      71.492  39.064  31.035  0.00  0.00    -0.388 OA
HETATM   37  H   UNK     0      71.195  39.602  30.281  0.00  0.00     0.210 HD
ENDBRANCH   4  36
BRANCH   2  38
HETATM   38  O   UNK     0      73.339  39.536  28.790  0.00  0.00    -0.390 OA
HETATM   39  H   UNK     0      72.849  40.250  29.235  0.00  0.00     0.210 HD
ENDBRANCH   2  38
TORSDOF 11
ENDMDL
MODEL 7
REMARK VINA RESULT:      -8.9     19.685     26.261
REMARK  11 active torsions:
REMARK  status: ('A' for Active; 'I' for Inactive)
REMARK    1  A    between atoms: O_2  and  C_16 
REMARK    2  A    between atoms: O_2  and  C_18 
REMARK    3  A    between atoms: O_3  and  C_12 
REMARK    4  A    between atoms: O_4  and  C_13 
REMARK    5  A    between atoms: O_5  and  C_14 
REMARK    6  A    between atoms: O_6  and  C_17 
REMARK    7  A    between atoms: O_8  and  C_23 
REMARK    8  A    between atoms: O_10  and  C_30 
REMARK    9  A    between atoms: O_11  and  C_32 
REMARK   10  A    between atoms: C_15  and  C_17 
REMARK   11  A    between atoms: C_25  and  C_27 
ROOT
HETATM    1  O   UNK     0      70.696   3.584   3.669  0.00  0.00    -0.348 OA
HETATM    2  C   UNK     0      68.836   1.686   2.578  0.00  0.00     0.183 C 
HETATM    3  C   UNK     0      69.867   2.414   1.715  0.00  0.00     0.180 C 
HETATM    4  C   UNK     0      68.556   2.454   3.870  0.00  0.00     0.205 C 
HETATM    5  C   UNK     0      71.095   2.799   2.544  0.00  0.00     0.179 C 
HETATM    6  C   UNK     0      69.853   2.864   4.567  0.00  0.00     0.298 C 
ENDROOT
BRANCH   5   7
HETATM    7  C   UNK     0      72.086   3.628   1.733  0.00  0.00     0.198 C 
BRANCH   7   8
HETATM    8  O   UNK     0      73.025   2.752   1.137  0.00  0.00    -0.398 OA
HETATM    9  H   UNK     0      72.981   1.904   1.612  0.00  0.00     0.209 HD
ENDBRANCH   7   8
ENDBRANCH   5   7
BRANCH   6  10
HETATM   10  O   UNK     0      69.514   3.692   5.678  0.00  0.00    -0.318 OA
BRANCH  10  11
HETATM   11  C   UNK     0      70.496   3.915   6.596  0.00  0.00     0.077 A 
HETATM   12  C   UNK     0      70.511   5.106   7.324  0.00  0.00     0.075 A 
HETATM   13  C   UNK     0      71.517   5.332   8.263  0.00  0.00     0.095 A 
HETATM   14  O   UNK     0      71.479   6.521   8.948  0.00  0.00    -0.309 OA
HETATM   15  C   UNK     0      72.505   4.371   8.471  0.00  0.00     0.081 A 
HETATM   16  C   UNK     0      72.463   6.770   9.892  0.00  0.00     0.090 A 
HETATM   17  C   UNK     0      73.468   5.928  10.177  0.00  0.00     0.094 A 
HETATM   18  C   UNK     0      73.555   4.636   9.466  0.00  0.00     0.190 A 
HETATM   19  O   UNK     0      74.453   3.839   9.697  0.00  0.00    -0.287 OA
HETATM   20  C   UNK     0      72.494   3.178   7.744  0.00  0.00     0.085 A 
HETATM   21  C   UNK     0      71.485   2.954   6.806  0.00  0.00     0.074 A 
BRANCH  16  22
HETATM   22  C   UNK     0      72.331   8.079  10.565  0.00  0.00     0.001 A 
HETATM   23  C   UNK     0      72.792   8.244  11.873  0.00  0.00     0.053 A 
HETATM   24  C   UNK     0      72.668   9.480  12.507  0.00  0.00     0.099 A 
HETATM   25  C   UNK     0      72.082  10.553  11.837  0.00  0.00     0.098 A 
HETATM   26  C   UNK     0      71.622  10.391  10.530  0.00  0.00     0.040 A 
HETATM   27  C   UNK     0      71.745   9.156   9.895  0.00  0.00     0.017 A 
BRANCH  24  28
HETATM   28  O   UNK     0      73.119   9.627  13.785  0.00  0.00    -0.358 OA
HETATM   29  H   UNK     0      73.013   8.777  14.246  0.00  0.00     0.217 HD
ENDBRANCH  24  28
BRANCH  25  30
HETATM   30  O   UNK     0      71.957  11.765  12.446  0.00  0.00    -0.358 OA
HETATM   31  H   UNK     0      71.877  12.455  11.765  0.00  0.00     0.217 HD
ENDBRANCH  25  30
ENDBRANCH  16  22
BRANCH  20  32
HETATM   32  O   UNK     0      73.436   2.209   7.911  0.00  0.00    -0.360 OA
HETATM   33  H   UNK     0      74.279   2.597   8.190  0.00  0.00     0.217 HD
ENDBRANCH  20  32
ENDBRANCH  10  11
ENDBRANCH   6  10
BRANCH   3  34
HETATM   34  O   UNK     0      70.270   1.563   0.644  0.00  0.00    -0.390 OA
HETATM   35  H   UNK     0      71.041   1.051   0.942  0.00  0.00     0.210 HD
ENDBRANCH   3  34
BRANCH   4  36
HETATM   36  O   UNK     0      67.812   1.624   4.762  0.00  0.00    -0.388 OA
HETATM   37  H   UNK     0      67.383   0.926   4.237  0.00  0.00     0.210 HD
ENDBRANCH   4  36
BRANCH   2  38
HETATM   38  O   UNK     0      67.630   1.570   1.823  0.00  0.00    -0.390 OA
HETATM   39  H   UNK     0      67.071   0.909   2.268  0.00  0.00     0.210 HD
ENDBRANCH   2  38
TORSDOF 11
ENDMDL
MODEL 8
REMARK VINA RESULT:      -8.8      4.700     11.391
REMARK  11 active torsions:
REMARK  status: ('A' for Active; 'I' for Inactive)
REMARK    1  A    between atoms: O_2  and  C_16 
REMARK    2  A    between atoms: O_2  and  C_18 
REMARK    3  A    between atoms: O_3  and  C_12 
REMARK    4  A    between atoms: O_4  and  C_13 
REMARK    5  A    between atoms: O_5  and  C_14 
REMARK    6  A    between atoms: O_6  and  C_17 
REMARK    7  A    between atoms: O_8  and  C_23 
REMARK    8  A    between atoms: O_10  and  C_30 
REMARK    9  A    between atoms: O_11  and  C_32 
REMARK   10  A    between atoms: C_15  and  C_17 
REMARK   11  A    between atoms: C_25  and  C_27 
ROOT
HETATM    1  O   UNK     0      70.003  18.053  22.618  0.00  0.00    -0.348 OA
HETATM    2  C   UNK     0      72.759  18.829  22.379  0.00  0.00     0.183 C 
HETATM    3  C   UNK     0      72.162  18.313  23.689  0.00  0.00     0.180 C 
HETATM    4  C   UNK     0      71.672  19.381  21.455  0.00  0.00     0.205 C 
HETATM    5  C   UNK     0      70.979  17.382  23.417  0.00  0.00     0.179 C 
HETATM    6  C   UNK     0      70.501  18.406  21.329  0.00  0.00     0.298 C 
ENDROOT
BRANCH   5   7
HETATM    7  C   UNK     0      70.294  16.948  24.710  0.00  0.00     0.198 C 
BRANCH   7   8
HETATM    8  O   UNK     0      70.906  15.755  25.165  0.00  0.00    -0.398 OA
HETATM    9  H   UNK     0      70.309  15.346  25.815  0.00  0.00     0.209 HD
ENDBRANCH   7   8
ENDBRANCH   5   7
BRANCH   6  10
HETATM   10  O   UNK     0      69.474  19.047  20.574  0.00  0.00    -0.318 OA
BRANCH  10  11
HETATM   11  C   UNK     0      68.236  18.479  20.622  0.00  0.00     0.077 A 
HETATM   12  C   UNK     0      67.228  19.072  21.385  0.00  0.00     0.075 A 
HETATM   13  C   UNK     0      65.962  18.489  21.433  0.00  0.00     0.095 A 
HETATM   14  O   UNK     0      65.013  19.117  22.200  0.00  0.00    -0.309 OA
HETATM   15  C   UNK     0      65.706  17.318  20.722  0.00  0.00     0.081 A 
HETATM   16  C   UNK     0      63.743  18.563  22.262  0.00  0.00     0.090 A 
HETATM   17  C   UNK     0      63.377  17.438  21.628  0.00  0.00     0.094 A 
HETATM   18  C   UNK     0      64.363  16.724  20.792  0.00  0.00     0.190 A 
HETATM   19  O   UNK     0      64.070  15.697  20.196  0.00  0.00    -0.287 OA
HETATM   20  C   UNK     0      66.712  16.722  19.957  0.00  0.00     0.085 A 
HETATM   21  C   UNK     0      67.978  17.308  19.910  0.00  0.00     0.074 A 
BRANCH  16  22
HETATM   22  C   UNK     0      62.803  19.315  23.119  0.00  0.00     0.001 A 
HETATM   23  C   UNK     0      63.130  20.599  23.560  0.00  0.00     0.053 A 
HETATM   24  C   UNK     0      62.240  21.309  24.368  0.00  0.00     0.099 A 
HETATM   25  C   UNK     0      61.024  20.737  24.737  0.00  0.00     0.098 A 
HETATM   26  C   UNK     0      60.694  19.454  24.296  0.00  0.00     0.040 A 
HETATM   27  C   UNK     0      61.582  18.744  23.489  0.00  0.00     0.017 A 
BRANCH  24  28
HETATM   28  O   UNK     0      62.574  22.560  24.793  0.00  0.00    -0.358 OA
HETATM   29  H   UNK     0      63.537  22.593  24.921  0.00  0.00     0.217 HD
ENDBRANCH  24  28
BRANCH  25  30
HETATM   30  O   UNK     0      60.147  21.420  25.524  0.00  0.00    -0.358 OA
HETATM   31  H   UNK     0      59.910  20.868  26.288  0.00  0.00     0.217 HD
ENDBRANCH  25  30
ENDBRANCH  16  22
BRANCH  20  32
HETATM   32  O   UNK     0      66.512  15.579  19.245  0.00  0.00    -0.360 OA
HETATM   33  H   UNK     0      67.166  14.906  19.487  0.00  0.00     0.217 HD
ENDBRANCH  20  32
ENDBRANCH  10  11
ENDBRANCH   6  10
BRANCH   3  34
HETATM   34  O   UNK     0      73.163  17.604  24.416  0.00  0.00    -0.390 OA
HETATM   35  H   UNK     0      72.884  16.675  24.481  0.00  0.00     0.210 HD
ENDBRANCH   3  34
BRANCH   4  36
HETATM   36  O   UNK     0      72.220  19.593  20.155  0.00  0.00    -0.388 OA
HETATM   37  H   UNK     0      71.842  18.927  19.556  0.00  0.00     0.210 HD
ENDBRANCH   4  36
BRANCH   2  38
HETATM   38  O   UNK     0      73.688  19.867  22.694  0.00  0.00    -0.390 OA
HETATM   39  H   UNK     0      74.526  19.651  22.250  0.00  0.00     0.210 HD
ENDBRANCH   2  38
TORSDOF 11
ENDMDL
MODEL 9
REMARK VINA RESULT:      -8.6     21.090     24.478
REMARK  11 active torsions:
REMARK  status: ('A' for Active; 'I' for Inactive)
REMARK    1  A    between atoms: O_2  and  C_16 
REMARK    2  A    between atoms: O_2  and  C_18 
REMARK    3  A    between atoms: O_3  and  C_12 
REMARK    4  A    between atoms: O_4  and  C_13 
REMARK    5  A    between atoms: O_5  and  C_14 
REMARK    6  A    between atoms: O_6  and  C_17 
REMARK    7  A    between atoms: O_8  and  C_23 
REMARK    8  A    between atoms: O_10  and  C_30 
REMARK    9  A    between atoms: O_11  and  C_32 
REMARK   10  A    between atoms: C_15  and  C_17 
REMARK   11  A    between atoms: C_25  and  C_27 
ROOT
HETATM    1  O   UNK     0      76.844  32.368  36.777  0.00  0.00    -0.348 OA
HETATM    2  C   UNK     0      76.431  29.827  38.052  0.00  0.00     0.183 C 
HETATM    3  C   UNK     0      77.425  30.861  38.583  0.00  0.00     0.180 C 
HETATM    4  C   UNK     0      76.139  30.053  36.568  0.00  0.00     0.205 C 
HETATM    5  C   UNK     0      76.996  32.277  38.194  0.00  0.00     0.179 C 
HETATM    6  C   UNK     0      75.810  31.518  36.282  0.00  0.00     0.298 C 
ENDROOT
BRANCH   5   7
HETATM    7  C   UNK     0      78.033  33.315  38.613  0.00  0.00     0.198 C 
BRANCH   7   8
HETATM    8  O   UNK     0      78.708  33.769  37.454  0.00  0.00    -0.398 OA
HETATM    9  H   UNK     0      79.082  32.991  37.006  0.00  0.00     0.209 HD
ENDBRANCH   7   8
ENDBRANCH   5   7
BRANCH   6  10
HETATM   10  O   UNK     0      75.691  31.676  34.869  0.00  0.00    -0.318 OA
BRANCH  10  11
HETATM   11  C   UNK     0      74.657  32.445  34.425  0.00  0.00     0.077 A 
HETATM   12  C   UNK     0      74.910  33.710  33.892  0.00  0.00     0.075 A 
HETATM   13  C   UNK     0      73.851  34.495  33.438  0.00  0.00     0.095 A 
HETATM   14  O   UNK     0      74.160  35.729  32.925  0.00  0.00    -0.309 OA
HETATM   15  C   UNK     0      72.543  34.016  33.518  0.00  0.00     0.081 A 
HETATM   16  C   UNK     0      73.128  36.529  32.461  0.00  0.00     0.090 A 
HETATM   17  C   UNK     0      71.832  36.183  32.490  0.00  0.00     0.094 A 
HETATM   18  C   UNK     0      71.445  34.866  33.034  0.00  0.00     0.190 A 
HETATM   19  O   UNK     0      70.276  34.510  33.078  0.00  0.00    -0.287 OA
HETATM   20  C   UNK     0      72.287  32.750  34.052  0.00  0.00     0.085 A 
HETATM   21  C   UNK     0      73.349  31.967  34.504  0.00  0.00     0.074 A 
BRANCH  16  22
HETATM   22  C   UNK     0      73.572  37.837  31.935  0.00  0.00     0.001 A 
HETATM   23  C   UNK     0      74.378  37.897  30.796  0.00  0.00     0.053 A 
HETATM   24  C   UNK     0      74.796  39.133  30.299  0.00  0.00     0.099 A 
HETATM   25  C   UNK     0      74.411  40.309  30.941  0.00  0.00     0.098 A 
HETATM   26  C   UNK     0      73.605  40.251  32.078  0.00  0.00     0.040 A 
HETATM   27  C   UNK     0      73.186  39.018  32.575  0.00  0.00     0.017 A 
BRANCH  24  28
HETATM   28  O   UNK     0      75.584  39.176  29.189  0.00  0.00    -0.358 OA
HETATM   29  H   UNK     0      76.508  39.281  29.474  0.00  0.00     0.217 HD
ENDBRANCH  24  28
BRANCH  25  30
HETATM   30  O   UNK     0      74.811  41.520  30.465  0.00  0.00    -0.358 OA
HETATM   31  H   UNK     0      74.449  41.646  29.571  0.00  0.00     0.217 HD
ENDBRANCH  25  30
ENDBRANCH  16  22
BRANCH  20  32
HETATM   32  O   UNK     0      71.029  32.239  34.151  0.00  0.00    -0.360 OA
HETATM   33  H   UNK     0      70.383  32.946  34.301  0.00  0.00     0.217 HD
ENDBRANCH  20  32
ENDBRANCH  10  11
ENDBRANCH   6  10
BRANCH   3  34
HETATM   34  O   UNK     0      77.493  30.762  40.004  0.00  0.00    -0.390 OA
HETATM   35  H   UNK     0      76.585  30.676  40.342  0.00  0.00     0.210 HD
ENDBRANCH   3  34
BRANCH   4  36
HETATM   36  O   UNK     0      75.018  29.259  36.180  0.00  0.00    -0.388 OA
HETATM   37  H   UNK     0      74.561  28.968  36.988  0.00  0.00     0.210 HD
ENDBRANCH   4  36
BRANCH   2  38
HETATM   38  O   UNK     0      77.002  28.530  38.232  0.00  0.00    -0.390 OA
HETATM   39  H   UNK     0      77.776  28.631  38.812  0.00  0.00     0.210 HD
ENDBRANCH   2  38
TORSDOF 11
ENDMDL
