MODEL 1
REMARK VINA RESULT:   -11.294      0.000      0.000
REMARK INTER + INTRA:         -30.117
REMARK INTER:                 -28.799
REMARK INTRA:                  -1.318
REMARK UNBOUND:                 0.655
REMARK WARNING: 32 MAX_TORS EXCEEDED!!!
REMARK  43 active torsions:
REMARK  status: ('A' for Active; 'I' for Inactive)
REMARK    1  A    between atoms: O_2  and  C_27 
REMARK    2  A    between atoms: O_2  and  C_33 
REMARK    3  A    between atoms: O_3  and  C_28 
REMARK    4  A    between atoms: O_3  and  C_34 
REMARK    5  A    between atoms: O_4  and  C_29 
REMARK    6  A    between atoms: O_4  and  C_35 
REMARK    7  A    between atoms: O_5  and  C_31 
REMARK    8  A    between atoms: O_5  and  C_36 
REMARK    9  A    between atoms: O_6  and  C_32 
REMARK   10  A    between atoms: O_6  and  C_39 
REMARK   11  A    between atoms: O_12  and  C_51 
REMARK   12  A    between atoms: O_13  and  C_52 
REMARK   13  A    between atoms: O_13  and  C_99 
REMARK   14  A    between atoms: O_14  and  C_53 
REMARK   15  A    between atoms: O_15  and  C_54 
REMARK   16  A    between atoms: O_16  and  C_55 
REMARK   17  A    between atoms: O_17  and  C_56 
REMARK   18  A    between atoms: O_18  and  C_59 
REMARK   19  A    between atoms: O_19  and  C_60 
REMARK   20  A    between atoms: O_20  and  C_61 
REMARK   21  A    between atoms: O_21  and  C_62 
REMARK   22  A    between atoms: O_22  and  C_63 
REMARK   23  A    between atoms: O_23  and  C_64 
REMARK   24  A    between atoms: O_24  and  C_65 
REMARK   25  A    between atoms: O_24  and  C_85 
REMARK   26  A    between atoms: O_25  and  C_66 
REMARK   27  A    between atoms: O_26  and  C_67 
REMARK   28  A    between atoms: C_28  and  C_30 
REMARK   29  A    between atoms: C_29  and  C_31 
REMARK   30  A    between atoms: C_30  and  C_32 
REMARK   31  A    between atoms: C_33  and  C_37 
REMARK   32  A    between atoms: C_34  and  C_38 
REMARK   33  A    between atoms: C_35  and  C_40 
REMARK   34  A    between atoms: C_36  and  C_41 
REMARK   35  A    between atoms: C_39  and  C_42 
REMARK   36  A    between atoms: O_82  and  C_89 
REMARK   37  A    between atoms: O_83  and  C_90 
REMARK   38  A    between atoms: O_84  and  C_91 
REMARK   39  A    between atoms: C_85  and  C_86 
REMARK   40  A    between atoms: O_96  and  C_103 
REMARK   41  A    between atoms: O_97  and  C_104 
REMARK   42  A    between atoms: O_98  and  C_105 
REMARK   43  A    between atoms: C_99  and  C_100 
ROOT
HETATM    1  O   UNL     1      81.427  22.375  37.271  1.00  0.00    -0.348 OA
HETATM    2  C   UNL     1      80.118  22.670  37.028  1.00  0.00     0.201 A 
HETATM    3  C   UNL     1      81.179  23.520  36.589  1.00  0.00     0.282 A 
ENDROOT
BRANCH   2   4
HETATM    4  C   UNL     1      79.759  23.311  37.402  1.00  0.00     0.199 A 
HETATM    5  C   UNL     1      78.413  22.804  38.135  1.00  0.00     0.198 A 
HETATM    6  C   UNL     1      79.781  22.600  38.642  1.00  0.00     0.215 A 
BRANCH   4   7
HETATM    7  O   UNL     1      78.669  23.633  36.090  1.00  0.00    -0.306 OA
BRANCH   7   8
HETATM    8  C   UNL     1      78.061  24.538  35.338  1.00  0.00     0.294 C 
HETATM    9  O   UNL     1      77.277  25.362  35.795  1.00  0.00    -0.259 OA
BRANCH   8  10
HETATM   10  C   UNL     1      78.431  24.639  33.937  1.00  0.00     0.045 A 
HETATM   11  C   UNL     1      77.396  24.837  33.015  1.00  0.00     0.057 A 
HETATM   12  C   UNL     1      77.696  25.399  31.787  1.00  0.00     0.102 A 
HETATM   13  C   UNL     1      79.014  25.717  31.481  1.00  0.00     0.132 A 
HETATM   14  C   UNL     1      80.045  25.395  32.359  1.00  0.00     0.102 A 
HETATM   15  C   UNL     1      79.765  24.875  33.610  1.00  0.00     0.057 A 
BRANCH  12  16
HETATM   16  O   UNL     1      76.723  25.702  30.879  1.00  0.00    -0.358 OA
HETATM   17  H   UNL     1      76.051  26.237  31.343  1.00  0.00     0.217 HD
ENDBRANCH  12  16
BRANCH  13  18
HETATM   18  O   UNL     1      79.316  26.410  30.341  1.00  0.00    -0.356 OA
HETATM   19  H   UNL     1      78.678  27.154  30.347  1.00  0.00     0.218 HD
ENDBRANCH  13  18
BRANCH  14  20
HETATM   20  O   UNL     1      81.338  25.648  32.002  1.00  0.00    -0.358 OA
HETATM   21  H   UNL     1      81.302  26.547  31.618  1.00  0.00     0.217 HD
ENDBRANCH  14  20
ENDBRANCH   8  10
ENDBRANCH   7   8
ENDBRANCH   4   7
BRANCH   5  22
HETATM   22  O   UNL     1      77.687  23.858  38.817  1.00  0.00    -0.306 OA
BRANCH  22  23
HETATM   23  C   UNL     1      76.343  23.747  38.827  1.00  0.00     0.294 C 
HETATM   24  O   UNL     1      75.565  23.016  38.227  1.00  0.00    -0.259 OA
BRANCH  23  25
HETATM   25  C   UNL     1      75.817  24.708  39.709  1.00  0.00     0.045 C 
HETATM   26  C   UNL     1      75.849  25.938  39.103  1.00  0.00     0.058 C 
HETATM   27  C   UNL     1      76.391  26.915  39.875  1.00  0.00     0.116 C 
HETATM   28  C   UNL     1      76.401  26.784  41.276  1.00  0.00     0.133 C 
HETATM   29  C   UNL     1      76.149  25.544  41.861  1.00  0.00     0.102 C 
HETATM   30  C   UNL     1      76.005  24.455  41.058  1.00  0.00     0.057 C 
BRANCH  27  31
HETATM   31  O   UNL     1      77.106  27.947  39.249  1.00  0.00    -0.272 OA
BRANCH  31  32
HETATM   32  C   UNL     1      78.251  27.660  38.474  1.00  0.00     0.298 C 
HETATM   33  O   UNL     1      78.920  26.672  38.352  1.00  0.00    -0.259 OA
BRANCH  32  34
HETATM   34  C   UNL     1      78.213  28.808  37.566  1.00  0.00     0.045 C 
HETATM   35  C   UNL     1      77.034  29.548  37.490  1.00  0.00     0.057 C 
HETATM   36  C   UNL     1      76.668  29.986  36.231  1.00  0.00     0.102 C 
HETATM   37  C   UNL     1      77.373  29.560  35.106  1.00  0.00     0.132 C 
HETATM   38  C   UNL     1      78.561  28.860  35.237  1.00  0.00     0.102 C 
HETATM   39  C   UNL     1      79.085  28.626  36.482  1.00  0.00     0.057 C 
BRANCH  36  40
HETATM   40  O   UNL     1      75.548  30.737  36.036  1.00  0.00    -0.358 OA
HETATM   41  H   UNL     1      75.058  30.303  35.312  1.00  0.00     0.217 HD
ENDBRANCH  36  40
BRANCH  37  42
HETATM   42  O   UNL     1      76.864  29.754  33.855  1.00  0.00    -0.356 OA
HETATM   43  H   UNL     1      76.040  30.262  34.007  1.00  0.00     0.218 HD
ENDBRANCH  37  42
BRANCH  38  44
HETATM   44  O   UNL     1      79.116  28.207  34.179  1.00  0.00    -0.358 OA
HETATM   45  H   UNL     1      78.835  28.712  33.391  1.00  0.00     0.217 HD
ENDBRANCH  38  44
ENDBRANCH  32  34
ENDBRANCH  31  32
ENDBRANCH  27  31
BRANCH  28  46
HETATM   46  O   UNL     1      76.666  27.833  42.105  1.00  0.00    -0.356 OA
HETATM   47  H   UNL     1      77.540  28.179  41.850  1.00  0.00     0.218 HD
ENDBRANCH  28  46
BRANCH  29  48
HETATM   48  O   UNL     1      76.111  25.340  43.202  1.00  0.00    -0.358 OA
HETATM   49  H   UNL     1      75.547  24.557  43.321  1.00  0.00     0.217 HD
ENDBRANCH  29  48
ENDBRANCH  23  25
ENDBRANCH  22  23
ENDBRANCH   5  22
BRANCH   6  50
HETATM   50  O   UNL     1      79.638  22.148  40.226  1.00  0.00    -0.304 OA
BRANCH  50  51
HETATM   51  C   UNL     1      79.867  22.886  41.349  1.00  0.00     0.294 C 
HETATM   52  O   UNL     1      79.592  24.043  41.595  1.00  0.00    -0.259 OA
BRANCH  51  53
HETATM   53  C   UNL     1      80.561  21.978  42.260  1.00  0.00     0.045 A 
HETATM   54  C   UNL     1      80.608  22.373  43.598  1.00  0.00     0.057 A 
HETATM   55  C   UNL     1      81.274  21.585  44.509  1.00  0.00     0.102 A 
HETATM   56  C   UNL     1      81.851  20.393  44.102  1.00  0.00     0.132 A 
HETATM   57  C   UNL     1      81.764  19.981  42.774  1.00  0.00     0.102 A 
HETATM   58  C   UNL     1      81.131  20.777  41.826  1.00  0.00     0.057 A 
BRANCH  55  59
HETATM   59  O   UNL     1      81.316  21.982  45.809  1.00  0.00    -0.358 OA
HETATM   60  H   UNL     1      81.163  21.165  46.324  1.00  0.00     0.217 HD
ENDBRANCH  55  59
BRANCH  56  61
HETATM   61  O   UNL     1      82.455  19.597  45.036  1.00  0.00    -0.356 OA
HETATM   62  H   UNL     1      82.175  19.983  45.891  1.00  0.00     0.218 HD
ENDBRANCH  56  61
BRANCH  57  63
HETATM   63  O   UNL     1      82.274  18.752  42.463  1.00  0.00    -0.358 OA
HETATM   64  H   UNL     1      81.667  18.341  41.818  1.00  0.00     0.217 HD
ENDBRANCH  57  63
ENDBRANCH  51  53
ENDBRANCH  50  51
ENDBRANCH   6  50
ENDBRANCH   2   4
BRANCH   2  65
HETATM   65  C   UNL     1      78.911  21.905  36.204  1.00  0.00     0.216 C 
BRANCH  65  66
HETATM   66  O   UNL     1      79.570  20.983  35.339  1.00  0.00    -0.315 OA
BRANCH  66  67
HETATM   67  C   UNL     1      78.845  20.679  34.256  1.00  0.00     0.293 C 
HETATM   68  O   UNL     1      77.875  19.947  34.222  1.00  0.00    -0.259 OA
BRANCH  67  69
HETATM   69  C   UNL     1      79.494  21.325  33.106  1.00  0.00     0.045 C 
HETATM   70  C   UNL     1      80.848  21.709  33.111  1.00  0.00     0.057 C 
HETATM   71  C   UNL     1      81.413  22.229  31.959  1.00  0.00     0.102 C 
HETATM   72  C   UNL     1      80.698  22.211  30.774  1.00  0.00     0.133 C 
HETATM   73  C   UNL     1      79.398  21.700  30.771  1.00  0.00     0.116 C 
HETATM   74  C   UNL     1      78.731  21.412  31.953  1.00  0.00     0.058 C 
BRANCH  71  75
HETATM   75  O   UNL     1      82.710  22.659  31.965  1.00  0.00    -0.358 OA
HETATM   76  H   UNL     1      82.709  23.438  31.372  1.00  0.00     0.217 HD
ENDBRANCH  71  75
BRANCH  72  77
HETATM   77  O   UNL     1      81.351  22.596  29.638  1.00  0.00    -0.356 OA
HETATM   78  H   UNL     1      82.272  22.275  29.702  1.00  0.00     0.218 HD
ENDBRANCH  72  77
BRANCH  73  79
HETATM   79  O   UNL     1      78.818  21.203  29.607  1.00  0.00    -0.272 OA
BRANCH  79  80
HETATM   80  C   UNL     1      78.670  19.842  29.831  1.00  0.00     0.298 C 
HETATM   81  O   UNL     1      77.589  19.324  30.064  1.00  0.00    -0.259 OA
BRANCH  80  82
HETATM   82  C   UNL     1      79.938  19.057  29.781  1.00  0.00     0.045 A 
HETATM   83  C   UNL     1      80.676  19.042  28.588  1.00  0.00     0.057 A 
HETATM   84  C   UNL     1      81.837  18.280  28.508  1.00  0.00     0.102 A 
HETATM   85  C   UNL     1      82.254  17.521  29.593  1.00  0.00     0.132 A 
HETATM   86  C   UNL     1      81.515  17.534  30.773  1.00  0.00     0.102 A 
HETATM   87  C   UNL     1      80.365  18.316  30.891  1.00  0.00     0.057 A 
BRANCH  84  88
HETATM   88  O   UNL     1      82.520  18.296  27.334  1.00  0.00    -0.358 OA
HETATM   89  H   UNL     1      81.896  18.174  26.586  1.00  0.00     0.217 HD
ENDBRANCH  84  88
BRANCH  85  90
HETATM   90  O   UNL     1      83.380  16.752  29.495  1.00  0.00    -0.356 OA
HETATM   91  H   UNL     1      83.377  16.171  30.282  1.00  0.00     0.218 HD
ENDBRANCH  85  90
BRANCH  86  92
HETATM   92  O   UNL     1      81.949  16.731  31.791  1.00  0.00    -0.358 OA
HETATM   93  H   UNL     1      82.861  16.457  31.586  1.00  0.00     0.217 HD
ENDBRANCH  86  92
ENDBRANCH  80  82
ENDBRANCH  79  80
ENDBRANCH  73  79
ENDBRANCH  67  69
ENDBRANCH  66  67
ENDBRANCH  65  66
ENDBRANCH   2  65
BRANCH   3  94
HETATM   94  O   UNL     1      82.467  23.495  35.777  1.00  0.00    -0.285 OA
BRANCH  94  95
HETATM   95  C   UNL     1      83.103  24.679  35.561  1.00  0.00     0.295 C 
HETATM   96  O   UNL     1      83.108  25.346  34.541  1.00  0.00    -0.259 OA
BRANCH  95  97
HETATM   97  C   UNL     1      83.815  25.043  36.778  1.00  0.00     0.045 A 
HETATM   98  C   UNL     1      84.879  24.248  37.211  1.00  0.00     0.057 A 
HETATM   99  C   UNL     1      85.613  24.668  38.302  1.00  0.00     0.102 A 
HETATM  100  C   UNL     1      85.251  25.825  38.982  1.00  0.00     0.132 A 
HETATM  101  C   UNL     1      84.152  26.579  38.575  1.00  0.00     0.102 A 
HETATM  102  C   UNL     1      83.424  26.197  37.460  1.00  0.00     0.057 A 
BRANCH  99 103
HETATM  103  O   UNL     1      86.711  23.954  38.680  1.00  0.00    -0.358 OA
HETATM  104  H   UNL     1      86.336  23.158  39.110  1.00  0.00     0.217 HD
ENDBRANCH  99 103
BRANCH 100 105
HETATM  105  O   UNL     1      85.997  26.216  40.060  1.00  0.00    -0.356 OA
HETATM  106  H   UNL     1      85.433  25.992  40.829  1.00  0.00     0.218 HD
ENDBRANCH 100 105
BRANCH 101 107
HETATM  107  O   UNL     1      83.835  27.699  39.287  1.00  0.00    -0.358 OA
HETATM  108  H   UNL     1      83.132  27.462  39.919  1.00  0.00     0.217 HD
ENDBRANCH 101 107
ENDBRANCH  95  97
ENDBRANCH  94  95
ENDBRANCH   3  94
TORSDOF 43
ENDMDL
MODEL 2
REMARK VINA RESULT:   -11.282      2.672      4.749
REMARK INTER + INTRA:         -30.083
REMARK INTER:                 -30.342
REMARK INTRA:                   0.259
REMARK UNBOUND:                 0.655
REMARK WARNING: 32 MAX_TORS EXCEEDED!!!
REMARK  43 active torsions:
REMARK  status: ('A' for Active; 'I' for Inactive)
REMARK    1  A    between atoms: O_2  and  C_27 
REMARK    2  A    between atoms: O_2  and  C_33 
REMARK    3  A    between atoms: O_3  and  C_28 
REMARK    4  A    between atoms: O_3  and  C_34 
REMARK    5  A    between atoms: O_4  and  C_29 
REMARK    6  A    between atoms: O_4  and  C_35 
REMARK    7  A    between atoms: O_5  and  C_31 
REMARK    8  A    between atoms: O_5  and  C_36 
REMARK    9  A    between atoms: O_6  and  C_32 
REMARK   10  A    between atoms: O_6  and  C_39 
REMARK   11  A    between atoms: O_12  and  C_51 
REMARK   12  A    between atoms: O_13  and  C_52 
REMARK   13  A    between atoms: O_13  and  C_99 
REMARK   14  A    between atoms: O_14  and  C_53 
REMARK   15  A    between atoms: O_15  and  C_54 
REMARK   16  A    between atoms: O_16  and  C_55 
REMARK   17  A    between atoms: O_17  and  C_56 
REMARK   18  A    between atoms: O_18  and  C_59 
REMARK   19  A    between atoms: O_19  and  C_60 
REMARK   20  A    between atoms: O_20  and  C_61 
REMARK   21  A    between atoms: O_21  and  C_62 
REMARK   22  A    between atoms: O_22  and  C_63 
REMARK   23  A    between atoms: O_23  and  C_64 
REMARK   24  A    between atoms: O_24  and  C_65 
REMARK   25  A    between atoms: O_24  and  C_85 
REMARK   26  A    between atoms: O_25  and  C_66 
REMARK   27  A    between atoms: O_26  and  C_67 
REMARK   28  A    between atoms: C_28  and  C_30 
REMARK   29  A    between atoms: C_29  and  C_31 
REMARK   30  A    between atoms: C_30  and  C_32 
REMARK   31  A    between atoms: C_33  and  C_37 
REMARK   32  A    between atoms: C_34  and  C_38 
REMARK   33  A    between atoms: C_35  and  C_40 
REMARK   34  A    between atoms: C_36  and  C_41 
REMARK   35  A    between atoms: C_39  and  C_42 
REMARK   36  A    between atoms: O_82  and  C_89 
REMARK   37  A    between atoms: O_83  and  C_90 
REMARK   38  A    between atoms: O_84  and  C_91 
REMARK   39  A    between atoms: C_85  and  C_86 
REMARK   40  A    between atoms: O_96  and  C_103 
REMARK   41  A    between atoms: O_97  and  C_104 
REMARK   42  A    between atoms: O_98  and  C_105 
REMARK   43  A    between atoms: C_99  and  C_100 
ROOT
HETATM    1  O   UNL     1      81.557  22.153  36.887  1.00  0.00    -0.348 OA
HETATM    2  C   UNL     1      80.678  22.920  37.593  1.00  0.00     0.201 A 
HETATM    3  C   UNL     1      81.848  23.473  36.986  1.00  0.00     0.282 A 
ENDROOT
BRANCH   2   4
HETATM    4  C   UNL     1      80.899  23.247  38.317  1.00  0.00     0.199 A 
HETATM    5  C   UNL     1      79.668  23.108  39.353  1.00  0.00     0.198 A 
HETATM    6  C   UNL     1      80.580  22.016  38.970  1.00  0.00     0.215 A 
BRANCH   4   7
HETATM    7  O   UNL     1      80.172  24.789  37.991  1.00  0.00    -0.306 OA
BRANCH   7   8
HETATM    8  C   UNL     1      80.175  26.095  38.209  1.00  0.00     0.294 C 
HETATM    9  O   UNL     1      80.756  26.607  39.159  1.00  0.00    -0.259 OA
BRANCH   8  10
HETATM   10  C   UNL     1      79.571  26.967  37.217  1.00  0.00     0.045 A 
HETATM   11  C   UNL     1      79.252  28.270  37.620  1.00  0.00     0.057 A 
HETATM   12  C   UNL     1      79.133  29.254  36.655  1.00  0.00     0.102 A 
HETATM   13  C   UNL     1      79.291  28.925  35.314  1.00  0.00     0.132 A 
HETATM   14  C   UNL     1      79.480  27.603  34.925  1.00  0.00     0.102 A 
HETATM   15  C   UNL     1      79.648  26.609  35.873  1.00  0.00     0.057 A 
BRANCH  12  16
HETATM   16  O   UNL     1      78.914  30.561  36.987  1.00  0.00    -0.358 OA
HETATM   17  H   UNL     1      77.982  30.760  36.777  1.00  0.00     0.217 HD
ENDBRANCH  12  16
BRANCH  13  18
HETATM   18  O   UNL     1      79.328  29.903  34.358  1.00  0.00    -0.356 OA
HETATM   19  H   UNL     1      79.040  29.441  33.544  1.00  0.00     0.218 HD
ENDBRANCH  13  18
BRANCH  14  20
HETATM   20  O   UNL     1      79.556  27.296  33.597  1.00  0.00    -0.358 OA
HETATM   21  H   UNL     1      78.639  27.050  33.362  1.00  0.00     0.217 HD
ENDBRANCH  14  20
ENDBRANCH   8  10
ENDBRANCH   7   8
ENDBRANCH   4   7
BRANCH   5  22
HETATM   22  O   UNL     1      79.941  23.666  40.663  1.00  0.00    -0.306 OA
BRANCH  22  23
HETATM   23  C   UNL     1      78.866  24.014  41.398  1.00  0.00     0.294 C 
HETATM   24  O   UNL     1      77.762  24.456  41.101  1.00  0.00    -0.259 OA
BRANCH  23  25
HETATM   25  C   UNL     1      79.166  23.818  42.758  1.00  0.00     0.045 C 
HETATM   26  C   UNL     1      79.294  25.038  43.370  1.00  0.00     0.058 C 
HETATM   27  C   UNL     1      80.419  25.160  44.121  1.00  0.00     0.116 C 
HETATM   28  C   UNL     1      81.059  24.013  44.626  1.00  0.00     0.133 C 
HETATM   29  C   UNL     1      80.739  22.756  44.116  1.00  0.00     0.102 C 
HETATM   30  C   UNL     1      79.888  22.674  43.057  1.00  0.00     0.057 C 
BRANCH  27  31
HETATM   31  O   UNL     1      81.031  26.419  44.213  1.00  0.00    -0.272 OA
BRANCH  31  32
HETATM   32  C   UNL     1      80.330  27.524  44.742  1.00  0.00     0.298 C 
HETATM   33  O   UNL     1      79.186  27.676  45.067  1.00  0.00    -0.259 OA
BRANCH  32  34
HETATM   34  C   UNL     1      81.466  28.361  45.129  1.00  0.00     0.045 C 
HETATM   35  C   UNL     1      81.246  29.725  45.315  1.00  0.00     0.057 C 
HETATM   36  C   UNL     1      82.237  30.572  44.856  1.00  0.00     0.102 C 
HETATM   37  C   UNL     1      83.306  30.068  44.114  1.00  0.00     0.132 C 
HETATM   38  C   UNL     1      83.501  28.703  43.993  1.00  0.00     0.102 C 
HETATM   39  C   UNL     1      82.674  27.830  44.650  1.00  0.00     0.057 C 
BRANCH  36  40
HETATM   40  O   UNL     1      82.143  31.924  45.002  1.00  0.00    -0.358 OA
HETATM   41  H   UNL     1      82.732  32.153  45.746  1.00  0.00     0.217 HD
ENDBRANCH  36  40
BRANCH  37  42
HETATM   42  O   UNL     1      84.130  30.910  43.427  1.00  0.00    -0.356 OA
HETATM   43  H   UNL     1      83.683  31.035  42.565  1.00  0.00     0.218 HD
ENDBRANCH  37  42
BRANCH  38  44
HETATM   44  O   UNL     1      84.360  28.192  43.067  1.00  0.00    -0.358 OA
HETATM   45  H   UNL     1      84.808  28.969  42.679  1.00  0.00     0.217 HD
ENDBRANCH  38  44
ENDBRANCH  32  34
ENDBRANCH  31  32
ENDBRANCH  27  31
BRANCH  28  46
HETATM   46  O   UNL     1      82.008  24.077  45.601  1.00  0.00    -0.356 OA
HETATM   47  H   UNL     1      81.939  24.962  46.003  1.00  0.00     0.218 HD
ENDBRANCH  28  46
BRANCH  29  48
HETATM   48  O   UNL     1      81.287  21.600  44.567  1.00  0.00    -0.358 OA
HETATM   49  H   UNL     1      80.672  20.903  44.284  1.00  0.00     0.217 HD
ENDBRANCH  29  48
ENDBRANCH  23  25
ENDBRANCH  22  23
ENDBRANCH   5  22
BRANCH   6  50
HETATM   50  O   UNL     1      80.359  20.804  40.073  1.00  0.00    -0.304 OA
BRANCH  50  51
HETATM   51  C   UNL     1      79.525  19.728  40.004  1.00  0.00     0.294 C 
HETATM   52  O   UNL     1      78.535  19.547  39.324  1.00  0.00    -0.259 OA
BRANCH  51  53
HETATM   53  C   UNL     1      80.066  18.771  40.967  1.00  0.00     0.045 A 
HETATM   54  C   UNL     1      80.893  19.302  41.958  1.00  0.00     0.057 A 
HETATM   55  C   UNL     1      81.466  18.457  42.881  1.00  0.00     0.102 A 
HETATM   56  C   UNL     1      81.185  17.101  42.845  1.00  0.00     0.132 A 
HETATM   57  C   UNL     1      80.324  16.581  41.881  1.00  0.00     0.102 A 
HETATM   58  C   UNL     1      79.762  17.406  40.914  1.00  0.00     0.057 A 
BRANCH  55  59
HETATM   59  O   UNL     1      82.273  18.985  43.839  1.00  0.00    -0.358 OA
HETATM   60  H   UNL     1      81.719  19.015  44.643  1.00  0.00     0.217 HD
ENDBRANCH  55  59
BRANCH  56  61
HETATM   61  O   UNL     1      81.717  16.289  43.808  1.00  0.00    -0.356 OA
HETATM   62  H   UNL     1      81.845  15.433  43.352  1.00  0.00     0.218 HD
ENDBRANCH  56  61
BRANCH  57  63
HETATM   63  O   UNL     1      80.019  15.251  41.963  1.00  0.00    -0.358 OA
HETATM   64  H   UNL     1      80.617  14.778  41.355  1.00  0.00     0.217 HD
ENDBRANCH  57  63
ENDBRANCH  51  53
ENDBRANCH  50  51
ENDBRANCH   6  50
ENDBRANCH   2   4
BRANCH   2  65
HETATM   65  C   UNL     1      79.077  23.275  37.416  1.00  0.00     0.216 C 
BRANCH  65  66
HETATM   66  O   UNL     1      78.661  22.574  36.246  1.00  0.00    -0.315 OA
BRANCH  66  67
HETATM   67  C   UNL     1      78.295  23.393  35.254  1.00  0.00     0.293 C 
HETATM   68  O   UNL     1      77.377  24.189  35.279  1.00  0.00    -0.259 OA
BRANCH  67  69
HETATM   69  C   UNL     1      79.155  23.087  34.101  1.00  0.00     0.045 C 
HETATM   70  C   UNL     1      80.073  24.013  33.569  1.00  0.00     0.057 C 
HETATM   71  C   UNL     1      80.914  23.624  32.540  1.00  0.00     0.102 C 
HETATM   72  C   UNL     1      80.965  22.293  32.160  1.00  0.00     0.133 C 
HETATM   73  C   UNL     1      80.134  21.370  32.800  1.00  0.00     0.116 C 
HETATM   74  C   UNL     1      79.115  21.779  33.647  1.00  0.00     0.058 C 
BRANCH  71  75
HETATM   75  O   UNL     1      81.770  24.526  31.976  1.00  0.00    -0.358 OA
HETATM   76  H   UNL     1      82.557  24.509  32.558  1.00  0.00     0.217 HD
ENDBRANCH  71  75
BRANCH  72  77
HETATM   77  O   UNL     1      81.915  21.935  31.247  1.00  0.00    -0.356 OA
HETATM   78  H   UNL     1      82.228  21.039  31.481  1.00  0.00     0.218 HD
ENDBRANCH  72  77
BRANCH  73  79
HETATM   79  O   UNL     1      80.453  20.015  32.838  1.00  0.00    -0.272 OA
BRANCH  79  80
HETATM   80  C   UNL     1      79.671  19.434  31.850  1.00  0.00     0.298 C 
HETATM   81  O   UNL     1      78.475  19.226  31.990  1.00  0.00    -0.259 OA
BRANCH  80  82
HETATM   82  C   UNL     1      80.406  19.067  30.605  1.00  0.00     0.045 A 
HETATM   83  C   UNL     1      81.541  18.250  30.707  1.00  0.00     0.057 A 
HETATM   84  C   UNL     1      82.266  17.933  29.563  1.00  0.00     0.102 A 
HETATM   85  C   UNL     1      81.882  18.438  28.329  1.00  0.00     0.132 A 
HETATM   86  C   UNL     1      80.759  19.254  28.232  1.00  0.00     0.102 A 
HETATM   87  C   UNL     1      79.995  19.560  29.359  1.00  0.00     0.057 A 
BRANCH  84  88
HETATM   88  O   UNL     1      83.358  17.138  29.710  1.00  0.00    -0.358 OA
HETATM   89  H   UNL     1      83.267  16.341  29.145  1.00  0.00     0.217 HD
ENDBRANCH  84  88
BRANCH  85  90
HETATM   90  O   UNL     1      82.617  18.146  27.214  1.00  0.00    -0.356 OA
HETATM   91  H   UNL     1      82.024  17.634  26.627  1.00  0.00     0.218 HD
ENDBRANCH  85  90
BRANCH  86  92
HETATM   92  O   UNL     1      80.457  19.760  26.998  1.00  0.00    -0.358 OA
HETATM   93  H   UNL     1      79.702  20.368  27.102  1.00  0.00     0.217 HD
ENDBRANCH  86  92
ENDBRANCH  80  82
ENDBRANCH  79  80
ENDBRANCH  73  79
ENDBRANCH  67  69
ENDBRANCH  66  67
ENDBRANCH  65  66
ENDBRANCH   2  65
BRANCH   3  94
HETATM   94  O   UNL     1      82.559  23.574  35.644  1.00  0.00    -0.285 OA
BRANCH  94  95
HETATM   95  C   UNL     1      83.338  24.667  35.421  1.00  0.00     0.295 C 
HETATM   96  O   UNL     1      83.496  25.268  34.372  1.00  0.00    -0.259 OA
BRANCH  95  97
HETATM   97  C   UNL     1      83.993  25.024  36.672  1.00  0.00     0.045 A 
HETATM   98  C   UNL     1      85.039  24.230  37.147  1.00  0.00     0.057 A 
HETATM   99  C   UNL     1      85.720  24.644  38.274  1.00  0.00     0.102 A 
HETATM  100  C   UNL     1      85.322  25.794  38.947  1.00  0.00     0.132 A 
HETATM  101  C   UNL     1      84.239  26.546  38.495  1.00  0.00     0.102 A 
HETATM  102  C   UNL     1      83.565  26.171  37.346  1.00  0.00     0.057 A 
BRANCH  99 103
HETATM  103  O   UNL     1      86.804  23.932  38.697  1.00  0.00    -0.358 OA
HETATM  104  H   UNL     1      86.793  23.132  38.131  1.00  0.00     0.217 HD
ENDBRANCH  99 103
BRANCH 100 105
HETATM  105  O   UNL     1      86.016  26.179  40.061  1.00  0.00    -0.356 OA
HETATM  106  H   UNL     1      86.939  26.263  39.744  1.00  0.00     0.218 HD
ENDBRANCH 100 105
BRANCH 101 107
HETATM  107  O   UNL     1      83.884  27.659  39.202  1.00  0.00    -0.358 OA
HETATM  108  H   UNL     1      83.009  27.946  38.885  1.00  0.00     0.217 HD
ENDBRANCH 101 107
ENDBRANCH  95  97
ENDBRANCH  94  95
ENDBRANCH   3  94
TORSDOF 43
ENDMDL
MODEL 3
REMARK VINA RESULT:   -11.207      1.178      2.349
REMARK INTER + INTRA:         -29.880
REMARK INTER:                 -28.221
REMARK INTRA:                  -1.659
REMARK UNBOUND:                 0.655
REMARK WARNING: 32 MAX_TORS EXCEEDED!!!
REMARK  43 active torsions:
REMARK  status: ('A' for Active; 'I' for Inactive)
REMARK    1  A    between atoms: O_2  and  C_27 
REMARK    2  A    between atoms: O_2  and  C_33 
REMARK    3  A    between atoms: O_3  and  C_28 
REMARK    4  A    between atoms: O_3  and  C_34 
REMARK    5  A    between atoms: O_4  and  C_29 
REMARK    6  A    between atoms: O_4  and  C_35 
REMARK    7  A    between atoms: O_5  and  C_31 
REMARK    8  A    between atoms: O_5  and  C_36 
REMARK    9  A    between atoms: O_6  and  C_32 
REMARK   10  A    between atoms: O_6  and  C_39 
REMARK   11  A    between atoms: O_12  and  C_51 
REMARK   12  A    between atoms: O_13  and  C_52 
REMARK   13  A    between atoms: O_13  and  C_99 
REMARK   14  A    between atoms: O_14  and  C_53 
REMARK   15  A    between atoms: O_15  and  C_54 
REMARK   16  A    between atoms: O_16  and  C_55 
REMARK   17  A    between atoms: O_17  and  C_56 
REMARK   18  A    between atoms: O_18  and  C_59 
REMARK   19  A    between atoms: O_19  and  C_60 
REMARK   20  A    between atoms: O_20  and  C_61 
REMARK   21  A    between atoms: O_21  and  C_62 
REMARK   22  A    between atoms: O_22  and  C_63 
REMARK   23  A    between atoms: O_23  and  C_64 
REMARK   24  A    between atoms: O_24  and  C_65 
REMARK   25  A    between atoms: O_24  and  C_85 
REMARK   26  A    between atoms: O_25  and  C_66 
REMARK   27  A    between atoms: O_26  and  C_67 
REMARK   28  A    between atoms: C_28  and  C_30 
REMARK   29  A    between atoms: C_29  and  C_31 
REMARK   30  A    between atoms: C_30  and  C_32 
REMARK   31  A    between atoms: C_33  and  C_37 
REMARK   32  A    between atoms: C_34  and  C_38 
REMARK   33  A    between atoms: C_35  and  C_40 
REMARK   34  A    between atoms: C_36  and  C_41 
REMARK   35  A    between atoms: C_39  and  C_42 
REMARK   36  A    between atoms: O_82  and  C_89 
REMARK   37  A    between atoms: O_83  and  C_90 
REMARK   38  A    between atoms: O_84  and  C_91 
REMARK   39  A    between atoms: C_85  and  C_86 
REMARK   40  A    between atoms: O_96  and  C_103 
REMARK   41  A    between atoms: O_97  and  C_104 
REMARK   42  A    between atoms: O_98  and  C_105 
REMARK   43  A    between atoms: C_99  and  C_100 
ROOT
HETATM    1  O   UNL     1      81.496  22.290  37.364  1.00  0.00    -0.348 OA
HETATM    2  C   UNL     1      80.184  22.352  36.996  1.00  0.00     0.201 A 
HETATM    3  C   UNL     1      81.124  23.359  36.619  1.00  0.00     0.282 A 
ENDROOT
BRANCH   2   4
HETATM    4  C   UNL     1      79.690  22.932  37.313  1.00  0.00     0.199 A 
HETATM    5  C   UNL     1      78.468  22.213  38.086  1.00  0.00     0.198 A 
HETATM    6  C   UNL     1      79.838  22.350  38.609  1.00  0.00     0.215 A 
BRANCH   4   7
HETATM    7  O   UNL     1      78.581  22.901  35.977  1.00  0.00    -0.306 OA
BRANCH   7   8
HETATM    8  C   UNL     1      77.577  23.487  35.343  1.00  0.00     0.294 C 
HETATM    9  O   UNL     1      76.421  23.444  35.749  1.00  0.00    -0.259 OA
BRANCH   8  10
HETATM   10  C   UNL     1      77.874  24.319  34.191  1.00  0.00     0.045 A 
HETATM   11  C   UNL     1      78.796  25.358  34.372  1.00  0.00     0.057 A 
HETATM   12  C   UNL     1      79.460  25.858  33.267  1.00  0.00     0.102 A 
HETATM   13  C   UNL     1      79.173  25.353  32.005  1.00  0.00     0.132 A 
HETATM   14  C   UNL     1      78.162  24.412  31.829  1.00  0.00     0.102 A 
HETATM   15  C   UNL     1      77.516  23.864  32.923  1.00  0.00     0.057 A 
BRANCH  12  16
HETATM   16  O   UNL     1      80.436  26.807  33.385  1.00  0.00    -0.358 OA
HETATM   17  H   UNL     1      81.240  26.356  33.706  1.00  0.00     0.217 HD
ENDBRANCH  12  16
BRANCH  13  18
HETATM   18  O   UNL     1      79.921  25.722  30.920  1.00  0.00    -0.356 OA
HETATM   19  H   UNL     1      80.581  25.003  30.839  1.00  0.00     0.218 HD
ENDBRANCH  13  18
BRANCH  14  20
HETATM   20  O   UNL     1      77.847  23.989  30.571  1.00  0.00    -0.358 OA
HETATM   21  H   UNL     1      78.424  24.526  29.993  1.00  0.00     0.217 HD
ENDBRANCH  14  20
ENDBRANCH   8  10
ENDBRANCH   7   8
ENDBRANCH   4   7
BRANCH   5  22
HETATM   22  O   UNL     1      77.522  23.142  38.673  1.00  0.00    -0.306 OA
BRANCH  22  23
HETATM   23  C   UNL     1      76.628  22.617  39.536  1.00  0.00     0.294 C 
HETATM   24  O   UNL     1      76.206  21.480  39.707  1.00  0.00    -0.259 OA
BRANCH  23  25
HETATM   25  C   UNL     1      76.121  23.650  40.344  1.00  0.00     0.045 C 
HETATM   26  C   UNL     1      76.271  24.846  39.690  1.00  0.00     0.058 C 
HETATM   27  C   UNL     1      76.834  25.821  40.450  1.00  0.00     0.116 C 
HETATM   28  C   UNL     1      76.757  25.754  41.853  1.00  0.00     0.133 C 
HETATM   29  C   UNL     1      76.388  24.563  42.475  1.00  0.00     0.102 C 
HETATM   30  C   UNL     1      76.215  23.449  41.711  1.00  0.00     0.057 C 
BRANCH  27  31
HETATM   31  O   UNL     1      77.653  26.772  39.823  1.00  0.00    -0.272 OA
BRANCH  31  32
HETATM   32  C   UNL     1      77.106  27.972  39.319  1.00  0.00     0.298 C 
HETATM   33  O   UNL     1      76.689  28.960  39.855  1.00  0.00    -0.259 OA
BRANCH  32  34
HETATM   34  C   UNL     1      77.504  27.840  37.917  1.00  0.00     0.045 C 
HETATM   35  C   UNL     1      78.803  27.417  37.638  1.00  0.00     0.057 C 
HETATM   36  C   UNL     1      79.434  28.038  36.576  1.00  0.00     0.102 C 
HETATM   37  C   UNL     1      78.836  29.128  35.943  1.00  0.00     0.132 C 
HETATM   38  C   UNL     1      77.528  29.482  36.228  1.00  0.00     0.102 C 
HETATM   39  C   UNL     1      76.787  28.727  37.099  1.00  0.00     0.057 C 
BRANCH  36  40
HETATM   40  O   UNL     1      80.696  27.692  36.196  1.00  0.00    -0.358 OA
HETATM   41  H   UNL     1      81.075  27.200  36.948  1.00  0.00     0.217 HD
ENDBRANCH  36  40
BRANCH  37  42
HETATM   42  O   UNL     1      79.556  29.914  35.092  1.00  0.00    -0.356 OA
HETATM   43  H   UNL     1      79.748  29.330  34.330  1.00  0.00     0.218 HD
ENDBRANCH  37  42
BRANCH  38  44
HETATM   44  O   UNL     1      77.021  30.684  35.835  1.00  0.00    -0.358 OA
HETATM   45  H   UNL     1      76.879  31.184  36.664  1.00  0.00     0.217 HD
ENDBRANCH  38  44
ENDBRANCH  32  34
ENDBRANCH  31  32
ENDBRANCH  27  31
BRANCH  28  46
HETATM   46  O   UNL     1      77.047  26.821  42.651  1.00  0.00    -0.356 OA
HETATM   47  H   UNL     1      76.218  27.322  42.761  1.00  0.00     0.218 HD
ENDBRANCH  28  46
BRANCH  29  48
HETATM   48  O   UNL     1      76.261  24.424  43.818  1.00  0.00    -0.358 OA
HETATM   49  H   UNL     1      76.251  23.464  43.972  1.00  0.00     0.217 HD
ENDBRANCH  29  48
ENDBRANCH  23  25
ENDBRANCH  22  23
ENDBRANCH   5  22
BRANCH   6  50
HETATM   50  O   UNL     1      79.764  22.013  40.227  1.00  0.00    -0.304 OA
BRANCH  50  51
HETATM   51  C   UNL     1      79.969  22.850  41.283  1.00  0.00     0.294 C 
HETATM   52  O   UNL     1      79.719  24.032  41.406  1.00  0.00    -0.259 OA
BRANCH  51  53
HETATM   53  C   UNL     1      80.598  22.016  42.306  1.00  0.00     0.045 A 
HETATM   54  C   UNL     1      81.155  20.817  41.859  1.00  0.00     0.057 A 
HETATM   55  C   UNL     1      81.735  19.964  42.771  1.00  0.00     0.102 A 
HETATM   56  C   UNL     1      81.799  20.319  44.108  1.00  0.00     0.132 A 
HETATM   57  C   UNL     1      81.281  21.538  44.543  1.00  0.00     0.102 A 
HETATM   58  C   UNL     1      80.655  22.400  43.650  1.00  0.00     0.057 A 
BRANCH  55  59
HETATM   59  O   UNL     1      82.271  18.797  42.325  1.00  0.00    -0.358 OA
HETATM   60  H   UNL     1      83.194  19.019  42.092  1.00  0.00     0.217 HD
ENDBRANCH  55  59
BRANCH  56  61
HETATM   61  O   UNL     1      82.433  19.484  44.985  1.00  0.00    -0.356 OA
HETATM   62  H   UNL     1      81.711  18.940  45.358  1.00  0.00     0.218 HD
ENDBRANCH  56  61
BRANCH  57  63
HETATM   63  O   UNL     1      81.462  21.864  45.858  1.00  0.00    -0.358 OA
HETATM   64  H   UNL     1      82.346  22.270  45.937  1.00  0.00     0.217 HD
ENDBRANCH  57  63
ENDBRANCH  51  53
ENDBRANCH  50  51
ENDBRANCH   6  50
ENDBRANCH   2   4
BRANCH   2  65
HETATM   65  C   UNL     1      79.203  21.374  36.100  1.00  0.00     0.216 C 
BRANCH  65  66
HETATM   66  O   UNL     1      80.081  20.614  35.273  1.00  0.00    -0.315 OA
BRANCH  66  67
HETATM   67  C   UNL     1      79.485  20.154  34.168  1.00  0.00     0.293 C 
HETATM   68  O   UNL     1      78.747  19.190  34.096  1.00  0.00    -0.259 OA
BRANCH  67  69
HETATM   69  C   UNL     1      79.958  20.978  33.045  1.00  0.00     0.045 C 
HETATM   70  C   UNL     1      80.840  22.062  33.215  1.00  0.00     0.057 C 
HETATM   71  C   UNL     1      81.315  22.734  32.102  1.00  0.00     0.102 C 
HETATM   72  C   UNL     1      81.056  22.237  30.836  1.00  0.00     0.133 C 
HETATM   73  C   UNL     1      80.284  21.079  30.704  1.00  0.00     0.116 C 
HETATM   74  C   UNL     1      79.596  20.541  31.781  1.00  0.00     0.058 C 
BRANCH  71  75
HETATM   75  O   UNL     1      82.126  23.822  32.253  1.00  0.00    -0.358 OA
HETATM   76  H   UNL     1      82.706  23.803  31.464  1.00  0.00     0.217 HD
ENDBRANCH  71  75
BRANCH  72  77
HETATM   77  O   UNL     1      81.669  22.850  29.781  1.00  0.00    -0.356 OA
HETATM   78  H   UNL     1      82.133  23.638  30.125  1.00  0.00     0.218 HD
ENDBRANCH  72  77
BRANCH  73  79
HETATM   79  O   UNL     1      80.385  20.268  29.577  1.00  0.00    -0.272 OA
BRANCH  79  80
HETATM   80  C   UNL     1      81.569  19.565  29.746  1.00  0.00     0.298 C 
HETATM   81  O   UNL     1      82.659  20.114  29.820  1.00  0.00    -0.259 OA
BRANCH  80  82
HETATM   82  C   UNL     1      81.415  18.083  29.814  1.00  0.00     0.045 A 
HETATM   83  C   UNL     1      81.442  17.459  31.070  1.00  0.00     0.057 A 
HETATM   84  C   UNL     1      81.345  16.074  31.152  1.00  0.00     0.102 A 
HETATM   85  C   UNL     1      81.244  15.309  29.998  1.00  0.00     0.132 A 
HETATM   86  C   UNL     1      81.225  15.931  28.753  1.00  0.00     0.102 A 
HETATM   87  C   UNL     1      81.287  17.322  28.645  1.00  0.00     0.057 A 
BRANCH  84  88
HETATM   88  O   UNL     1      81.374  15.513  32.389  1.00  0.00    -0.358 OA
HETATM   89  H   UNL     1      82.293  15.256  32.615  1.00  0.00     0.217 HD
ENDBRANCH  84  88
BRANCH  85  90
HETATM   90  O   UNL     1      81.179  13.946  30.087  1.00  0.00    -0.356 OA
HETATM   91  H   UNL     1      80.919  13.632  29.198  1.00  0.00     0.218 HD
ENDBRANCH  85  90
BRANCH  86  92
HETATM   92  O   UNL     1      81.173  15.124  27.651  1.00  0.00    -0.358 OA
HETATM   93  H   UNL     1      82.088  14.895  27.406  1.00  0.00     0.217 HD
ENDBRANCH  86  92
ENDBRANCH  80  82
ENDBRANCH  79  80
ENDBRANCH  73  79
ENDBRANCH  67  69
ENDBRANCH  66  67
ENDBRANCH  65  66
ENDBRANCH   2  65
BRANCH   3  94
HETATM   94  O   UNL     1      82.467  23.535  35.924  1.00  0.00    -0.285 OA
BRANCH  94  95
HETATM   95  C   UNL     1      82.912  24.804  35.717  1.00  0.00     0.295 C 
HETATM   96  O   UNL     1      82.657  25.539  34.779  1.00  0.00    -0.259 OA
BRANCH  95  97
HETATM   97  C   UNL     1      83.785  25.168  36.825  1.00  0.00     0.045 A 
HETATM   98  C   UNL     1      83.530  26.342  37.539  1.00  0.00     0.057 A 
HETATM   99  C   UNL     1      84.297  26.614  38.653  1.00  0.00     0.102 A 
HETATM  100  C   UNL     1      85.339  25.764  39.008  1.00  0.00     0.132 A 
HETATM  101  C   UNL     1      85.620  24.627  38.254  1.00  0.00     0.102 A 
HETATM  102  C   UNL     1      84.839  24.312  37.154  1.00  0.00     0.057 A 
BRANCH  99 103
HETATM  103  O   UNL     1      84.001  27.705  39.415  1.00  0.00    -0.358 OA
HETATM  104  H   UNL     1      84.866  27.970  39.791  1.00  0.00     0.217 HD
ENDBRANCH  99 103
BRANCH 100 105
HETATM  105  O   UNL     1      86.082  26.060  40.117  1.00  0.00    -0.356 OA
HETATM  106  H   UNL     1      85.800  26.968  40.352  1.00  0.00     0.218 HD
ENDBRANCH 100 105
BRANCH 101 107
HETATM  107  O   UNL     1      86.662  23.834  38.641  1.00  0.00    -0.358 OA
HETATM  108  H   UNL     1      87.360  24.413  38.997  1.00  0.00     0.217 HD
ENDBRANCH 101 107
ENDBRANCH  95  97
ENDBRANCH  94  95
ENDBRANCH   3  94
TORSDOF 43
ENDMDL
MODEL 4
REMARK VINA RESULT:   -11.183      2.905     10.532
REMARK INTER + INTRA:         -29.814
REMARK INTER:                 -27.557
REMARK INTRA:                  -2.257
REMARK UNBOUND:                 0.655
REMARK WARNING: 32 MAX_TORS EXCEEDED!!!
REMARK  43 active torsions:
REMARK  status: ('A' for Active; 'I' for Inactive)
REMARK    1  A    between atoms: O_2  and  C_27 
REMARK    2  A    between atoms: O_2  and  C_33 
REMARK    3  A    between atoms: O_3  and  C_28 
REMARK    4  A    between atoms: O_3  and  C_34 
REMARK    5  A    between atoms: O_4  and  C_29 
REMARK    6  A    between atoms: O_4  and  C_35 
REMARK    7  A    between atoms: O_5  and  C_31 
REMARK    8  A    between atoms: O_5  and  C_36 
REMARK    9  A    between atoms: O_6  and  C_32 
REMARK   10  A    between atoms: O_6  and  C_39 
REMARK   11  A    between atoms: O_12  and  C_51 
REMARK   12  A    between atoms: O_13  and  C_52 
REMARK   13  A    between atoms: O_13  and  C_99 
REMARK   14  A    between atoms: O_14  and  C_53 
REMARK   15  A    between atoms: O_15  and  C_54 
REMARK   16  A    between atoms: O_16  and  C_55 
REMARK   17  A    between atoms: O_17  and  C_56 
REMARK   18  A    between atoms: O_18  and  C_59 
REMARK   19  A    between atoms: O_19  and  C_60 
REMARK   20  A    between atoms: O_20  and  C_61 
REMARK   21  A    between atoms: O_21  and  C_62 
REMARK   22  A    between atoms: O_22  and  C_63 
REMARK   23  A    between atoms: O_23  and  C_64 
REMARK   24  A    between atoms: O_24  and  C_65 
REMARK   25  A    between atoms: O_24  and  C_85 
REMARK   26  A    between atoms: O_25  and  C_66 
REMARK   27  A    between atoms: O_26  and  C_67 
REMARK   28  A    between atoms: C_28  and  C_30 
REMARK   29  A    between atoms: C_29  and  C_31 
REMARK   30  A    between atoms: C_30  and  C_32 
REMARK   31  A    between atoms: C_33  and  C_37 
REMARK   32  A    between atoms: C_34  and  C_38 
REMARK   33  A    between atoms: C_35  and  C_40 
REMARK   34  A    between atoms: C_36  and  C_41 
REMARK   35  A    between atoms: C_39  and  C_42 
REMARK   36  A    between atoms: O_82  and  C_89 
REMARK   37  A    between atoms: O_83  and  C_90 
REMARK   38  A    between atoms: O_84  and  C_91 
REMARK   39  A    between atoms: C_85  and  C_86 
REMARK   40  A    between atoms: O_96  and  C_103 
REMARK   41  A    between atoms: O_97  and  C_104 
REMARK   42  A    between atoms: O_98  and  C_105 
REMARK   43  A    between atoms: C_99  and  C_100 
ROOT
HETATM    1  O   UNL     1      82.164  23.402  33.331  1.00  0.00    -0.348 OA
HETATM    2  C   UNL     1      80.886  23.045  33.646  1.00  0.00     0.201 A 
HETATM    3  C   UNL     1      81.930  23.058  34.620  1.00  0.00     0.282 A 
ENDROOT
BRANCH   2   4
HETATM    4  C   UNL     1      80.709  22.264  33.845  1.00  0.00     0.199 A 
HETATM    5  C   UNL     1      79.325  21.840  33.130  1.00  0.00     0.198 A 
HETATM    6  C   UNL     1      80.634  21.927  32.458  1.00  0.00     0.215 A 
BRANCH   4   7
HETATM    7  O   UNL     1      79.652  22.700  35.152  1.00  0.00    -0.306 OA
BRANCH   7   8
HETATM    8  C   UNL     1      79.159  22.392  36.341  1.00  0.00     0.294 C 
HETATM    9  O   UNL     1      79.178  21.252  36.791  1.00  0.00    -0.259 OA
BRANCH   8  10
HETATM   10  C   UNL     1      78.690  23.466  37.199  1.00  0.00     0.045 A 
HETATM   11  C   UNL     1      79.653  24.149  37.953  1.00  0.00     0.057 A 
HETATM   12  C   UNL     1      79.368  25.428  38.396  1.00  0.00     0.102 A 
HETATM   13  C   UNL     1      78.127  25.990  38.120  1.00  0.00     0.132 A 
HETATM   14  C   UNL     1      77.137  25.248  37.481  1.00  0.00     0.102 A 
HETATM   15  C   UNL     1      77.414  23.985  36.989  1.00  0.00     0.057 A 
BRANCH  12  16
HETATM   16  O   UNL     1      80.295  26.181  39.057  1.00  0.00    -0.358 OA
HETATM   17  H   UNL     1      79.834  26.968  39.405  1.00  0.00     0.217 HD
ENDBRANCH  12  16
BRANCH  13  18
HETATM   18  O   UNL     1      77.877  27.302  38.414  1.00  0.00    -0.356 OA
HETATM   19  H   UNL     1      76.919  27.401  38.235  1.00  0.00     0.218 HD
ENDBRANCH  13  18
BRANCH  14  20
HETATM   20  O   UNL     1      75.902  25.797  37.291  1.00  0.00    -0.358 OA
HETATM   21  H   UNL     1      75.299  25.180  37.751  1.00  0.00     0.217 HD
ENDBRANCH  14  20
ENDBRANCH   8  10
ENDBRANCH   7   8
ENDBRANCH   4   7
BRANCH   5  22
HETATM   22  O   UNL     1      78.907  20.484  33.425  1.00  0.00    -0.306 OA
BRANCH  22  23
HETATM   23  C   UNL     1      77.582  20.291  33.592  1.00  0.00     0.294 C 
HETATM   24  O   UNL     1      76.828  20.481  34.538  1.00  0.00    -0.259 OA
BRANCH  23  25
HETATM   25  C   UNL     1      77.053  19.748  32.408  1.00  0.00     0.045 C 
HETATM   26  C   UNL     1      77.100  18.380  32.482  1.00  0.00     0.058 C 
HETATM   27  C   UNL     1      77.639  17.789  31.384  1.00  0.00     0.116 C 
HETATM   28  C   UNL     1      77.632  18.459  30.147  1.00  0.00     0.133 C 
HETATM   29  C   UNL     1      77.365  19.826  30.097  1.00  0.00     0.102 C 
HETATM   30  C   UNL     1      77.223  20.511  31.265  1.00  0.00     0.057 C 
BRANCH  27  31
HETATM   31  O   UNL     1      78.369  16.602  31.550  1.00  0.00    -0.272 OA
BRANCH  31  32
HETATM   32  C   UNL     1      79.771  16.636  31.711  1.00  0.00     0.298 C 
HETATM   33  O   UNL     1      80.508  17.433  32.220  1.00  0.00    -0.259 OA
BRANCH  32  34
HETATM   34  C   UNL     1      80.078  15.242  31.390  1.00  0.00     0.045 C 
HETATM   35  C   UNL     1      81.260  14.696  31.890  1.00  0.00     0.057 C 
HETATM   36  C   UNL     1      81.953  13.856  31.039  1.00  0.00     0.102 C 
HETATM   37  C   UNL     1      81.549  13.710  29.712  1.00  0.00     0.132 C 
HETATM   38  C   UNL     1      80.345  14.238  29.276  1.00  0.00     0.102 C 
HETATM   39  C   UNL     1      79.510  14.867  30.163  1.00  0.00     0.057 C 
BRANCH  36  40
HETATM   40  O   UNL     1      83.108  13.246  31.425  1.00  0.00    -0.358 OA
HETATM   41  H   UNL     1      83.165  12.425  30.900  1.00  0.00     0.217 HD
ENDBRANCH  36  40
BRANCH  37  42
HETATM   42  O   UNL     1      82.369  13.113  28.800  1.00  0.00    -0.356 OA
HETATM   43  H   UNL     1      82.513  13.801  28.118  1.00  0.00     0.218 HD
ENDBRANCH  37  42
BRANCH  38  44
HETATM   44  O   UNL     1      80.061  14.345  27.948  1.00  0.00    -0.358 OA
HETATM   45  H   UNL     1      79.970  15.305  27.783  1.00  0.00     0.217 HD
ENDBRANCH  38  44
ENDBRANCH  32  34
ENDBRANCH  31  32
ENDBRANCH  27  31
BRANCH  28  46
HETATM   46  O   UNL     1      77.894  17.823  28.971  1.00  0.00    -0.356 OA
HETATM   47  H   UNL     1      78.844  17.944  28.792  1.00  0.00     0.218 HD
ENDBRANCH  28  46
BRANCH  29  48
HETATM   48  O   UNL     1      77.310  20.540  28.945  1.00  0.00    -0.358 OA
HETATM   49  H   UNL     1      76.380  20.492  28.664  1.00  0.00     0.217 HD
ENDBRANCH  29  48
ENDBRANCH  23  25
ENDBRANCH  22  23
ENDBRANCH   5  22
BRANCH   6  50
HETATM   50  O   UNL     1      80.478  21.138  31.013  1.00  0.00    -0.304 OA
BRANCH  50  51
HETATM   51  C   UNL     1      81.099  21.397  29.827  1.00  0.00     0.294 C 
HETATM   52  O   UNL     1      81.394  22.458  29.314  1.00  0.00    -0.259 OA
BRANCH  51  53
HETATM   53  C   UNL     1      81.353  20.083  29.241  1.00  0.00     0.045 A 
HETATM   54  C   UNL     1      80.672  19.802  28.056  1.00  0.00     0.057 A 
HETATM   55  C   UNL     1      80.835  18.570  27.462  1.00  0.00     0.102 A 
HETATM   56  C   UNL     1      81.700  17.643  28.019  1.00  0.00     0.132 A 
HETATM   57  C   UNL     1      82.412  17.945  29.179  1.00  0.00     0.102 A 
HETATM   58  C   UNL     1      82.237  19.166  29.819  1.00  0.00     0.057 A 
BRANCH  55  59
HETATM   59  O   UNL     1      80.164  18.306  26.310  1.00  0.00    -0.358 OA
HETATM   60  H   UNL     1      79.221  18.296  26.566  1.00  0.00     0.217 HD
ENDBRANCH  55  59
BRANCH  56  61
HETATM   61  O   UNL     1      81.893  16.450  27.379  1.00  0.00    -0.356 OA
HETATM   62  H   UNL     1      82.865  16.333  27.384  1.00  0.00     0.218 HD
ENDBRANCH  56  61
BRANCH  57  63
HETATM   63  O   UNL     1      83.317  17.020  29.619  1.00  0.00    -0.358 OA
HETATM   64  H   UNL     1      83.369  17.104  30.589  1.00  0.00     0.217 HD
ENDBRANCH  57  63
ENDBRANCH  51  53
ENDBRANCH  50  51
ENDBRANCH   6  50
ENDBRANCH   2   4
BRANCH   2  65
HETATM   65  C   UNL     1      79.434  23.825  33.580  1.00  0.00     0.216 C 
BRANCH  65  66
HETATM   66  O   UNL     1      79.734  25.143  33.126  1.00  0.00    -0.315 OA
BRANCH  66  67
HETATM   67  C   UNL     1      79.896  25.210  31.800  1.00  0.00     0.293 C 
HETATM   68  O   UNL     1      80.941  25.415  31.212  1.00  0.00    -0.259 OA
BRANCH  67  69
HETATM   69  C   UNL     1      78.564  25.077  31.193  1.00  0.00     0.045 C 
HETATM   70  C   UNL     1      78.281  24.151  30.171  1.00  0.00     0.057 C 
HETATM   71  C   UNL     1      76.982  24.019  29.711  1.00  0.00     0.102 C 
HETATM   72  C   UNL     1      75.951  24.669  30.368  1.00  0.00     0.133 C 
HETATM   73  C   UNL     1      76.248  25.480  31.466  1.00  0.00     0.116 C 
HETATM   74  C   UNL     1      77.555  25.822  31.781  1.00  0.00     0.058 C 
BRANCH  71  75
HETATM   75  O   UNL     1      76.703  23.166  28.682  1.00  0.00    -0.358 OA
HETATM   76  H   UNL     1      75.725  23.159  28.632  1.00  0.00     0.217 HD
ENDBRANCH  71  75
BRANCH  72  77
HETATM   77  O   UNL     1      74.675  24.388  29.970  1.00  0.00    -0.356 OA
HETATM   78  H   UNL     1      74.083  25.042  30.392  1.00  0.00     0.218 HD
ENDBRANCH  72  77
BRANCH  73  79
HETATM   79  O   UNL     1      75.293  25.755  32.441  1.00  0.00    -0.272 OA
BRANCH  79  80
HETATM   80  C   UNL     1      74.906  27.066  32.206  1.00  0.00     0.298 C 
HETATM   81  O   UNL     1      74.209  27.390  31.255  1.00  0.00    -0.259 OA
BRANCH  80  82
HETATM   82  C   UNL     1      75.418  28.059  33.195  1.00  0.00     0.045 A 
HETATM   83  C   UNL     1      76.097  29.192  32.724  1.00  0.00     0.057 A 
HETATM   84  C   UNL     1      76.621  30.107  33.632  1.00  0.00     0.102 A 
HETATM   85  C   UNL     1      76.494  29.890  34.996  1.00  0.00     0.132 A 
HETATM   86  C   UNL     1      75.825  28.761  35.460  1.00  0.00     0.102 A 
HETATM   87  C   UNL     1      75.261  27.845  34.571  1.00  0.00     0.057 A 
BRANCH  84  88
HETATM   88  O   UNL     1      77.269  31.190  33.130  1.00  0.00    -0.358 OA
HETATM   89  H   UNL     1      78.029  31.418  33.707  1.00  0.00     0.217 HD
ENDBRANCH  84  88
BRANCH  85  90
HETATM   90  O   UNL     1      77.038  30.779  35.882  1.00  0.00    -0.356 OA
HETATM   91  H   UNL     1      77.995  30.580  35.908  1.00  0.00     0.218 HD
ENDBRANCH  85  90
BRANCH  86  92
HETATM   92  O   UNL     1      75.773  28.576  36.815  1.00  0.00    -0.358 OA
HETATM   93  H   UNL     1      75.737  27.617  36.983  1.00  0.00     0.217 HD
ENDBRANCH  86  92
ENDBRANCH  80  82
ENDBRANCH  79  80
ENDBRANCH  73  79
ENDBRANCH  67  69
ENDBRANCH  66  67
ENDBRANCH  65  66
ENDBRANCH   2  65
BRANCH   3  94
HETATM   94  O   UNL     1      82.992  23.972  35.217  1.00  0.00    -0.285 OA
BRANCH  94  95
HETATM   95  C   UNL     1      82.571  25.087  35.873  1.00  0.00     0.295 C 
HETATM   96  O   UNL     1      81.577  25.755  35.646  1.00  0.00    -0.259 OA
BRANCH  95  97
HETATM   97  C   UNL     1      83.530  25.384  36.928  1.00  0.00     0.045 A 
HETATM   98  C   UNL     1      83.387  26.558  37.671  1.00  0.00     0.057 A 
HETATM   99  C   UNL     1      84.237  26.769  38.738  1.00  0.00     0.102 A 
HETATM  100  C   UNL     1      85.248  25.856  39.016  1.00  0.00     0.132 A 
HETATM  101  C   UNL     1      85.417  24.717  38.231  1.00  0.00     0.102 A 
HETATM  102  C   UNL     1      84.553  24.465  37.179  1.00  0.00     0.057 A 
BRANCH  99 103
HETATM  103  O   UNL     1      84.051  27.863  39.531  1.00  0.00    -0.358 OA
HETATM  104  H   UNL     1      83.276  27.624  40.081  1.00  0.00     0.217 HD
ENDBRANCH  99 103
BRANCH 100 105
HETATM  105  O   UNL     1      86.075  26.093  40.079  1.00  0.00    -0.356 OA
HETATM  106  H   UNL     1      86.786  26.653  39.704  1.00  0.00     0.218 HD
ENDBRANCH 100 105
BRANCH 101 107
HETATM  107  O   UNL     1      86.434  23.861  38.542  1.00  0.00    -0.358 OA
HETATM  108  H   UNL     1      87.000  24.299  39.204  1.00  0.00     0.217 HD
ENDBRANCH 101 107
ENDBRANCH  95  97
ENDBRANCH  94  95
ENDBRANCH   3  94
TORSDOF 43
ENDMDL
MODEL 5
REMARK VINA RESULT:   -11.145      2.910      5.624
REMARK INTER + INTRA:         -29.710
REMARK INTER:                 -28.264
REMARK INTRA:                  -1.446
REMARK UNBOUND:                 0.655
REMARK WARNING: 32 MAX_TORS EXCEEDED!!!
REMARK  43 active torsions:
REMARK  status: ('A' for Active; 'I' for Inactive)
REMARK    1  A    between atoms: O_2  and  C_27 
REMARK    2  A    between atoms: O_2  and  C_33 
REMARK    3  A    between atoms: O_3  and  C_28 
REMARK    4  A    between atoms: O_3  and  C_34 
REMARK    5  A    between atoms: O_4  and  C_29 
REMARK    6  A    between atoms: O_4  and  C_35 
REMARK    7  A    between atoms: O_5  and  C_31 
REMARK    8  A    between atoms: O_5  and  C_36 
REMARK    9  A    between atoms: O_6  and  C_32 
REMARK   10  A    between atoms: O_6  and  C_39 
REMARK   11  A    between atoms: O_12  and  C_51 
REMARK   12  A    between atoms: O_13  and  C_52 
REMARK   13  A    between atoms: O_13  and  C_99 
REMARK   14  A    between atoms: O_14  and  C_53 
REMARK   15  A    between atoms: O_15  and  C_54 
REMARK   16  A    between atoms: O_16  and  C_55 
REMARK   17  A    between atoms: O_17  and  C_56 
REMARK   18  A    between atoms: O_18  and  C_59 
REMARK   19  A    between atoms: O_19  and  C_60 
REMARK   20  A    between atoms: O_20  and  C_61 
REMARK   21  A    between atoms: O_21  and  C_62 
REMARK   22  A    between atoms: O_22  and  C_63 
REMARK   23  A    between atoms: O_23  and  C_64 
REMARK   24  A    between atoms: O_24  and  C_65 
REMARK   25  A    between atoms: O_24  and  C_85 
REMARK   26  A    between atoms: O_25  and  C_66 
REMARK   27  A    between atoms: O_26  and  C_67 
REMARK   28  A    between atoms: C_28  and  C_30 
REMARK   29  A    between atoms: C_29  and  C_31 
REMARK   30  A    between atoms: C_30  and  C_32 
REMARK   31  A    between atoms: C_33  and  C_37 
REMARK   32  A    between atoms: C_34  and  C_38 
REMARK   33  A    between atoms: C_35  and  C_40 
REMARK   34  A    between atoms: C_36  and  C_41 
REMARK   35  A    between atoms: C_39  and  C_42 
REMARK   36  A    between atoms: O_82  and  C_89 
REMARK   37  A    between atoms: O_83  and  C_90 
REMARK   38  A    between atoms: O_84  and  C_91 
REMARK   39  A    between atoms: C_85  and  C_86 
REMARK   40  A    between atoms: O_96  and  C_103 
REMARK   41  A    between atoms: O_97  and  C_104 
REMARK   42  A    between atoms: O_98  and  C_105 
REMARK   43  A    between atoms: C_99  and  C_100 
ROOT
HETATM    1  O   UNL     1      81.537  22.245  37.257  1.00  0.00    -0.348 OA
HETATM    2  C   UNL     1      80.671  23.023  37.968  1.00  0.00     0.201 A 
HETATM    3  C   UNL     1      81.814  23.571  37.310  1.00  0.00     0.282 A 
ENDROOT
BRANCH   2   4
HETATM    4  C   UNL     1      80.911  23.373  38.676  1.00  0.00     0.199 A 
HETATM    5  C   UNL     1      79.731  23.213  39.766  1.00  0.00     0.198 A 
HETATM    6  C   UNL     1      80.666  22.146  39.366  1.00  0.00     0.215 A 
BRANCH   4   7
HETATM    7  O   UNL     1      80.114  24.881  38.350  1.00  0.00    -0.306 OA
BRANCH   7   8
HETATM    8  C   UNL     1      80.194  26.202  38.313  1.00  0.00     0.294 C 
HETATM    9  O   UNL     1      80.859  26.849  39.113  1.00  0.00    -0.259 OA
BRANCH   8  10
HETATM   10  C   UNL     1      79.570  26.904  37.205  1.00  0.00     0.045 A 
HETATM   11  C   UNL     1      78.936  28.120  37.494  1.00  0.00     0.057 A 
HETATM   12  C   UNL     1      78.754  29.035  36.473  1.00  0.00     0.102 A 
HETATM   13  C   UNL     1      79.164  28.717  35.184  1.00  0.00     0.132 A 
HETATM   14  C   UNL     1      79.674  27.456  34.891  1.00  0.00     0.102 A 
HETATM   15  C   UNL     1      79.908  26.541  35.903  1.00  0.00     0.057 A 
BRANCH  12  16
HETATM   16  O   UNL     1      78.225  30.272  36.706  1.00  0.00    -0.358 OA
HETATM   17  H   UNL     1      78.644  30.889  36.076  1.00  0.00     0.217 HD
ENDBRANCH  12  16
BRANCH  13  18
HETATM   18  O   UNL     1      79.133  29.659  34.193  1.00  0.00    -0.356 OA
HETATM   19  H   UNL     1      79.668  30.395  34.556  1.00  0.00     0.218 HD
ENDBRANCH  13  18
BRANCH  14  20
HETATM   20  O   UNL     1      79.998  27.143  33.603  1.00  0.00    -0.358 OA
HETATM   21  H   UNL     1      79.133  27.090  33.151  1.00  0.00     0.217 HD
ENDBRANCH  14  20
ENDBRANCH   8  10
ENDBRANCH   7   8
ENDBRANCH   4   7
BRANCH   5  22
HETATM   22  O   UNL     1      80.039  23.809  41.052  1.00  0.00    -0.306 OA
BRANCH  22  23
HETATM   23  C   UNL     1      78.984  24.190  41.800  1.00  0.00     0.294 C 
HETATM   24  O   UNL     1      77.860  24.584  41.514  1.00  0.00    -0.259 OA
BRANCH  23  25
HETATM   25  C   UNL     1      79.340  24.104  43.158  1.00  0.00     0.045 C 
HETATM   26  C   UNL     1      79.485  25.370  43.665  1.00  0.00     0.058 C 
HETATM   27  C   UNL     1      80.639  25.554  44.358  1.00  0.00     0.116 C 
HETATM   28  C   UNL     1      81.305  24.453  44.926  1.00  0.00     0.133 C 
HETATM   29  C   UNL     1      80.971  23.158  44.532  1.00  0.00     0.102 C 
HETATM   30  C   UNL     1      80.079  22.989  43.518  1.00  0.00     0.057 C 
BRANCH  27  31
HETATM   31  O   UNL     1      81.248  26.818  44.323  1.00  0.00    -0.272 OA
BRANCH  31  32
HETATM   32  C   UNL     1      80.931  27.796  45.290  1.00  0.00     0.298 C 
HETATM   33  O   UNL     1      80.585  27.719  46.436  1.00  0.00    -0.259 OA
BRANCH  32  34
HETATM   34  C   UNL     1      81.479  28.975  44.620  1.00  0.00     0.045 C 
HETATM   35  C   UNL     1      82.522  28.792  43.713  1.00  0.00     0.057 C 
HETATM   36  C   UNL     1      83.525  29.743  43.733  1.00  0.00     0.102 C 
HETATM   37  C   UNL     1      83.541  30.727  44.722  1.00  0.00     0.132 C 
HETATM   38  C   UNL     1      82.461  30.892  45.573  1.00  0.00     0.102 C 
HETATM   39  C   UNL     1      81.338  30.123  45.415  1.00  0.00     0.057 C 
BRANCH  36  40
HETATM   40  O   UNL     1      84.583  29.681  42.878  1.00  0.00    -0.358 OA
HETATM   41  H   UNL     1      84.199  29.611  41.983  1.00  0.00     0.217 HD
ENDBRANCH  36  40
BRANCH  37  42
HETATM   42  O   UNL     1      84.654  31.490  44.922  1.00  0.00    -0.356 OA
HETATM   43  H   UNL     1      85.154  31.010  45.614  1.00  0.00     0.218 HD
ENDBRANCH  37  42
BRANCH  38  44
HETATM   44  O   UNL     1      82.561  31.648  46.702  1.00  0.00    -0.358 OA
HETATM   45  H   UNL     1      83.222  31.190  47.258  1.00  0.00     0.217 HD
ENDBRANCH  38  44
ENDBRANCH  32  34
ENDBRANCH  31  32
ENDBRANCH  27  31
BRANCH  28  46
HETATM   46  O   UNL     1      82.292  24.597  45.855  1.00  0.00    -0.356 OA
HETATM   47  H   UNL     1      83.134  24.416  45.400  1.00  0.00     0.218 HD
ENDBRANCH  28  46
BRANCH  29  48
HETATM   48  O   UNL     1      81.543  22.043  45.053  1.00  0.00    -0.358 OA
HETATM   49  H   UNL     1      81.320  21.332  44.428  1.00  0.00     0.217 HD
ENDBRANCH  29  48
ENDBRANCH  23  25
ENDBRANCH  22  23
ENDBRANCH   5  22
BRANCH   6  50
HETATM   50  O   UNL     1      80.536  20.952  40.503  1.00  0.00    -0.304 OA
BRANCH  50  51
HETATM   51  C   UNL     1      79.918  19.741  40.403  1.00  0.00     0.294 C 
HETATM   52  O   UNL     1      79.101  19.344  39.598  1.00  0.00    -0.259 OA
BRANCH  51  53
HETATM   53  C   UNL     1      80.442  18.958  41.520  1.00  0.00     0.045 A 
HETATM   54  C   UNL     1      80.233  17.580  41.451  1.00  0.00     0.057 A 
HETATM   55  C   UNL     1      80.669  16.781  42.484  1.00  0.00     0.102 A 
HETATM   56  C   UNL     1      81.345  17.341  43.555  1.00  0.00     0.132 A 
HETATM   57  C   UNL     1      81.590  18.713  43.599  1.00  0.00     0.102 A 
HETATM   58  C   UNL     1      81.127  19.547  42.588  1.00  0.00     0.057 A 
BRANCH  55  59
HETATM   59  O   UNL     1      80.456  15.440  42.408  1.00  0.00    -0.358 OA
HETATM   60  H   UNL     1      81.334  15.059  42.210  1.00  0.00     0.217 HD
ENDBRANCH  55  59
BRANCH  56  61
HETATM   61  O   UNL     1      81.822  16.521  44.539  1.00  0.00    -0.356 OA
HETATM   62  H   UNL     1      82.396  17.105  45.076  1.00  0.00     0.218 HD
ENDBRANCH  56  61
BRANCH  57  63
HETATM   63  O   UNL     1      82.343  19.183  44.637  1.00  0.00    -0.358 OA
HETATM   64  H   UNL     1      83.280  19.059  44.396  1.00  0.00     0.217 HD
ENDBRANCH  57  63
ENDBRANCH  51  53
ENDBRANCH  50  51
ENDBRANCH   6  50
ENDBRANCH   2   4
BRANCH   2  65
HETATM   65  C   UNL     1      79.061  23.354  37.833  1.00  0.00     0.216 C 
BRANCH  65  66
HETATM   66  O   UNL     1      78.624  22.638  36.680  1.00  0.00    -0.315 OA
BRANCH  66  67
HETATM   67  C   UNL     1      77.823  21.611  36.979  1.00  0.00     0.293 C 
HETATM   68  O   UNL     1      77.144  21.495  37.981  1.00  0.00    -0.259 OA
BRANCH  67  69
HETATM   69  C   UNL     1      77.984  20.611  35.913  1.00  0.00     0.045 C 
HETATM   70  C   UNL     1      77.678  19.248  36.093  1.00  0.00     0.057 C 
HETATM   71  C   UNL     1      77.767  18.382  35.018  1.00  0.00     0.102 C 
HETATM   72  C   UNL     1      77.990  18.884  33.747  1.00  0.00     0.133 C 
HETATM   73  C   UNL     1      78.160  20.261  33.579  1.00  0.00     0.116 C 
HETATM   74  C   UNL     1      78.324  21.108  34.665  1.00  0.00     0.058 C 
BRANCH  71  75
HETATM   75  O   UNL     1      77.529  17.048  35.191  1.00  0.00    -0.358 OA
HETATM   76  H   UNL     1      77.549  16.923  36.162  1.00  0.00     0.217 HD
ENDBRANCH  71  75
BRANCH  72  77
HETATM   77  O   UNL     1      77.921  18.007  32.702  1.00  0.00    -0.356 OA
HETATM   78  H   UNL     1      77.945  17.103  33.072  1.00  0.00     0.218 HD
ENDBRANCH  72  77
BRANCH  73  79
HETATM   79  O   UNL     1      77.901  20.877  32.358  1.00  0.00    -0.272 OA
BRANCH  79  80
HETATM   80  C   UNL     1      79.109  20.846  31.677  1.00  0.00     0.298 C 
HETATM   81  O   UNL     1      79.478  19.879  31.028  1.00  0.00    -0.259 OA
BRANCH  80  82
HETATM   82  C   UNL     1      79.935  22.082  31.808  1.00  0.00     0.045 A 
HETATM   83  C   UNL     1      79.366  23.314  31.455  1.00  0.00     0.057 A 
HETATM   84  C   UNL     1      80.134  24.472  31.527  1.00  0.00     0.102 A 
HETATM   85  C   UNL     1      81.462  24.408  31.925  1.00  0.00     0.132 A 
HETATM   86  C   UNL     1      82.025  23.182  32.269  1.00  0.00     0.102 A 
HETATM   87  C   UNL     1      81.267  22.010  32.237  1.00  0.00     0.057 A 
BRANCH  84  88
HETATM   88  O   UNL     1      79.541  25.643  31.176  1.00  0.00    -0.358 OA
HETATM   89  H   UNL     1      79.973  26.388  31.647  1.00  0.00     0.217 HD
ENDBRANCH  84  88
BRANCH  85  90
HETATM   90  O   UNL     1      82.218  25.546  31.965  1.00  0.00    -0.356 OA
HETATM   91  H   UNL     1      83.079  25.283  32.346  1.00  0.00     0.218 HD
ENDBRANCH  85  90
BRANCH  86  92
HETATM   92  O   UNL     1      83.350  23.174  32.608  1.00  0.00    -0.358 OA
HETATM   93  H   UNL     1      83.868  23.206  31.783  1.00  0.00     0.217 HD
ENDBRANCH  86  92
ENDBRANCH  80  82
ENDBRANCH  79  80
ENDBRANCH  73  79
ENDBRANCH  67  69
ENDBRANCH  66  67
ENDBRANCH  65  66
ENDBRANCH   2  65
BRANCH   3  94
HETATM   94  O   UNL     1      82.482  23.641  35.943  1.00  0.00    -0.285 OA
BRANCH  94  95
HETATM   95  C   UNL     1      83.171  24.772  35.632  1.00  0.00     0.295 C 
HETATM   96  O   UNL     1      83.161  25.386  34.578  1.00  0.00    -0.259 OA
BRANCH  95  97
HETATM   97  C   UNL     1      83.966  25.155  36.790  1.00  0.00     0.045 A 
HETATM   98  C   UNL     1      83.634  26.314  37.495  1.00  0.00     0.057 A 
HETATM   99  C   UNL     1      84.327  26.602  38.653  1.00  0.00     0.102 A 
HETATM  100  C   UNL     1      85.373  25.781  39.062  1.00  0.00     0.132 A 
HETATM  101  C   UNL     1      85.733  24.660  38.319  1.00  0.00     0.102 A 
HETATM  102  C   UNL     1      85.027  24.330  37.174  1.00  0.00     0.057 A 
BRANCH  99 103
HETATM  103  O   UNL     1      83.953  27.677  39.404  1.00  0.00    -0.358 OA
HETATM  104  H   UNL     1      84.473  27.578  40.229  1.00  0.00     0.217 HD
ENDBRANCH  99 103
BRANCH 100 105
HETATM  105  O   UNL     1      86.042  26.092  40.214  1.00  0.00    -0.356 OA
HETATM  106  H   UNL     1      86.697  25.370  40.307  1.00  0.00     0.218 HD
ENDBRANCH 100 105
BRANCH 101 107
HETATM  107  O   UNL     1      86.775  23.897  38.761  1.00  0.00    -0.358 OA
HETATM  108  H   UNL     1      87.509  23.999  38.128  1.00  0.00     0.217 HD
ENDBRANCH 101 107
ENDBRANCH  95  97
ENDBRANCH  94  95
ENDBRANCH   3  94
TORSDOF 43
ENDMDL
MODEL 6
REMARK VINA RESULT:   -11.117      1.815      3.700
REMARK INTER + INTRA:         -29.635
REMARK INTER:                 -29.157
REMARK INTRA:                  -0.478
REMARK UNBOUND:                 0.655
REMARK WARNING: 32 MAX_TORS EXCEEDED!!!
REMARK  43 active torsions:
REMARK  status: ('A' for Active; 'I' for Inactive)
REMARK    1  A    between atoms: O_2  and  C_27 
REMARK    2  A    between atoms: O_2  and  C_33 
REMARK    3  A    between atoms: O_3  and  C_28 
REMARK    4  A    between atoms: O_3  and  C_34 
REMARK    5  A    between atoms: O_4  and  C_29 
REMARK    6  A    between atoms: O_4  and  C_35 
REMARK    7  A    between atoms: O_5  and  C_31 
REMARK    8  A    between atoms: O_5  and  C_36 
REMARK    9  A    between atoms: O_6  and  C_32 
REMARK   10  A    between atoms: O_6  and  C_39 
REMARK   11  A    between atoms: O_12  and  C_51 
REMARK   12  A    between atoms: O_13  and  C_52 
REMARK   13  A    between atoms: O_13  and  C_99 
REMARK   14  A    between atoms: O_14  and  C_53 
REMARK   15  A    between atoms: O_15  and  C_54 
REMARK   16  A    between atoms: O_16  and  C_55 
REMARK   17  A    between atoms: O_17  and  C_56 
REMARK   18  A    between atoms: O_18  and  C_59 
REMARK   19  A    between atoms: O_19  and  C_60 
REMARK   20  A    between atoms: O_20  and  C_61 
REMARK   21  A    between atoms: O_21  and  C_62 
REMARK   22  A    between atoms: O_22  and  C_63 
REMARK   23  A    between atoms: O_23  and  C_64 
REMARK   24  A    between atoms: O_24  and  C_65 
REMARK   25  A    between atoms: O_24  and  C_85 
REMARK   26  A    between atoms: O_25  and  C_66 
REMARK   27  A    between atoms: O_26  and  C_67 
REMARK   28  A    between atoms: C_28  and  C_30 
REMARK   29  A    between atoms: C_29  and  C_31 
REMARK   30  A    between atoms: C_30  and  C_32 
REMARK   31  A    between atoms: C_33  and  C_37 
REMARK   32  A    between atoms: C_34  and  C_38 
REMARK   33  A    between atoms: C_35  and  C_40 
REMARK   34  A    between atoms: C_36  and  C_41 
REMARK   35  A    between atoms: C_39  and  C_42 
REMARK   36  A    between atoms: O_82  and  C_89 
REMARK   37  A    between atoms: O_83  and  C_90 
REMARK   38  A    between atoms: O_84  and  C_91 
REMARK   39  A    between atoms: C_85  and  C_86 
REMARK   40  A    between atoms: O_96  and  C_103 
REMARK   41  A    between atoms: O_97  and  C_104 
REMARK   42  A    between atoms: O_98  and  C_105 
REMARK   43  A    between atoms: C_99  and  C_100 
ROOT
HETATM    1  O   UNL     1      82.046  23.577  38.706  1.00  0.00    -0.348 OA
HETATM    2  C   UNL     1      80.919  24.076  38.121  1.00  0.00     0.201 A 
HETATM    3  C   UNL     1      82.223  24.544  37.773  1.00  0.00     0.282 A 
ENDROOT
BRANCH   2   4
HETATM    4  C   UNL     1      80.681  24.851  38.272  1.00  0.00     0.199 A 
HETATM    5  C   UNL     1      79.068  24.904  38.323  1.00  0.00     0.198 A 
HETATM    6  C   UNL     1      79.934  24.402  39.404  1.00  0.00     0.215 A 
BRANCH   4   7
HETATM    7  O   UNL     1      80.427  25.236  36.598  1.00  0.00    -0.306 OA
BRANCH   7   8
HETATM    8  C   UNL     1      80.561  26.119  35.621  1.00  0.00     0.294 C 
HETATM    9  O   UNL     1      80.567  27.329  35.817  1.00  0.00    -0.259 OA
BRANCH   8  10
HETATM   10  C   UNL     1      80.837  25.636  34.279  1.00  0.00     0.045 A 
HETATM   11  C   UNL     1      82.040  24.946  34.083  1.00  0.00     0.057 A 
HETATM   12  C   UNL     1      82.144  24.081  33.009  1.00  0.00     0.102 A 
HETATM   13  C   UNL     1      81.075  23.943  32.132  1.00  0.00     0.132 A 
HETATM   14  C   UNL     1      79.937  24.732  32.269  1.00  0.00     0.102 A 
HETATM   15  C   UNL     1      79.792  25.570  33.360  1.00  0.00     0.057 A 
BRANCH  12  16
HETATM   16  O   UNL     1      83.255  23.311  32.813  1.00  0.00    -0.358 OA
HETATM   17  H   UNL     1      82.975  22.378  32.871  1.00  0.00     0.217 HD
ENDBRANCH  12  16
BRANCH  13  18
HETATM   18  O   UNL     1      81.096  22.986  31.155  1.00  0.00    -0.356 OA
HETATM   19  H   UNL     1      80.207  23.051  30.747  1.00  0.00     0.218 HD
ENDBRANCH  13  18
BRANCH  14  20
HETATM   20  O   UNL     1      78.934  24.632  31.350  1.00  0.00    -0.358 OA
HETATM   21  H   UNL     1      78.136  24.471  31.891  1.00  0.00     0.217 HD
ENDBRANCH  14  20
ENDBRANCH   8  10
ENDBRANCH   7   8
ENDBRANCH   4   7
BRANCH   5  22
HETATM   22  O   UNL     1      78.534  26.230  38.568  1.00  0.00    -0.306 OA
BRANCH  22  23
HETATM   23  C   UNL     1      77.241  26.422  38.238  1.00  0.00     0.294 C 
HETATM   24  O   UNL     1      76.315  25.650  38.020  1.00  0.00    -0.259 OA
BRANCH  23  25
HETATM   25  C   UNL     1      77.004  27.803  38.126  1.00  0.00     0.045 C 
HETATM   26  C   UNL     1      75.763  28.004  37.578  1.00  0.00     0.058 C 
HETATM   27  C   UNL     1      75.756  28.885  36.545  1.00  0.00     0.116 C 
HETATM   28  C   UNL     1      76.774  29.849  36.432  1.00  0.00     0.133 C 
HETATM   29  C   UNL     1      77.944  29.717  37.178  1.00  0.00     0.102 C 
HETATM   30  C   UNL     1      78.124  28.593  37.924  1.00  0.00     0.057 C 
BRANCH  27  31
HETATM   31  O   UNL     1      74.839  28.688  35.501  1.00  0.00    -0.272 OA
BRANCH  31  32
HETATM   32  C   UNL     1      74.463  27.386  35.110  1.00  0.00     0.298 C 
HETATM   33  O   UNL     1      73.846  26.520  35.664  1.00  0.00    -0.259 OA
BRANCH  32  34
HETATM   34  C   UNL     1      74.733  27.485  33.675  1.00  0.00     0.045 C 
HETATM   35  C   UNL     1      74.969  26.307  32.966  1.00  0.00     0.057 C 
HETATM   36  C   UNL     1      75.956  26.362  32.000  1.00  0.00     0.102 C 
HETATM   37  C   UNL     1      76.757  27.497  31.877  1.00  0.00     0.132 C 
HETATM   38  C   UNL     1      76.456  28.655  32.574  1.00  0.00     0.102 C 
HETATM   39  C   UNL     1      75.330  28.714  33.354  1.00  0.00     0.057 C 
BRANCH  36  40
HETATM   40  O   UNL     1      76.258  25.280  31.229  1.00  0.00    -0.358 OA
HETATM   41  H   UNL     1      77.032  24.860  31.650  1.00  0.00     0.217 HD
ENDBRANCH  36  40
BRANCH  37  42
HETATM   42  O   UNL     1      77.897  27.461  31.129  1.00  0.00    -0.356 OA
HETATM   43  H   UNL     1      78.608  27.300  31.783  1.00  0.00     0.218 HD
ENDBRANCH  37  42
BRANCH  38  44
HETATM   44  O   UNL     1      77.359  29.669  32.681  1.00  0.00    -0.358 OA
HETATM   45  H   UNL     1      77.243  30.201  31.869  1.00  0.00     0.217 HD
ENDBRANCH  38  44
ENDBRANCH  32  34
ENDBRANCH  31  32
ENDBRANCH  27  31
BRANCH  28  46
HETATM   46  O   UNL     1      76.674  30.922  35.598  1.00  0.00    -0.356 OA
HETATM   47  H   UNL     1      76.008  30.693  34.924  1.00  0.00     0.218 HD
ENDBRANCH  28  46
BRANCH  29  48
HETATM   48  O   UNL     1      78.959  30.617  37.150  1.00  0.00    -0.358 OA
HETATM   49  H   UNL     1      79.723  30.124  36.806  1.00  0.00     0.217 HD
ENDBRANCH  29  48
ENDBRANCH  23  25
ENDBRANCH  22  23
ENDBRANCH   5  22
BRANCH   6  50
HETATM   50  O   UNL     1      78.992  24.308  40.761  1.00  0.00    -0.304 OA
BRANCH  50  51
HETATM   51  C   UNL     1      79.374  24.099  42.053  1.00  0.00     0.294 C 
HETATM   52  O   UNL     1      79.208  24.788  43.039  1.00  0.00    -0.259 OA
BRANCH  51  53
HETATM   53  C   UNL     1      80.076  22.817  42.035  1.00  0.00     0.045 A 
HETATM   54  C   UNL     1      80.844  22.525  43.163  1.00  0.00     0.057 A 
HETATM   55  C   UNL     1      81.561  21.351  43.204  1.00  0.00     0.102 A 
HETATM   56  C   UNL     1      81.481  20.455  42.151  1.00  0.00     0.132 A 
HETATM   57  C   UNL     1      80.678  20.730  41.045  1.00  0.00     0.102 A 
HETATM   58  C   UNL     1      79.975  21.926  40.961  1.00  0.00     0.057 A 
BRANCH  55  59
HETATM   59  O   UNL     1      82.307  21.079  44.307  1.00  0.00    -0.358 OA
HETATM   60  H   UNL     1      81.902  21.610  45.020  1.00  0.00     0.217 HD
ENDBRANCH  55  59
BRANCH  56  61
HETATM   61  O   UNL     1      82.153  19.267  42.240  1.00  0.00    -0.356 OA
HETATM   62  H   UNL     1      82.448  19.094  41.323  1.00  0.00     0.218 HD
ENDBRANCH  56  61
BRANCH  57  63
HETATM   63  O   UNL     1      80.574  19.760  40.088  1.00  0.00    -0.358 OA
HETATM   64  H   UNL     1      80.845  20.160  39.240  1.00  0.00     0.217 HD
ENDBRANCH  57  63
ENDBRANCH  51  53
ENDBRANCH  50  51
ENDBRANCH   6  50
ENDBRANCH   2   4
BRANCH   2  65
HETATM   65  C   UNL     1      79.712  23.409  37.215  1.00  0.00     0.216 C 
BRANCH  65  66
HETATM   66  O   UNL     1      80.084  22.044  37.038  1.00  0.00    -0.315 OA
BRANCH  66  67
HETATM   67  C   UNL     1      79.032  21.239  36.860  1.00  0.00     0.293 C 
HETATM   68  O   UNL     1      78.492  20.560  37.712  1.00  0.00    -0.259 OA
BRANCH  67  69
HETATM   69  C   UNL     1      78.706  21.262  35.426  1.00  0.00     0.045 C 
HETATM   70  C   UNL     1      77.761  22.148  34.874  1.00  0.00     0.057 C 
HETATM   71  C   UNL     1      77.572  22.176  33.503  1.00  0.00     0.102 C 
HETATM   72  C   UNL     1      78.425  21.462  32.677  1.00  0.00     0.133 C 
HETATM   73  C   UNL     1      79.441  20.693  33.250  1.00  0.00     0.116 C 
HETATM   74  C   UNL     1      79.486  20.454  34.616  1.00  0.00     0.058 C 
BRANCH  71  75
HETATM   75  O   UNL     1      76.620  22.988  32.958  1.00  0.00    -0.358 OA
HETATM   76  H   UNL     1      77.109  23.797  32.703  1.00  0.00     0.217 HD
ENDBRANCH  71  75
BRANCH  72  77
HETATM   77  O   UNL     1      78.292  21.640  31.330  1.00  0.00    -0.356 OA
HETATM   78  H   UNL     1      78.140  20.762  30.928  1.00  0.00     0.218 HD
ENDBRANCH  72  77
BRANCH  73  79
HETATM   79  O   UNL     1      80.589  20.364  32.535  1.00  0.00    -0.272 OA
BRANCH  79  80
HETATM   80  C   UNL     1      80.395  19.053  32.125  1.00  0.00     0.298 C 
HETATM   81  O   UNL     1      79.849  18.214  32.828  1.00  0.00    -0.259 OA
BRANCH  80  82
HETATM   82  C   UNL     1      80.916  18.737  30.764  1.00  0.00     0.045 A 
HETATM   83  C   UNL     1      81.990  17.843  30.643  1.00  0.00     0.057 A 
HETATM   84  C   UNL     1      82.520  17.571  29.386  1.00  0.00     0.102 A 
HETATM   85  C   UNL     1      82.005  18.194  28.258  1.00  0.00     0.132 A 
HETATM   86  C   UNL     1      80.943  19.086  28.383  1.00  0.00     0.102 A 
HETATM   87  C   UNL     1      80.372  19.351  29.628  1.00  0.00     0.057 A 
BRANCH  84  88
HETATM   88  O   UNL     1      83.559  16.698  29.317  1.00  0.00    -0.358 OA
HETATM   89  H   UNL     1      83.677  16.254  30.184  1.00  0.00     0.217 HD
ENDBRANCH  84  88
BRANCH  85  90
HETATM   90  O   UNL     1      82.551  17.943  27.030  1.00  0.00    -0.356 OA
HETATM   91  H   UNL     1      83.175  17.200  27.160  1.00  0.00     0.218 HD
ENDBRANCH  85  90
BRANCH  86  92
HETATM   92  O   UNL     1      80.509  19.705  27.243  1.00  0.00    -0.358 OA
HETATM   93  H   UNL     1      79.689  19.263  26.959  1.00  0.00     0.217 HD
ENDBRANCH  86  92
ENDBRANCH  80  82
ENDBRANCH  79  80
ENDBRANCH  73  79
ENDBRANCH  67  69
ENDBRANCH  66  67
ENDBRANCH  65  66
ENDBRANCH   2  65
BRANCH   3  94
HETATM   94  O   UNL     1      83.579  24.045  37.292  1.00  0.00    -0.285 OA
BRANCH  94  95
HETATM   95  C   UNL     1      84.680  24.424  37.996  1.00  0.00     0.295 C 
HETATM   96  O   UNL     1      85.637  23.737  38.309  1.00  0.00    -0.259 OA
BRANCH  95  97
HETATM   97  C   UNL     1      84.537  25.831  38.344  1.00  0.00     0.045 A 
HETATM   98  C   UNL     1      83.680  26.638  37.592  1.00  0.00     0.057 A 
HETATM   99  C   UNL     1      83.471  27.939  38.003  1.00  0.00     0.102 A 
HETATM  100  C   UNL     1      84.155  28.440  39.105  1.00  0.00     0.132 A 
HETATM  101  C   UNL     1      85.052  27.643  39.812  1.00  0.00     0.102 A 
HETATM  102  C   UNL     1      85.248  26.323  39.442  1.00  0.00     0.057 A 
BRANCH  99 103
HETATM  103  O   UNL     1      82.566  28.711  37.337  1.00  0.00    -0.358 OA
HETATM  104  H   UNL     1      82.090  28.072  36.765  1.00  0.00     0.217 HD
ENDBRANCH  99 103
BRANCH 100 105
HETATM  105  O   UNL     1      83.928  29.734  39.488  1.00  0.00    -0.356 OA
HETATM  106  H   UNL     1      83.608  30.167  38.670  1.00  0.00     0.218 HD
ENDBRANCH 100 105
BRANCH 101 107
HETATM  107  O   UNL     1      85.705  28.191  40.878  1.00  0.00    -0.358 OA
HETATM  108  H   UNL     1      86.638  27.915  40.830  1.00  0.00     0.217 HD
ENDBRANCH 101 107
ENDBRANCH  95  97
ENDBRANCH  94  95
ENDBRANCH   3  94
TORSDOF 43
ENDMDL
MODEL 7
REMARK VINA RESULT:   -11.076      2.663      4.673
REMARK INTER + INTRA:         -29.523
REMARK INTER:                 -30.178
REMARK INTRA:                   0.655
REMARK UNBOUND:                 0.655
REMARK WARNING: 32 MAX_TORS EXCEEDED!!!
REMARK  43 active torsions:
REMARK  status: ('A' for Active; 'I' for Inactive)
REMARK    1  A    between atoms: O_2  and  C_27 
REMARK    2  A    between atoms: O_2  and  C_33 
REMARK    3  A    between atoms: O_3  and  C_28 
REMARK    4  A    between atoms: O_3  and  C_34 
REMARK    5  A    between atoms: O_4  and  C_29 
REMARK    6  A    between atoms: O_4  and  C_35 
REMARK    7  A    between atoms: O_5  and  C_31 
REMARK    8  A    between atoms: O_5  and  C_36 
REMARK    9  A    between atoms: O_6  and  C_32 
REMARK   10  A    between atoms: O_6  and  C_39 
REMARK   11  A    between atoms: O_12  and  C_51 
REMARK   12  A    between atoms: O_13  and  C_52 
REMARK   13  A    between atoms: O_13  and  C_99 
REMARK   14  A    between atoms: O_14  and  C_53 
REMARK   15  A    between atoms: O_15  and  C_54 
REMARK   16  A    between atoms: O_16  and  C_55 
REMARK   17  A    between atoms: O_17  and  C_56 
REMARK   18  A    between atoms: O_18  and  C_59 
REMARK   19  A    between atoms: O_19  and  C_60 
REMARK   20  A    between atoms: O_20  and  C_61 
REMARK   21  A    between atoms: O_21  and  C_62 
REMARK   22  A    between atoms: O_22  and  C_63 
REMARK   23  A    between atoms: O_23  and  C_64 
REMARK   24  A    between atoms: O_24  and  C_65 
REMARK   25  A    between atoms: O_24  and  C_85 
REMARK   26  A    between atoms: O_25  and  C_66 
REMARK   27  A    between atoms: O_26  and  C_67 
REMARK   28  A    between atoms: C_28  and  C_30 
REMARK   29  A    between atoms: C_29  and  C_31 
REMARK   30  A    between atoms: C_30  and  C_32 
REMARK   31  A    between atoms: C_33  and  C_37 
REMARK   32  A    between atoms: C_34  and  C_38 
REMARK   33  A    between atoms: C_35  and  C_40 
REMARK   34  A    between atoms: C_36  and  C_41 
REMARK   35  A    between atoms: C_39  and  C_42 
REMARK   36  A    between atoms: O_82  and  C_89 
REMARK   37  A    between atoms: O_83  and  C_90 
REMARK   38  A    between atoms: O_84  and  C_91 
REMARK   39  A    between atoms: C_85  and  C_86 
REMARK   40  A    between atoms: O_96  and  C_103 
REMARK   41  A    between atoms: O_97  and  C_104 
REMARK   42  A    between atoms: O_98  and  C_105 
REMARK   43  A    between atoms: C_99  and  C_100 
ROOT
HETATM    1  O   UNL     1      81.649  22.054  37.222  1.00  0.00    -0.348 OA
HETATM    2  C   UNL     1      80.709  22.742  37.932  1.00  0.00     0.201 A 
HETATM    3  C   UNL     1      81.787  23.402  37.265  1.00  0.00     0.282 A 
ENDROOT
BRANCH   2   4
HETATM    4  C   UNL     1      80.914  23.120  38.636  1.00  0.00     0.199 A 
HETATM    5  C   UNL     1      79.748  22.867  39.725  1.00  0.00     0.198 A 
HETATM    6  C   UNL     1      80.776  21.884  39.340  1.00  0.00     0.215 A 
BRANCH   4   7
HETATM    7  O   UNL     1      79.987  24.547  38.291  1.00  0.00    -0.306 OA
BRANCH   7   8
HETATM    8  C   UNL     1      79.801  25.840  38.511  1.00  0.00     0.294 C 
HETATM    9  O   UNL     1      79.607  26.300  39.630  1.00  0.00    -0.259 OA
BRANCH   8  10
HETATM   10  C   UNL     1      79.958  26.763  37.401  1.00  0.00     0.045 A 
HETATM   11  C   UNL     1      80.031  26.212  36.116  1.00  0.00     0.057 A 
HETATM   12  C   UNL     1      79.708  27.006  35.031  1.00  0.00     0.102 A 
HETATM   13  C   UNL     1      79.357  28.336  35.233  1.00  0.00     0.132 A 
HETATM   14  C   UNL     1      79.415  28.901  36.504  1.00  0.00     0.102 A 
HETATM   15  C   UNL     1      79.691  28.115  37.609  1.00  0.00     0.057 A 
BRANCH  12  16
HETATM   16  O   UNL     1      79.671  26.506  33.761  1.00  0.00    -0.358 OA
HETATM   17  H   UNL     1      79.194  25.656  33.798  1.00  0.00     0.217 HD
ENDBRANCH  12  16
BRANCH  13  18
HETATM   18  O   UNL     1      78.889  29.097  34.198  1.00  0.00    -0.356 OA
HETATM   19  H   UNL     1      78.229  29.684  34.622  1.00  0.00     0.218 HD
ENDBRANCH  13  18
BRANCH  14  20
HETATM   20  O   UNL     1      79.140  30.228  36.665  1.00  0.00    -0.358 OA
HETATM   21  H   UNL     1      79.225  30.369  37.628  1.00  0.00     0.217 HD
ENDBRANCH  14  20
ENDBRANCH   8  10
ENDBRANCH   7   8
ENDBRANCH   4   7
BRANCH   5  22
HETATM   22  O   UNL     1      79.996  23.503  41.004  1.00  0.00    -0.306 OA
BRANCH  22  23
HETATM   23  C   UNL     1      78.909  23.782  41.752  1.00  0.00     0.294 C 
HETATM   24  O   UNL     1      77.738  23.997  41.468  1.00  0.00    -0.259 OA
BRANCH  23  25
HETATM   25  C   UNL     1      79.293  23.833  43.104  1.00  0.00     0.045 C 
HETATM   26  C   UNL     1      79.286  25.139  43.523  1.00  0.00     0.058 C 
HETATM   27  C   UNL     1      80.418  25.512  44.175  1.00  0.00     0.116 C 
HETATM   28  C   UNL     1      81.225  24.543  44.799  1.00  0.00     0.133 C 
HETATM   29  C   UNL     1      81.051  23.193  44.499  1.00  0.00     0.102 C 
HETATM   30  C   UNL     1      80.171  22.846  43.520  1.00  0.00     0.057 C 
BRANCH  27  31
HETATM   31  O   UNL     1      80.863  26.836  44.043  1.00  0.00    -0.272 OA
BRANCH  31  32
HETATM   32  C   UNL     1      80.412  27.839  44.928  1.00  0.00     0.298 C 
HETATM   33  O   UNL     1      79.488  27.889  45.690  1.00  0.00    -0.259 OA
BRANCH  32  34
HETATM   34  C   UNL     1      81.595  28.700  44.930  1.00  0.00     0.045 C 
HETATM   35  C   UNL     1      81.413  30.067  45.136  1.00  0.00     0.057 C 
HETATM   36  C   UNL     1      82.202  30.911  44.377  1.00  0.00     0.102 C 
HETATM   37  C   UNL     1      83.008  30.394  43.362  1.00  0.00     0.132 C 
HETATM   38  C   UNL     1      83.186  29.028  43.225  1.00  0.00     0.102 C 
HETATM   39  C   UNL     1      82.613  28.168  44.125  1.00  0.00     0.057 C 
BRANCH  36  40
HETATM   40  O   UNL     1      82.130  32.265  44.508  1.00  0.00    -0.358 OA
HETATM   41  H   UNL     1      82.402  32.459  45.424  1.00  0.00     0.217 HD
ENDBRANCH  36  40
BRANCH  37  42
HETATM   42  O   UNL     1      83.570  31.223  42.435  1.00  0.00    -0.356 OA
HETATM   43  H   UNL     1      82.907  31.265  41.716  1.00  0.00     0.218 HD
ENDBRANCH  37  42
BRANCH  38  44
HETATM   44  O   UNL     1      83.736  28.497  42.097  1.00  0.00    -0.358 OA
HETATM   45  H   UNL     1      83.437  29.078  41.370  1.00  0.00     0.217 HD
ENDBRANCH  38  44
ENDBRANCH  32  34
ENDBRANCH  31  32
ENDBRANCH  27  31
BRANCH  28  46
HETATM   46  O   UNL     1      82.200  24.872  45.693  1.00  0.00    -0.356 OA
HETATM   47  H   UNL     1      82.662  25.650  45.331  1.00  0.00     0.218 HD
ENDBRANCH  28  46
BRANCH  29  48
HETATM   48  O   UNL     1      81.765  22.196  45.079  1.00  0.00    -0.358 OA
HETATM   49  H   UNL     1      81.835  22.448  46.015  1.00  0.00     0.217 HD
ENDBRANCH  29  48
ENDBRANCH  23  25
ENDBRANCH  22  23
ENDBRANCH   5  22
BRANCH   6  50
HETATM   50  O   UNL     1      80.748  20.695  40.489  1.00  0.00    -0.304 OA
BRANCH  50  51
HETATM   51  C   UNL     1      80.023  19.541  40.507  1.00  0.00     0.294 C 
HETATM   52  O   UNL     1      79.101  19.185  39.802  1.00  0.00    -0.259 OA
BRANCH  51  53
HETATM   53  C   UNL     1      80.585  18.761  41.608  1.00  0.00     0.045 A 
HETATM   54  C   UNL     1      81.164  19.496  42.644  1.00  0.00     0.057 A 
HETATM   55  C   UNL     1      81.744  18.829  43.700  1.00  0.00     0.102 A 
HETATM   56  C   UNL     1      81.709  17.445  43.746  1.00  0.00     0.132 A 
HETATM   57  C   UNL     1      81.091  16.717  42.732  1.00  0.00     0.102 A 
HETATM   58  C   UNL     1      80.533  17.364  41.635  1.00  0.00     0.057 A 
BRANCH  55  59
HETATM   59  O   UNL     1      82.308  19.555  44.701  1.00  0.00    -0.358 OA
HETATM   60  H   UNL     1      82.794  20.270  44.247  1.00  0.00     0.217 HD
ENDBRANCH  55  59
BRANCH  56  61
HETATM   61  O   UNL     1      82.237  16.806  44.834  1.00  0.00    -0.356 OA
HETATM   62  H   UNL     1      82.078  17.427  45.573  1.00  0.00     0.218 HD
ENDBRANCH  56  61
BRANCH  57  63
HETATM   63  O   UNL     1      81.013  15.361  42.890  1.00  0.00    -0.358 OA
HETATM   64  H   UNL     1      81.832  14.979  42.524  1.00  0.00     0.217 HD
ENDBRANCH  57  63
ENDBRANCH  51  53
ENDBRANCH  50  51
ENDBRANCH   6  50
ENDBRANCH   2   4
BRANCH   2  65
HETATM   65  C   UNL     1      79.073  22.904  37.801  1.00  0.00     0.216 C 
BRANCH  65  66
HETATM   66  O   UNL     1      78.673  21.932  36.837  1.00  0.00    -0.315 OA
BRANCH  66  67
HETATM   67  C   UNL     1      78.711  22.398  35.584  1.00  0.00     0.293 C 
HETATM   68  O   UNL     1      78.495  23.542  35.235  1.00  0.00    -0.259 OA
BRANCH  67  69
HETATM   69  C   UNL     1      78.977  21.251  34.704  1.00  0.00     0.045 C 
HETATM   70  C   UNL     1      78.490  19.957  34.970  1.00  0.00     0.057 C 
HETATM   71  C   UNL     1      78.703  18.945  34.049  1.00  0.00     0.102 C 
HETATM   72  C   UNL     1      79.238  19.247  32.809  1.00  0.00     0.133 C 
HETATM   73  C   UNL     1      79.591  20.569  32.523  1.00  0.00     0.116 C 
HETATM   74  C   UNL     1      79.621  21.540  33.512  1.00  0.00     0.058 C 
BRANCH  71  75
HETATM   75  O   UNL     1      78.286  17.673  34.320  1.00  0.00    -0.358 OA
HETATM   76  H   UNL     1      77.316  17.755  34.430  1.00  0.00     0.217 HD
ENDBRANCH  71  75
BRANCH  72  77
HETATM   77  O   UNL     1      79.289  18.244  31.884  1.00  0.00    -0.356 OA
HETATM   78  H   UNL     1      79.340  17.396  32.368  1.00  0.00     0.218 HD
ENDBRANCH  72  77
BRANCH  73  79
HETATM   79  O   UNL     1      79.661  21.031  31.211  1.00  0.00    -0.272 OA
BRANCH  79  80
HETATM   80  C   UNL     1      80.997  20.907  30.857  1.00  0.00     0.298 C 
HETATM   81  O   UNL     1      81.872  21.626  31.315  1.00  0.00    -0.259 OA
BRANCH  80  82
HETATM   82  C   UNL     1      81.284  19.834  29.860  1.00  0.00     0.045 A 
HETATM   83  C   UNL     1      80.483  19.749  28.711  1.00  0.00     0.057 A 
HETATM   84  C   UNL     1      80.707  18.729  27.792  1.00  0.00     0.102 A 
HETATM   85  C   UNL     1      81.700  17.788  28.018  1.00  0.00     0.132 A 
HETATM   86  C   UNL     1      82.488  17.872  29.162  1.00  0.00     0.102 A 
HETATM   87  C   UNL     1      82.307  18.904  30.084  1.00  0.00     0.057 A 
BRANCH  84  88
HETATM   88  O   UNL     1      79.908  18.687  26.694  1.00  0.00    -0.358 OA
HETATM   89  H   UNL     1      79.486  19.562  26.557  1.00  0.00     0.217 HD
ENDBRANCH  84  88
BRANCH  85  90
HETATM   90  O   UNL     1      81.893  16.772  27.124  1.00  0.00    -0.356 OA
HETATM   91  H   UNL     1      82.346  16.060  27.619  1.00  0.00     0.218 HD
ENDBRANCH  85  90
BRANCH  86  92
HETATM   92  O   UNL     1      83.419  16.888  29.355  1.00  0.00    -0.358 OA
HETATM   93  H   UNL     1      84.261  17.197  28.971  1.00  0.00     0.217 HD
ENDBRANCH  86  92
ENDBRANCH  80  82
ENDBRANCH  79  80
ENDBRANCH  73  79
ENDBRANCH  67  69
ENDBRANCH  66  67
ENDBRANCH  65  66
ENDBRANCH   2  65
BRANCH   3  94
HETATM   94  O   UNL     1      82.439  23.531  35.896  1.00  0.00    -0.285 OA
BRANCH  94  95
HETATM   95  C   UNL     1      83.158  24.658  35.640  1.00  0.00     0.295 C 
HETATM   96  O   UNL     1      83.223  25.280  34.594  1.00  0.00    -0.259 OA
BRANCH  95  97
HETATM   97  C   UNL     1      83.879  25.023  36.852  1.00  0.00     0.045 A 
HETATM   98  C   UNL     1      84.943  24.226  37.281  1.00  0.00     0.057 A 
HETATM   99  C   UNL     1      85.685  24.647  38.366  1.00  0.00     0.102 A 
HETATM  100  C   UNL     1      85.330  25.807  39.046  1.00  0.00     0.132 A 
HETATM  101  C   UNL     1      84.231  26.563  38.644  1.00  0.00     0.102 A 
HETATM  102  C   UNL     1      83.495  26.180  37.534  1.00  0.00     0.057 A 
BRANCH  99 103
HETATM  103  O   UNL     1      86.784  23.932  38.740  1.00  0.00    -0.358 OA
HETATM  104  H   UNL     1      86.477  23.002  38.716  1.00  0.00     0.217 HD
ENDBRANCH  99 103
BRANCH 100 105
HETATM  105  O   UNL     1      86.083  26.199  40.119  1.00  0.00    -0.356 OA
HETATM  106  H   UNL     1      85.443  26.221  40.860  1.00  0.00     0.218 HD
ENDBRANCH 100 105
BRANCH 101 107
HETATM  107  O   UNL     1      83.921  27.685  39.355  1.00  0.00    -0.358 OA
HETATM  108  H   UNL     1      83.903  27.444  40.300  1.00  0.00     0.217 HD
ENDBRANCH 101 107
ENDBRANCH  95  97
ENDBRANCH  94  95
ENDBRANCH   3  94
TORSDOF 43
ENDMDL
MODEL 8
REMARK VINA RESULT:   -11.038      2.378      6.985
REMARK INTER + INTRA:         -29.419
REMARK INTER:                 -24.164
REMARK INTRA:                  -5.255
REMARK UNBOUND:                 0.655
REMARK WARNING: 32 MAX_TORS EXCEEDED!!!
REMARK  43 active torsions:
REMARK  status: ('A' for Active; 'I' for Inactive)
REMARK    1  A    between atoms: O_2  and  C_27 
REMARK    2  A    between atoms: O_2  and  C_33 
REMARK    3  A    between atoms: O_3  and  C_28 
REMARK    4  A    between atoms: O_3  and  C_34 
REMARK    5  A    between atoms: O_4  and  C_29 
REMARK    6  A    between atoms: O_4  and  C_35 
REMARK    7  A    between atoms: O_5  and  C_31 
REMARK    8  A    between atoms: O_5  and  C_36 
REMARK    9  A    between atoms: O_6  and  C_32 
REMARK   10  A    between atoms: O_6  and  C_39 
REMARK   11  A    between atoms: O_12  and  C_51 
REMARK   12  A    between atoms: O_13  and  C_52 
REMARK   13  A    between atoms: O_13  and  C_99 
REMARK   14  A    between atoms: O_14  and  C_53 
REMARK   15  A    between atoms: O_15  and  C_54 
REMARK   16  A    between atoms: O_16  and  C_55 
REMARK   17  A    between atoms: O_17  and  C_56 
REMARK   18  A    between atoms: O_18  and  C_59 
REMARK   19  A    between atoms: O_19  and  C_60 
REMARK   20  A    between atoms: O_20  and  C_61 
REMARK   21  A    between atoms: O_21  and  C_62 
REMARK   22  A    between atoms: O_22  and  C_63 
REMARK   23  A    between atoms: O_23  and  C_64 
REMARK   24  A    between atoms: O_24  and  C_65 
REMARK   25  A    between atoms: O_24  and  C_85 
REMARK   26  A    between atoms: O_25  and  C_66 
REMARK   27  A    between atoms: O_26  and  C_67 
REMARK   28  A    between atoms: C_28  and  C_30 
REMARK   29  A    between atoms: C_29  and  C_31 
REMARK   30  A    between atoms: C_30  and  C_32 
REMARK   31  A    between atoms: C_33  and  C_37 
REMARK   32  A    between atoms: C_34  and  C_38 
REMARK   33  A    between atoms: C_35  and  C_40 
REMARK   34  A    between atoms: C_36  and  C_41 
REMARK   35  A    between atoms: C_39  and  C_42 
REMARK   36  A    between atoms: O_82  and  C_89 
REMARK   37  A    between atoms: O_83  and  C_90 
REMARK   38  A    between atoms: O_84  and  C_91 
REMARK   39  A    between atoms: C_85  and  C_86 
REMARK   40  A    between atoms: O_96  and  C_103 
REMARK   41  A    between atoms: O_97  and  C_104 
REMARK   42  A    between atoms: O_98  and  C_105 
REMARK   43  A    between atoms: C_99  and  C_100 
ROOT
HETATM    1  O   UNL     1      82.504  22.925  32.369  1.00  0.00    -0.348 OA
HETATM    2  C   UNL     1      81.388  23.459  32.945  1.00  0.00     0.201 A 
HETATM    3  C   UNL     1      81.556  23.404  31.527  1.00  0.00     0.282 A 
ENDROOT
BRANCH   2   4
HETATM    4  C   UNL     1      81.243  24.269  32.897  1.00  0.00     0.199 A 
HETATM    5  C   UNL     1      80.490  24.747  34.243  1.00  0.00     0.198 A 
HETATM    6  C   UNL     1      81.932  24.467  34.133  1.00  0.00     0.215 A 
BRANCH   4   7
HETATM    7  O   UNL     1      79.619  24.073  32.313  1.00  0.00    -0.306 OA
BRANCH   7   8
HETATM    8  C   UNL     1      78.612  24.580  31.620  1.00  0.00     0.294 C 
HETATM    9  O   UNL     1      78.767  25.154  30.548  1.00  0.00    -0.259 OA
BRANCH   8  10
HETATM   10  C   UNL     1      77.257  24.339  32.084  1.00  0.00     0.045 A 
HETATM   11  C   UNL     1      76.286  25.290  31.746  1.00  0.00     0.057 A 
HETATM   12  C   UNL     1      74.957  24.908  31.733  1.00  0.00     0.102 A 
HETATM   13  C   UNL     1      74.611  23.611  32.092  1.00  0.00     0.132 A 
HETATM   14  C   UNL     1      75.576  22.719  32.549  1.00  0.00     0.102 A 
HETATM   15  C   UNL     1      76.916  23.063  32.527  1.00  0.00     0.057 A 
BRANCH  12  16
HETATM   16  O   UNL     1      73.970  25.760  31.326  1.00  0.00    -0.358 OA
HETATM   17  H   UNL     1      73.231  25.212  30.999  1.00  0.00     0.217 HD
ENDBRANCH  12  16
BRANCH  13  18
HETATM   18  O   UNL     1      73.325  23.167  31.942  1.00  0.00    -0.356 OA
HETATM   19  H   UNL     1      72.847  23.953  31.604  1.00  0.00     0.218 HD
ENDBRANCH  13  18
BRANCH  14  20
HETATM   20  O   UNL     1      75.199  21.476  32.968  1.00  0.00    -0.358 OA
HETATM   21  H   UNL     1      76.033  20.965  32.960  1.00  0.00     0.217 HD
ENDBRANCH  14  20
ENDBRANCH   8  10
ENDBRANCH   7   8
ENDBRANCH   4   7
BRANCH   5  22
HETATM   22  O   UNL     1      80.168  26.161  34.261  1.00  0.00    -0.306 OA
BRANCH  22  23
HETATM   23  C   UNL     1      78.979  26.495  34.804  1.00  0.00     0.294 C 
HETATM   24  O   UNL     1      77.850  26.037  34.678  1.00  0.00    -0.259 OA
BRANCH  23  25
HETATM   25  C   UNL     1      79.165  27.604  35.648  1.00  0.00     0.045 C 
HETATM   26  C   UNL     1      79.533  27.163  36.893  1.00  0.00     0.058 C 
HETATM   27  C   UNL     1      78.816  27.717  37.905  1.00  0.00     0.116 C 
HETATM   28  C   UNL     1      78.179  28.958  37.722  1.00  0.00     0.133 C 
HETATM   29  C   UNL     1      78.015  29.474  36.438  1.00  0.00     0.102 C 
HETATM   30  C   UNL     1      78.379  28.710  35.372  1.00  0.00     0.057 C 
BRANCH  27  31
HETATM   31  O   UNL     1      78.562  26.944  39.049  1.00  0.00    -0.272 OA
BRANCH  31  32
HETATM   32  C   UNL     1      77.273  26.424  39.294  1.00  0.00     0.298 C 
HETATM   33  O   UNL     1      76.182  26.923  39.281  1.00  0.00    -0.259 OA
BRANCH  32  34
HETATM   34  C   UNL     1      77.580  24.995  39.232  1.00  0.00     0.045 C 
HETATM   35  C   UNL     1      78.777  24.554  39.795  1.00  0.00     0.057 C 
HETATM   36  C   UNL     1      79.454  23.570  39.099  1.00  0.00     0.102 C 
HETATM   37  C   UNL     1      79.018  23.177  37.834  1.00  0.00     0.132 C 
HETATM   38  C   UNL     1      77.801  23.613  37.337  1.00  0.00     0.102 C 
HETATM   39  C   UNL     1      76.984  24.396  38.111  1.00  0.00     0.057 C 
BRANCH  36  40
HETATM   40  O   UNL     1      80.622  23.044  39.563  1.00  0.00    -0.358 OA
HETATM   41  H   UNL     1      80.828  22.292  38.977  1.00  0.00     0.217 HD
ENDBRANCH  36  40
BRANCH  37  42
HETATM   42  O   UNL     1      79.819  22.421  37.029  1.00  0.00    -0.356 OA
HETATM   43  H   UNL     1      80.340  21.875  37.653  1.00  0.00     0.218 HD
ENDBRANCH  37  42
BRANCH  38  44
HETATM   44  O   UNL     1      77.483  23.469  36.020  1.00  0.00    -0.358 OA
HETATM   45  H   UNL     1      77.201  24.358  35.727  1.00  0.00     0.217 HD
ENDBRANCH  38  44
ENDBRANCH  32  34
ENDBRANCH  31  32
ENDBRANCH  27  31
BRANCH  28  46
HETATM   46  O   UNL     1      77.691  29.688  38.764  1.00  0.00    -0.356 OA
HETATM   47  H   UNL     1      78.426  29.807  39.392  1.00  0.00     0.218 HD
ENDBRANCH  28  46
BRANCH  29  48
HETATM   48  O   UNL     1      77.439  30.675  36.178  1.00  0.00    -0.358 OA
HETATM   49  H   UNL     1      78.153  31.325  36.292  1.00  0.00     0.217 HD
ENDBRANCH  29  48
ENDBRANCH  23  25
ENDBRANCH  22  23
ENDBRANCH   5  22
BRANCH   6  50
HETATM   50  O   UNL     1      82.645  25.113  35.478  1.00  0.00    -0.304 OA
BRANCH  50  51
HETATM   51  C   UNL     1      82.739  24.585  36.732  1.00  0.00     0.294 C 
HETATM   52  O   UNL     1      82.368  23.511  37.158  1.00  0.00    -0.259 OA
BRANCH  51  53
HETATM   53  C   UNL     1      83.401  25.618  37.525  1.00  0.00     0.045 A 
HETATM   54  C   UNL     1      84.483  25.195  38.298  1.00  0.00     0.057 A 
HETATM   55  C   UNL     1      85.136  26.105  39.098  1.00  0.00     0.102 A 
HETATM   56  C   UNL     1      84.744  27.433  39.097  1.00  0.00     0.132 A 
HETATM   57  C   UNL     1      83.691  27.861  38.290  1.00  0.00     0.102 A 
HETATM   58  C   UNL     1      82.990  26.955  37.503  1.00  0.00     0.057 A 
BRANCH  55  59
HETATM   59  O   UNL     1      86.187  25.680  39.849  1.00  0.00    -0.358 OA
HETATM   60  H   UNL     1      86.244  24.720  39.678  1.00  0.00     0.217 HD
ENDBRANCH  55  59
BRANCH  56  61
HETATM   61  O   UNL     1      85.445  28.331  39.853  1.00  0.00    -0.356 OA
HETATM   62  H   UNL     1      85.535  29.112  39.270  1.00  0.00     0.218 HD
ENDBRANCH  56  61
BRANCH  57  63
HETATM   63  O   UNL     1      83.420  29.200  38.269  1.00  0.00    -0.358 OA
HETATM   64  H   UNL     1      83.423  29.482  37.335  1.00  0.00     0.217 HD
ENDBRANCH  57  63
ENDBRANCH  51  53
ENDBRANCH  50  51
ENDBRANCH   6  50
ENDBRANCH   2   4
BRANCH   2  65
HETATM   65  C   UNL     1      80.217  22.855  33.937  1.00  0.00     0.216 C 
BRANCH  65  66
HETATM   66  O   UNL     1      80.428  21.445  33.956  1.00  0.00    -0.315 OA
BRANCH  66  67
HETATM   67  C   UNL     1      79.291  20.752  34.076  1.00  0.00     0.293 C 
HETATM   68  O   UNL     1      78.433  20.916  34.923  1.00  0.00    -0.259 OA
BRANCH  67  69
HETATM   69  C   UNL     1      79.314  19.700  33.049  1.00  0.00     0.045 C 
HETATM   70  C   UNL     1      80.244  18.643  33.062  1.00  0.00     0.057 C 
HETATM   71  C   UNL     1      80.147  17.639  32.114  1.00  0.00     0.102 C 
HETATM   72  C   UNL     1      79.048  17.591  31.273  1.00  0.00     0.133 C 
HETATM   73  C   UNL     1      78.071  18.585  31.373  1.00  0.00     0.116 C 
HETATM   74  C   UNL     1      78.274  19.726  32.134  1.00  0.00     0.058 C 
BRANCH  71  75
HETATM   75  O   UNL     1      81.075  16.637  32.079  1.00  0.00    -0.358 OA
HETATM   76  H   UNL     1      80.658  15.941  31.531  1.00  0.00     0.217 HD
ENDBRANCH  71  75
BRANCH  72  77
HETATM   77  O   UNL     1      78.924  16.502  30.459  1.00  0.00    -0.356 OA
HETATM   78  H   UNL     1      77.984  16.235  30.462  1.00  0.00     0.218 HD
ENDBRANCH  72  77
BRANCH  73  79
HETATM   79  O   UNL     1      76.764  18.360  30.947  1.00  0.00    -0.272 OA
BRANCH  79  80
HETATM   80  C   UNL     1      76.748  18.746  29.615  1.00  0.00     0.298 C 
HETATM   81  O   UNL     1      77.278  18.091  28.730  1.00  0.00    -0.259 OA
BRANCH  80  82
HETATM   82  C   UNL     1      76.046  20.034  29.344  1.00  0.00     0.045 A 
HETATM   83  C   UNL     1      76.813  21.184  29.108  1.00  0.00     0.057 A 
HETATM   84  C   UNL     1      76.177  22.404  28.898  1.00  0.00     0.102 A 
HETATM   85  C   UNL     1      74.793  22.489  28.943  1.00  0.00     0.132 A 
HETATM   86  C   UNL     1      74.035  21.346  29.184  1.00  0.00     0.102 A 
HETATM   87  C   UNL     1      74.647  20.105  29.365  1.00  0.00     0.057 A 
BRANCH  84  88
HETATM   88  O   UNL     1      76.961  23.490  28.672  1.00  0.00    -0.358 OA
HETATM   89  H   UNL     1      77.734  23.234  28.126  1.00  0.00     0.217 HD
ENDBRANCH  84  88
BRANCH  85  90
HETATM   90  O   UNL     1      74.178  23.697  28.764  1.00  0.00    -0.356 OA
HETATM   91  H   UNL     1      74.311  23.930  27.824  1.00  0.00     0.218 HD
ENDBRANCH  85  90
BRANCH  86  92
HETATM   92  O   UNL     1      72.679  21.501  29.263  1.00  0.00    -0.358 OA
HETATM   93  H   UNL     1      72.289  20.622  29.427  1.00  0.00     0.217 HD
ENDBRANCH  86  92
ENDBRANCH  80  82
ENDBRANCH  79  80
ENDBRANCH  73  79
ENDBRANCH  67  69
ENDBRANCH  66  67
ENDBRANCH  65  66
ENDBRANCH   2  65
BRANCH   3  94
HETATM   94  O   UNL     1      81.845  22.424  30.399  1.00  0.00    -0.285 OA
BRANCH  94  95
HETATM   95  C   UNL     1      80.800  22.023  29.625  1.00  0.00     0.295 C 
HETATM   96  O   UNL     1      79.807  22.663  29.324  1.00  0.00    -0.259 OA
BRANCH  95  97
HETATM   97  C   UNL     1      81.049  20.653  29.197  1.00  0.00     0.045 A 
HETATM   98  C   UNL     1      82.090  19.931  29.785  1.00  0.00     0.057 A 
HETATM   99  C   UNL     1      82.241  18.601  29.449  1.00  0.00     0.102 A 
HETATM  100  C   UNL     1      81.408  18.024  28.496  1.00  0.00     0.132 A 
HETATM  101  C   UNL     1      80.411  18.771  27.873  1.00  0.00     0.102 A 
HETATM  102  C   UNL     1      80.216  20.097  28.223  1.00  0.00     0.057 A 
BRANCH  99 103
HETATM  103  O   UNL     1      83.190  17.857  30.084  1.00  0.00    -0.358 OA
HETATM  104  H   UNL     1      84.019  18.085  29.614  1.00  0.00     0.217 HD
ENDBRANCH  99 103
BRANCH 100 105
HETATM  105  O   UNL     1      81.582  16.704  28.183  1.00  0.00    -0.356 OA
HETATM  106  H   UNL     1      81.663  16.265  29.055  1.00  0.00     0.218 HD
ENDBRANCH 100 105
BRANCH 101 107
HETATM  107  O   UNL     1      79.631  18.156  26.936  1.00  0.00    -0.358 OA
HETATM  108  H   UNL     1      79.240  17.363  27.348  1.00  0.00     0.217 HD
ENDBRANCH 101 107
ENDBRANCH  95  97
ENDBRANCH  94  95
ENDBRANCH   3  94
TORSDOF 43
ENDMDL
MODEL 9
REMARK VINA RESULT:   -11.026      2.150      9.699
REMARK INTER + INTRA:         -29.385
REMARK INTER:                 -26.150
REMARK INTRA:                  -3.236
REMARK UNBOUND:                 0.655
REMARK WARNING: 32 MAX_TORS EXCEEDED!!!
REMARK  43 active torsions:
REMARK  status: ('A' for Active; 'I' for Inactive)
REMARK    1  A    between atoms: O_2  and  C_27 
REMARK    2  A    between atoms: O_2  and  C_33 
REMARK    3  A    between atoms: O_3  and  C_28 
REMARK    4  A    between atoms: O_3  and  C_34 
REMARK    5  A    between atoms: O_4  and  C_29 
REMARK    6  A    between atoms: O_4  and  C_35 
REMARK    7  A    between atoms: O_5  and  C_31 
REMARK    8  A    between atoms: O_5  and  C_36 
REMARK    9  A    between atoms: O_6  and  C_32 
REMARK   10  A    between atoms: O_6  and  C_39 
REMARK   11  A    between atoms: O_12  and  C_51 
REMARK   12  A    between atoms: O_13  and  C_52 
REMARK   13  A    between atoms: O_13  and  C_99 
REMARK   14  A    between atoms: O_14  and  C_53 
REMARK   15  A    between atoms: O_15  and  C_54 
REMARK   16  A    between atoms: O_16  and  C_55 
REMARK   17  A    between atoms: O_17  and  C_56 
REMARK   18  A    between atoms: O_18  and  C_59 
REMARK   19  A    between atoms: O_19  and  C_60 
REMARK   20  A    between atoms: O_20  and  C_61 
REMARK   21  A    between atoms: O_21  and  C_62 
REMARK   22  A    between atoms: O_22  and  C_63 
REMARK   23  A    between atoms: O_23  and  C_64 
REMARK   24  A    between atoms: O_24  and  C_65 
REMARK   25  A    between atoms: O_24  and  C_85 
REMARK   26  A    between atoms: O_25  and  C_66 
REMARK   27  A    between atoms: O_26  and  C_67 
REMARK   28  A    between atoms: C_28  and  C_30 
REMARK   29  A    between atoms: C_29  and  C_31 
REMARK   30  A    between atoms: C_30  and  C_32 
REMARK   31  A    between atoms: C_33  and  C_37 
REMARK   32  A    between atoms: C_34  and  C_38 
REMARK   33  A    between atoms: C_35  and  C_40 
REMARK   34  A    between atoms: C_36  and  C_41 
REMARK   35  A    between atoms: C_39  and  C_42 
REMARK   36  A    between atoms: O_82  and  C_89 
REMARK   37  A    between atoms: O_83  and  C_90 
REMARK   38  A    between atoms: O_84  and  C_91 
REMARK   39  A    between atoms: C_85  and  C_86 
REMARK   40  A    between atoms: O_96  and  C_103 
REMARK   41  A    between atoms: O_97  and  C_104 
REMARK   42  A    between atoms: O_98  and  C_105 
REMARK   43  A    between atoms: C_99  and  C_100 
ROOT
HETATM    1  O   UNL     1      80.149  23.844  35.955  1.00  0.00    -0.348 OA
HETATM    2  C   UNL     1      79.489  22.819  35.343  1.00  0.00     0.201 A 
HETATM    3  C   UNL     1      80.800  23.221  34.943  1.00  0.00     0.282 A 
ENDROOT
BRANCH   2   4
HETATM    4  C   UNL     1      79.227  22.898  34.565  1.00  0.00     0.199 A 
HETATM    5  C   UNL     1      77.740  22.281  34.447  1.00  0.00     0.198 A 
HETATM    6  C   UNL     1      78.068  23.596  35.026  1.00  0.00     0.215 A 
BRANCH   4   7
HETATM    7  O   UNL     1      79.699  21.292  34.106  1.00  0.00    -0.306 OA
BRANCH   7   8
HETATM    8  C   UNL     1      80.176  20.493  33.164  1.00  0.00     0.294 C 
HETATM    9  O   UNL     1      80.152  19.271  33.256  1.00  0.00    -0.259 OA
BRANCH   8  10
HETATM   10  C   UNL     1      80.631  21.083  31.917  1.00  0.00     0.045 A 
HETATM   11  C   UNL     1      81.633  20.401  31.215  1.00  0.00     0.057 A 
HETATM   12  C   UNL     1      81.766  20.628  29.857  1.00  0.00     0.102 A 
HETATM   13  C   UNL     1      80.937  21.550  29.230  1.00  0.00     0.132 A 
HETATM   14  C   UNL     1      80.036  22.312  29.967  1.00  0.00     0.102 A 
HETATM   15  C   UNL     1      79.853  22.071  31.317  1.00  0.00     0.057 A 
BRANCH  12  16
HETATM   16  O   UNL     1      82.661  19.930  29.098  1.00  0.00    -0.358 OA
HETATM   17  H   UNL     1      82.243  19.078  28.867  1.00  0.00     0.217 HD
ENDBRANCH  12  16
BRANCH  13  18
HETATM   18  O   UNL     1      80.947  21.681  27.868  1.00  0.00    -0.356 OA
HETATM   19  H   UNL     1      81.900  21.744  27.649  1.00  0.00     0.218 HD
ENDBRANCH  13  18
BRANCH  14  20
HETATM   20  O   UNL     1      79.288  23.265  29.339  1.00  0.00    -0.358 OA
HETATM   21  H   UNL     1      78.783  23.682  30.065  1.00  0.00     0.217 HD
ENDBRANCH  14  20
ENDBRANCH   8  10
ENDBRANCH   7   8
ENDBRANCH   4   7
BRANCH   5  22
HETATM   22  O   UNL     1      77.182  22.353  33.111  1.00  0.00    -0.306 OA
BRANCH  22  23
HETATM   23  C   UNL     1      75.919  21.903  32.967  1.00  0.00     0.294 C 
HETATM   24  O   UNL     1      74.951  21.889  33.717  1.00  0.00    -0.259 OA
BRANCH  23  25
HETATM   25  C   UNL     1      75.783  21.342  31.685  1.00  0.00     0.045 C 
HETATM   26  C   UNL     1      76.227  20.045  31.714  1.00  0.00     0.058 C 
HETATM   27  C   UNL     1      77.095  19.740  30.714  1.00  0.00     0.116 C 
HETATM   28  C   UNL     1      77.093  20.491  29.524  1.00  0.00     0.133 C 
HETATM   29  C   UNL     1      76.439  21.721  29.478  1.00  0.00     0.102 C 
HETATM   30  C   UNL     1      75.904  22.224  30.624  1.00  0.00     0.057 C 
BRANCH  27  31
HETATM   31  O   UNL     1      78.110  18.805  30.968  1.00  0.00    -0.272 OA
BRANCH  31  32
HETATM   32  C   UNL     1      78.182  17.603  30.232  1.00  0.00     0.298 C 
HETATM   33  O   UNL     1      77.345  16.925  29.704  1.00  0.00    -0.259 OA
BRANCH  32  34
HETATM   34  C   UNL     1      79.622  17.570  29.975  1.00  0.00     0.045 C 
HETATM   35  C   UNL     1      80.055  17.600  28.650  1.00  0.00     0.057 C 
HETATM   36  C   UNL     1      81.133  16.792  28.340  1.00  0.00     0.102 C 
HETATM   37  C   UNL     1      81.632  15.894  29.284  1.00  0.00     0.132 C 
HETATM   38  C   UNL     1      81.196  15.933  30.598  1.00  0.00     0.102 C 
HETATM   39  C   UNL     1      80.305  16.894  30.997  1.00  0.00     0.057 C 
BRANCH  36  40
HETATM   40  O   UNL     1      81.658  16.755  27.084  1.00  0.00    -0.358 OA
HETATM   41  H   UNL     1      81.306  17.541  26.624  1.00  0.00     0.217 HD
ENDBRANCH  36  40
BRANCH  37  42
HETATM   42  O   UNL     1      82.499  14.909  28.911  1.00  0.00    -0.356 OA
HETATM   43  H   UNL     1      82.781  14.504  29.757  1.00  0.00     0.218 HD
ENDBRANCH  37  42
BRANCH  38  44
HETATM   44  O   UNL     1      81.459  14.910  31.459  1.00  0.00    -0.358 OA
HETATM   45  H   UNL     1      81.634  15.340  32.319  1.00  0.00     0.217 HD
ENDBRANCH  38  44
ENDBRANCH  32  34
ENDBRANCH  31  32
ENDBRANCH  27  31
BRANCH  28  46
HETATM   46  O   UNL     1      77.728  20.069  28.394  1.00  0.00    -0.356 OA
HETATM   47  H   UNL     1      78.511  20.639  28.283  1.00  0.00     0.218 HD
ENDBRANCH  28  46
BRANCH  29  48
HETATM   48  O   UNL     1      76.365  22.491  28.364  1.00  0.00    -0.358 OA
HETATM   49  H   UNL     1      76.767  21.955  27.660  1.00  0.00     0.217 HD
ENDBRANCH  29  48
ENDBRANCH  23  25
ENDBRANCH  22  23
ENDBRANCH   5  22
BRANCH   6  50
HETATM   50  O   UNL     1      76.646  24.434  35.134  1.00  0.00    -0.304 OA
BRANCH  50  51
HETATM   51  C   UNL     1      76.183  25.436  34.334  1.00  0.00     0.294 C 
HETATM   52  O   UNL     1      75.969  25.447  33.139  1.00  0.00    -0.259 OA
BRANCH  51  53
HETATM   53  C   UNL     1      75.988  26.573  35.230  1.00  0.00     0.045 A 
HETATM   54  C   UNL     1      75.892  26.271  36.589  1.00  0.00     0.057 A 
HETATM   55  C   UNL     1      75.674  27.288  37.492  1.00  0.00     0.102 A 
HETATM   56  C   UNL     1      75.596  28.598  37.051  1.00  0.00     0.132 A 
HETATM   57  C   UNL     1      75.737  28.901  35.698  1.00  0.00     0.102 A 
HETATM   58  C   UNL     1      75.918  27.890  34.762  1.00  0.00     0.057 A 
BRANCH  55  59
HETATM   59  O   UNL     1      75.578  26.980  38.812  1.00  0.00    -0.358 OA
HETATM   60  H   UNL     1      75.918  27.769  39.278  1.00  0.00     0.217 HD
ENDBRANCH  55  59
BRANCH  56  61
HETATM   61  O   UNL     1      75.440  29.597  37.971  1.00  0.00    -0.356 OA
HETATM   62  H   UNL     1      75.457  30.417  37.436  1.00  0.00     0.218 HD
ENDBRANCH  56  61
BRANCH  57  63
HETATM   63  O   UNL     1      75.742  30.222  35.347  1.00  0.00    -0.358 OA
HETATM   64  H   UNL     1      75.318  30.716  36.073  1.00  0.00     0.217 HD
ENDBRANCH  57  63
ENDBRANCH  51  53
ENDBRANCH  50  51
ENDBRANCH   6  50
ENDBRANCH   2   4
BRANCH   2  65
HETATM   65  C   UNL     1      78.894  21.372  35.867  1.00  0.00     0.216 C 
BRANCH  65  66
HETATM   66  O   UNL     1      79.064  21.384  37.282  1.00  0.00    -0.315 OA
BRANCH  66  67
HETATM   67  C   UNL     1      77.915  21.566  37.942  1.00  0.00     0.293 C 
HETATM   68  O   UNL     1      76.825  21.135  37.621  1.00  0.00    -0.259 OA
BRANCH  67  69
HETATM   69  C   UNL     1      78.203  22.457  39.076  1.00  0.00     0.045 C 
HETATM   70  C   UNL     1      79.020  22.074  40.157  1.00  0.00     0.057 C 
HETATM   71  C   UNL     1      79.321  22.997  41.144  1.00  0.00     0.102 C 
HETATM   72  C   UNL     1      78.960  24.323  40.977  1.00  0.00     0.133 C 
HETATM   73  C   UNL     1      78.262  24.700  39.827  1.00  0.00     0.116 C 
HETATM   74  C   UNL     1      77.736  23.756  38.958  1.00  0.00     0.058 C 
BRANCH  71  75
HETATM   75  O   UNL     1      80.065  22.624  42.226  1.00  0.00    -0.358 OA
HETATM   76  H   UNL     1      79.408  22.270  42.861  1.00  0.00     0.217 HD
ENDBRANCH  71  75
BRANCH  72  77
HETATM   77  O   UNL     1      79.409  25.219  41.905  1.00  0.00    -0.356 OA
HETATM   78  H   UNL     1      80.382  25.133  41.954  1.00  0.00     0.218 HD
ENDBRANCH  72  77
BRANCH  73  79
HETATM   79  O   UNL     1      78.296  26.010  39.357  1.00  0.00    -0.272 OA
BRANCH  79  80
HETATM   80  C   UNL     1      79.477  26.103  38.636  1.00  0.00     0.298 C 
HETATM   81  O   UNL     1      80.469  25.441  38.903  1.00  0.00    -0.259 OA
BRANCH  80  82
HETATM   82  C   UNL     1      79.452  27.087  37.515  1.00  0.00     0.045 A 
HETATM   83  C   UNL     1      79.207  28.437  37.808  1.00  0.00     0.057 A 
HETATM   84  C   UNL     1      79.135  29.363  36.772  1.00  0.00     0.102 A 
HETATM   85  C   UNL     1      79.282  28.953  35.455  1.00  0.00     0.132 A 
HETATM   86  C   UNL     1      79.518  27.612  35.168  1.00  0.00     0.102 A 
HETATM   87  C   UNL     1      79.629  26.668  36.190  1.00  0.00     0.057 A 
BRANCH  84  88
HETATM   88  O   UNL     1      78.897  30.659  37.103  1.00  0.00    -0.358 OA
HETATM   89  H   UNL     1      78.657  30.721  38.052  1.00  0.00     0.217 HD
ENDBRANCH  84  88
BRANCH  85  90
HETATM   90  O   UNL     1      79.181  29.865  34.441  1.00  0.00    -0.356 OA
HETATM   91  H   UNL     1      78.975  30.721  34.869  1.00  0.00     0.218 HD
ENDBRANCH  85  90
BRANCH  86  92
HETATM   92  O   UNL     1      79.608  27.260  33.849  1.00  0.00    -0.358 OA
HETATM   93  H   UNL     1      79.462  28.063  33.316  1.00  0.00     0.217 HD
ENDBRANCH  86  92
ENDBRANCH  80  82
ENDBRANCH  79  80
ENDBRANCH  73  79
ENDBRANCH  67  69
ENDBRANCH  66  67
ENDBRANCH  65  66
ENDBRANCH   2  65
BRANCH   3  94
HETATM   94  O   UNL     1      82.199  23.446  35.500  1.00  0.00    -0.285 OA
BRANCH  94  95
HETATM   95  C   UNL     1      82.774  24.663  35.296  1.00  0.00     0.295 C 
HETATM   96  O   UNL     1      82.732  25.347  34.288  1.00  0.00    -0.259 OA
BRANCH  95  97
HETATM   97  C   UNL     1      83.486  25.040  36.509  1.00  0.00     0.045 A 
HETATM   98  C   UNL     1      84.536  24.239  36.962  1.00  0.00     0.057 A 
HETATM   99  C   UNL     1      85.271  24.670  38.048  1.00  0.00     0.102 A 
HETATM  100  C   UNL     1      84.922  25.845  38.705  1.00  0.00     0.132 A 
HETATM  101  C   UNL     1      83.836  26.606  38.278  1.00  0.00     0.102 A 
HETATM  102  C   UNL     1      83.107  26.213  37.167  1.00  0.00     0.057 A 
BRANCH  99 103
HETATM  103  O   UNL     1      86.358  23.949  38.446  1.00  0.00    -0.358 OA
HETATM  104  H   UNL     1      85.971  23.191  38.931  1.00  0.00     0.217 HD
ENDBRANCH  99 103
BRANCH 100 105
HETATM  105  O   UNL     1      85.669  26.246  39.778  1.00  0.00    -0.356 OA
HETATM  106  H   UNL     1      85.489  25.563  40.457  1.00  0.00     0.218 HD
ENDBRANCH 100 105
BRANCH 101 107
HETATM  107  O   UNL     1      83.531  27.744  38.968  1.00  0.00    -0.358 OA
HETATM  108  H   UNL     1      82.581  27.716  39.182  1.00  0.00     0.217 HD
ENDBRANCH 101 107
ENDBRANCH  95  97
ENDBRANCH  94  95
ENDBRANCH   3  94
TORSDOF 43
ENDMDL
MODEL 10
REMARK VINA RESULT:   -10.903      4.891     12.808
REMARK INTER + INTRA:         -29.051
REMARK INTER:                 -27.354
REMARK INTRA:                  -1.697
REMARK UNBOUND:                 0.655
REMARK WARNING: 32 MAX_TORS EXCEEDED!!!
REMARK  43 active torsions:
REMARK  status: ('A' for Active; 'I' for Inactive)
REMARK    1  A    between atoms: O_2  and  C_27 
REMARK    2  A    between atoms: O_2  and  C_33 
REMARK    3  A    between atoms: O_3  and  C_28 
REMARK    4  A    between atoms: O_3  and  C_34 
REMARK    5  A    between atoms: O_4  and  C_29 
REMARK    6  A    between atoms: O_4  and  C_35 
REMARK    7  A    between atoms: O_5  and  C_31 
REMARK    8  A    between atoms: O_5  and  C_36 
REMARK    9  A    between atoms: O_6  and  C_32 
REMARK   10  A    between atoms: O_6  and  C_39 
REMARK   11  A    between atoms: O_12  and  C_51 
REMARK   12  A    between atoms: O_13  and  C_52 
REMARK   13  A    between atoms: O_13  and  C_99 
REMARK   14  A    between atoms: O_14  and  C_53 
REMARK   15  A    between atoms: O_15  and  C_54 
REMARK   16  A    between atoms: O_16  and  C_55 
REMARK   17  A    between atoms: O_17  and  C_56 
REMARK   18  A    between atoms: O_18  and  C_59 
REMARK   19  A    between atoms: O_19  and  C_60 
REMARK   20  A    between atoms: O_20  and  C_61 
REMARK   21  A    between atoms: O_21  and  C_62 
REMARK   22  A    between atoms: O_22  and  C_63 
REMARK   23  A    between atoms: O_23  and  C_64 
REMARK   24  A    between atoms: O_24  and  C_65 
REMARK   25  A    between atoms: O_24  and  C_85 
REMARK   26  A    between atoms: O_25  and  C_66 
REMARK   27  A    between atoms: O_26  and  C_67 
REMARK   28  A    between atoms: C_28  and  C_30 
REMARK   29  A    between atoms: C_29  and  C_31 
REMARK   30  A    between atoms: C_30  and  C_32 
REMARK   31  A    between atoms: C_33  and  C_37 
REMARK   32  A    between atoms: C_34  and  C_38 
REMARK   33  A    between atoms: C_35  and  C_40 
REMARK   34  A    between atoms: C_36  and  C_41 
REMARK   35  A    between atoms: C_39  and  C_42 
REMARK   36  A    between atoms: O_82  and  C_89 
REMARK   37  A    between atoms: O_83  and  C_90 
REMARK   38  A    between atoms: O_84  and  C_91 
REMARK   39  A    between atoms: C_85  and  C_86 
REMARK   40  A    between atoms: O_96  and  C_103 
REMARK   41  A    between atoms: O_97  and  C_104 
REMARK   42  A    between atoms: O_98  and  C_105 
REMARK   43  A    between atoms: C_99  and  C_100 
ROOT
HETATM    1  O   UNL     1      75.922  19.492  32.357  1.00  0.00    -0.348 OA
HETATM    2  C   UNL     1      77.143  19.226  31.809  1.00  0.00     0.201 A 
HETATM    3  C   UNL     1      75.973  19.397  31.006  1.00  0.00     0.282 A 
ENDROOT
BRANCH   2   4
HETATM    4  C   UNL     1      77.286  18.500  31.445  1.00  0.00     0.199 A 
HETATM    5  C   UNL     1      78.796  18.035  31.780  1.00  0.00     0.198 A 
HETATM    6  C   UNL     1      77.655  17.940  32.708  1.00  0.00     0.215 A 
BRANCH   4   7
HETATM    7  O   UNL     1      78.039  19.202  30.048  1.00  0.00    -0.306 OA
BRANCH   7   8
HETATM    8  C   UNL     1      78.362  19.076  28.770  1.00  0.00     0.294 C 
HETATM    9  O   UNL     1      77.594  19.367  27.860  1.00  0.00    -0.259 OA
BRANCH   8  10
HETATM   10  C   UNL     1      79.723  18.698  28.431  1.00  0.00     0.045 A 
HETATM   11  C   UNL     1      80.753  19.519  28.908  1.00  0.00     0.057 A 
HETATM   12  C   UNL     1      82.024  18.988  29.034  1.00  0.00     0.102 A 
HETATM   13  C   UNL     1      82.260  17.673  28.650  1.00  0.00     0.132 A 
HETATM   14  C   UNL     1      81.255  16.914  28.059  1.00  0.00     0.102 A 
HETATM   15  C   UNL     1      79.966  17.408  27.965  1.00  0.00     0.057 A 
BRANCH  12  16
HETATM   16  O   UNL     1      83.051  19.705  29.577  1.00  0.00    -0.358 OA
HETATM   17  H   UNL     1      83.473  19.142  30.252  1.00  0.00     0.217 HD
ENDBRANCH  12  16
BRANCH  13  18
HETATM   18  O   UNL     1      83.466  17.080  28.905  1.00  0.00    -0.356 OA
HETATM   19  H   UNL     1      83.263  16.439  29.618  1.00  0.00     0.218 HD
ENDBRANCH  13  18
BRANCH  14  20
HETATM   20  O   UNL     1      81.533  15.652  27.621  1.00  0.00    -0.358 OA
HETATM   21  H   UNL     1      81.161  15.076  28.318  1.00  0.00     0.217 HD
ENDBRANCH  14  20
ENDBRANCH   8  10
ENDBRANCH   7   8
ENDBRANCH   4   7
BRANCH   5  22
HETATM   22  O   UNL     1      79.165  16.770  31.175  1.00  0.00    -0.306 OA
BRANCH  22  23
HETATM   23  C   UNL     1      80.391  16.298  31.483  1.00  0.00     0.294 C 
HETATM   24  O   UNL     1      81.424  16.843  31.849  1.00  0.00    -0.259 OA
BRANCH  23  25
HETATM   25  C   UNL     1      80.395  14.904  31.301  1.00  0.00     0.045 C 
HETATM   26  C   UNL     1      81.632  14.412  31.630  1.00  0.00     0.058 C 
HETATM   27  C   UNL     1      82.157  13.578  30.695  1.00  0.00     0.116 C 
HETATM   28  C   UNL     1      81.310  12.900  29.799  1.00  0.00     0.133 C 
HETATM   29  C   UNL     1      79.984  13.304  29.652  1.00  0.00     0.102 C 
HETATM   30  C   UNL     1      79.563  14.423  30.303  1.00  0.00     0.057 C 
BRANCH  27  31
HETATM   31  O   UNL     1      83.548  13.561  30.516  1.00  0.00    -0.272 OA
BRANCH  31  32
HETATM   32  C   UNL     1      84.334  12.535  31.083  1.00  0.00     0.298 C 
HETATM   33  O   UNL     1      84.097  11.691  31.901  1.00  0.00    -0.259 OA
BRANCH  32  34
HETATM   34  C   UNL     1      85.451  12.545  30.137  1.00  0.00     0.045 C 
HETATM   35  C   UNL     1      85.173  12.790  28.793  1.00  0.00     0.057 C 
HETATM   36  C   UNL     1      85.888  12.044  27.875  1.00  0.00     0.102 C 
HETATM   37  C   UNL     1      86.714  11.005  28.304  1.00  0.00     0.132 C 
HETATM   38  C   UNL     1      86.989  10.829  29.650  1.00  0.00     0.102 C 
HETATM   39  C   UNL     1      86.493  11.712  30.573  1.00  0.00     0.057 C 
BRANCH  36  40
HETATM   40  O   UNL     1      85.718  12.212  26.533  1.00  0.00    -0.358 OA
HETATM   41  H   UNL     1      86.603  12.418  26.177  1.00  0.00     0.217 HD
ENDBRANCH  36  40
BRANCH  37  42
HETATM   42  O   UNL     1      87.200  10.094  27.413  1.00  0.00    -0.356 OA
HETATM   43  H   UNL     1      87.073  10.520  26.540  1.00  0.00     0.218 HD
ENDBRANCH  37  42
BRANCH  38  44
HETATM   44  O   UNL     1      87.559   9.680  30.109  1.00  0.00    -0.358 OA
HETATM   45  H   UNL     1      87.213   9.569  31.017  1.00  0.00     0.217 HD
ENDBRANCH  38  44
ENDBRANCH  32  34
ENDBRANCH  31  32
ENDBRANCH  27  31
BRANCH  28  46
HETATM   46  O   UNL     1      81.740  11.853  29.039  1.00  0.00    -0.356 OA
HETATM   47  H   UNL     1      81.156  11.101  29.242  1.00  0.00     0.218 HD
ENDBRANCH  28  46
BRANCH  29  48
HETATM   48  O   UNL     1      79.097  12.687  28.833  1.00  0.00    -0.358 OA
HETATM   49  H   UNL     1      78.869  11.859  29.288  1.00  0.00     0.217 HD
ENDBRANCH  29  48
ENDBRANCH  23  25
ENDBRANCH  22  23
ENDBRANCH   5  22
BRANCH   6  50
HETATM   50  O   UNL     1      78.122  16.931  33.932  1.00  0.00    -0.304 OA
BRANCH  50  51
HETATM   51  C   UNL     1      77.377  16.018  34.617  1.00  0.00     0.294 C 
HETATM   52  O   UNL     1      76.607  16.173  35.543  1.00  0.00    -0.259 OA
BRANCH  51  53
HETATM   53  C   UNL     1      77.702  14.732  34.004  1.00  0.00     0.045 A 
HETATM   54  C   UNL     1      78.804  14.062  34.537  1.00  0.00     0.057 A 
HETATM   55  C   UNL     1      79.191  12.860  33.989  1.00  0.00     0.102 A 
HETATM   56  C   UNL     1      78.462  12.308  32.948  1.00  0.00     0.132 A 
HETATM   57  C   UNL     1      77.336  12.959  32.448  1.00  0.00     0.102 A 
HETATM   58  C   UNL     1      76.946  14.192  32.958  1.00  0.00     0.057 A 
BRANCH  55  59
HETATM   59  O   UNL     1      80.268  12.218  34.514  1.00  0.00    -0.358 OA
HETATM   60  H   UNL     1      79.890  11.520  35.084  1.00  0.00     0.217 HD
ENDBRANCH  55  59
BRANCH  56  61
HETATM   61  O   UNL     1      78.828  11.085  32.460  1.00  0.00    -0.356 OA
HETATM   62  H   UNL     1      79.652  11.265  31.963  1.00  0.00     0.218 HD
ENDBRANCH  56  61
BRANCH  57  63
HETATM   63  O   UNL     1      76.612  12.312  31.486  1.00  0.00    -0.358 OA
HETATM   64  H   UNL     1      76.859  12.702  30.627  1.00  0.00     0.217 HD
ENDBRANCH  57  63
ENDBRANCH  51  53
ENDBRANCH  50  51
ENDBRANCH   6  50
ENDBRANCH   2   4
BRANCH   2  65
HETATM   65  C   UNL     1      78.593  20.012  31.820  1.00  0.00     0.216 C 
BRANCH  65  66
HETATM   66  O   UNL     1      78.312  21.315  32.325  1.00  0.00    -0.315 OA
BRANCH  66  67
HETATM   67  C   UNL     1      78.843  21.529  33.533  1.00  0.00     0.293 C 
HETATM   68  O   UNL     1      78.511  20.990  34.571  1.00  0.00    -0.259 OA
BRANCH  67  69
HETATM   69  C   UNL     1      79.841  22.599  33.384  1.00  0.00     0.045 C 
HETATM   70  C   UNL     1      81.067  22.410  32.718  1.00  0.00     0.057 C 
HETATM   71  C   UNL     1      81.917  23.487  32.537  1.00  0.00     0.102 C 
HETATM   72  C   UNL     1      81.488  24.764  32.859  1.00  0.00     0.133 C 
HETATM   73  C   UNL     1      80.211  24.936  33.399  1.00  0.00     0.116 C 
HETATM   74  C   UNL     1      79.450  23.855  33.818  1.00  0.00     0.058 C 
BRANCH  71  75
HETATM   75  O   UNL     1      83.134  23.308  31.943  1.00  0.00    -0.358 OA
HETATM   76  H   UNL     1      83.365  24.194  31.594  1.00  0.00     0.217 HD
ENDBRANCH  71  75
BRANCH  72  77
HETATM   77  O   UNL     1      82.304  25.806  32.524  1.00  0.00    -0.356 OA
HETATM   78  H   UNL     1      83.172  25.650  32.944  1.00  0.00     0.218 HD
ENDBRANCH  72  77
BRANCH  73  79
HETATM   79  O   UNL     1      79.538  26.150  33.291  1.00  0.00    -0.272 OA
BRANCH  79  80
HETATM   80  C   UNL     1      79.781  26.803  34.490  1.00  0.00     0.298 C 
HETATM   81  O   UNL     1      80.761  26.574  35.182  1.00  0.00    -0.259 OA
BRANCH  80  82
HETATM   82  C   UNL     1      78.743  27.801  34.882  1.00  0.00     0.045 A 
HETATM   83  C   UNL     1      77.522  27.813  34.191  1.00  0.00     0.057 A 
HETATM   84  C   UNL     1      76.560  28.764  34.511  1.00  0.00     0.102 A 
HETATM   85  C   UNL     1      76.811  29.712  35.493  1.00  0.00     0.132 A 
HETATM   86  C   UNL     1      78.026  29.702  36.172  1.00  0.00     0.102 A 
HETATM   87  C   UNL     1      78.995  28.737  35.894  1.00  0.00     0.057 A 
BRANCH  84  88
HETATM   88  O   UNL     1      75.392  28.736  33.816  1.00  0.00    -0.358 OA
HETATM   89  H   UNL     1      75.217  27.825  33.499  1.00  0.00     0.217 HD
ENDBRANCH  84  88
BRANCH  85  90
HETATM   90  O   UNL     1      75.870  30.662  35.781  1.00  0.00    -0.356 OA
HETATM   91  H   UNL     1      75.018  30.186  35.842  1.00  0.00     0.218 HD
ENDBRANCH  85  90
BRANCH  86  92
HETATM   92  O   UNL     1      78.235  30.689  37.096  1.00  0.00    -0.358 OA
HETATM   93  H   UNL     1      78.636  31.448  36.634  1.00  0.00     0.217 HD
ENDBRANCH  86  92
ENDBRANCH  80  82
ENDBRANCH  79  80
ENDBRANCH  73  79
ENDBRANCH  67  69
ENDBRANCH  66  67
ENDBRANCH  65  66
ENDBRANCH   2  65
BRANCH   3  94
HETATM   94  O   UNL     1      74.844  20.383  30.741  1.00  0.00    -0.285 OA
BRANCH  94  95
HETATM   95  C   UNL     1      74.925  21.154  29.623  1.00  0.00     0.295 C 
HETATM   96  O   UNL     1      74.472  20.914  28.517  1.00  0.00    -0.259 OA
BRANCH  95  97
HETATM   97  C   UNL     1      75.674  22.359  29.954  1.00  0.00     0.045 A 
HETATM   98  C   UNL     1      75.117  23.291  30.833  1.00  0.00     0.057 A 
HETATM   99  C   UNL     1      75.884  24.370  31.221  1.00  0.00     0.102 A 
HETATM  100  C   UNL     1      77.158  24.547  30.691  1.00  0.00     0.132 A 
HETATM  101  C   UNL     1      77.680  23.642  29.770  1.00  0.00     0.102 A 
HETATM  102  C   UNL     1      76.943  22.531  29.395  1.00  0.00     0.057 A 
BRANCH  99 103
HETATM  103  O   UNL     1      75.392  25.237  32.151  1.00  0.00    -0.358 OA
HETATM  104  H   UNL     1      75.608  26.120  31.785  1.00  0.00     0.217 HD
ENDBRANCH  99 103
BRANCH 100 105
HETATM  105  O   UNL     1      77.895  25.626  31.095  1.00  0.00    -0.356 OA
HETATM  106  H   UNL     1      77.596  26.348  30.503  1.00  0.00     0.218 HD
ENDBRANCH 100 105
BRANCH 101 107
HETATM  107  O   UNL     1      78.930  23.871  29.273  1.00  0.00    -0.358 OA
HETATM  108  H   UNL     1      79.565  23.380  29.825  1.00  0.00     0.217 HD
ENDBRANCH 101 107
ENDBRANCH  95  97
ENDBRANCH  94  95
ENDBRANCH   3  94
TORSDOF 43
ENDMDL
