MODEL 1
REMARK VINA RESULT:      -8.0      0.000      0.000
REMARK  6 active torsions:
REMARK  status: ('A' for Active; 'I' for Inactive)
REMARK    1  A    between atoms: O_2  and  C_12 
REMARK    2  A    between atoms: O_3  and  C_14 
REMARK    3  A    between atoms: O_5  and  C_16 
REMARK    4  A    between atoms: O_6  and  C_20 
REMARK    5  A    between atoms: O_7  and  C_22 
REMARK    6  A    between atoms: C_10  and  C_11 
ROOT
HETATM    1  O   UNK     0     171.024 174.500 169.632  0.00  0.00    -0.306 OA
HETATM    2  O   UNK     0     167.248 173.005 169.980  0.00  0.00    -0.284 OA
HETATM    3  C   UNK     0     168.916 174.439 170.833  0.00  0.00     0.084 A 
HETATM    4  C   UNK     0     170.216 174.911 170.659  0.00  0.00     0.096 A 
HETATM    5  C   UNK     0     170.521 173.586 168.719  0.00  0.00     0.123 A 
HETATM    6  C   UNK     0     169.288 173.048 168.778  0.00  0.00     0.152 A 
HETATM    7  C   UNK     0     168.380 173.459 169.876  0.00  0.00     0.223 A 
HETATM    8  C   UNK     0     168.138 174.893 171.902  0.00  0.00     0.085 A 
HETATM    9  C   UNK     0     170.747 175.839 171.556  0.00  0.00     0.075 A 
HETATM   10  C   UNK     0     169.972 176.294 172.623  0.00  0.00     0.071 A 
HETATM   11  C   UNK     0     168.671 175.821 172.796  0.00  0.00     0.074 A 
ENDROOT
BRANCH   5  12
HETATM   12  C   UNK     0     171.489 173.230 167.667  0.00  0.00     0.004 A 
HETATM   13  C   UNK     0     172.583 172.420 167.971  0.00  0.00     0.053 A 
HETATM   14  C   UNK     0     173.500 172.084 166.975  0.00  0.00     0.099 A 
HETATM   15  C   UNK     0     173.322 172.558 165.674  0.00  0.00     0.098 A 
HETATM   16  C   UNK     0     172.228 173.367 165.371  0.00  0.00     0.040 A 
HETATM   17  C   UNK     0     171.311 173.704 166.367  0.00  0.00     0.017 A 
BRANCH  14  18
HETATM   18  O   UNK     0     174.566 171.294 167.283  0.00  0.00    -0.358 OA
HETATM   19  H   UNK     0     174.291 170.363 167.299  0.00  0.00     0.217 HD
ENDBRANCH  14  18
BRANCH  15  20
HETATM   20  O   UNK     0     174.210 172.234 164.693  0.00  0.00    -0.358 OA
HETATM   21  H   UNK     0     175.114 172.280 165.040  0.00  0.00     0.217 HD
ENDBRANCH  15  20
ENDBRANCH   5  12
BRANCH   6  22
HETATM   22  O   UNK     0     168.830 172.116 167.873  0.00  0.00    -0.355 OA
HETATM   23  H   UNK     0     169.185 171.240 168.092  0.00  0.00     0.218 HD
ENDBRANCH   6  22
BRANCH   8  24
HETATM   24  O   UNK     0     166.863 174.464 172.116  0.00  0.00    -0.360 OA
HETATM   25  H   UNK     0     166.278 175.214 172.301  0.00  0.00     0.217 HD
ENDBRANCH   8  24
BRANCH  10  26
HETATM   26  O   UNK     0     170.490 177.200 173.499  0.00  0.00    -0.361 OA
HETATM   27  H   UNK     0     169.821 177.884 173.675  0.00  0.00     0.217 HD
ENDBRANCH  10  26
TORSDOF 6
ENDMDL
MODEL 2
REMARK VINA RESULT:      -7.9      2.059      2.383
REMARK  6 active torsions:
REMARK  status: ('A' for Active; 'I' for Inactive)
REMARK    1  A    between atoms: O_2  and  C_12 
REMARK    2  A    between atoms: O_3  and  C_14 
REMARK    3  A    between atoms: O_5  and  C_16 
REMARK    4  A    between atoms: O_6  and  C_20 
REMARK    5  A    between atoms: O_7  and  C_22 
REMARK    6  A    between atoms: C_10  and  C_11 
ROOT
HETATM    1  O   UNK     0     170.196 172.938 169.028  0.00  0.00    -0.306 OA
HETATM    2  O   UNK     0     166.739 174.821 167.974  0.00  0.00    -0.284 OA
HETATM    3  C   UNK     0     168.097 173.956 169.697  0.00  0.00     0.084 A 
HETATM    4  C   UNK     0     169.295 173.309 169.992  0.00  0.00     0.096 A 
HETATM    5  C   UNK     0     169.907 173.232 167.704  0.00  0.00     0.123 A 
HETATM    6  C   UNK     0     168.784 173.844 167.286  0.00  0.00     0.152 A 
HETATM    7  C   UNK     0     167.778 174.259 168.294  0.00  0.00     0.223 A 
HETATM    8  C   UNK     0     167.216 174.309 170.723  0.00  0.00     0.085 A 
HETATM    9  C   UNK     0     169.619 173.009 171.316  0.00  0.00     0.075 A 
HETATM   10  C   UNK     0     168.741 173.360 172.341  0.00  0.00     0.071 A 
HETATM   11  C   UNK     0     167.542 174.009 172.045  0.00  0.00     0.074 A 
ENDROOT
BRANCH   5  12
HETATM   12  C   UNK     0     170.956 172.781 166.773  0.00  0.00     0.004 A 
HETATM   13  C   UNK     0     171.751 173.716 166.111  0.00  0.00     0.053 A 
HETATM   14  C   UNK     0     172.744 173.288 165.229  0.00  0.00     0.099 A 
HETATM   15  C   UNK     0     172.942 171.925 165.010  0.00  0.00     0.098 A 
HETATM   16  C   UNK     0     172.147 170.989 165.673  0.00  0.00     0.040 A 
HETATM   17  C   UNK     0     171.154 171.417 166.554  0.00  0.00     0.017 A 
BRANCH  14  18
HETATM   18  O   UNK     0     173.513 174.210 164.586  0.00  0.00    -0.358 OA
HETATM   19  H   UNK     0     173.034 174.558 163.816  0.00  0.00     0.217 HD
ENDBRANCH  14  18
BRANCH  15  20
HETATM   20  O   UNK     0     173.910 171.495 164.153  0.00  0.00    -0.358 OA
HETATM   21  H   UNK     0     174.018 170.534 164.237  0.00  0.00     0.217 HD
ENDBRANCH  15  20
ENDBRANCH   5  12
BRANCH   6  22
HETATM   22  O   UNK     0     168.511 174.093 165.959  0.00  0.00    -0.355 OA
HETATM   23  H   UNK     0     169.340 174.132 165.454  0.00  0.00     0.218 HD
ENDBRANCH   6  22
BRANCH   8  24
HETATM   24  O   UNK     0     166.032 174.943 170.488  0.00  0.00    -0.360 OA
HETATM   25  H   UNK     0     165.667 175.298 171.313  0.00  0.00     0.217 HD
ENDBRANCH   8  24
BRANCH  10  26
HETATM   26  O   UNK     0     169.056 173.068 173.634  0.00  0.00    -0.361 OA
HETATM   27  H   UNK     0     169.509 172.208 173.661  0.00  0.00     0.217 HD
ENDBRANCH  10  26
TORSDOF 6
ENDMDL
MODEL 3
REMARK VINA RESULT:      -7.8      2.025      3.420
REMARK  6 active torsions:
REMARK  status: ('A' for Active; 'I' for Inactive)
REMARK    1  A    between atoms: O_2  and  C_12 
REMARK    2  A    between atoms: O_3  and  C_14 
REMARK    3  A    between atoms: O_5  and  C_16 
REMARK    4  A    between atoms: O_6  and  C_20 
REMARK    5  A    between atoms: O_7  and  C_22 
REMARK    6  A    between atoms: C_10  and  C_11 
ROOT
HETATM    1  O   UNK     0     169.083 173.267 167.495  0.00  0.00    -0.306 OA
HETATM    2  O   UNK     0     169.784 173.566 171.498  0.00  0.00    -0.284 OA
HETATM    3  C   UNK     0     168.250 173.767 169.718  0.00  0.00     0.084 A 
HETATM    4  C   UNK     0     168.075 173.647 168.341  0.00  0.00     0.096 A 
HETATM    5  C   UNK     0     170.327 172.977 168.035  0.00  0.00     0.123 A 
HETATM    6  C   UNK     0     170.628 173.061 169.343  0.00  0.00     0.152 A 
HETATM    7  C   UNK     0     169.570 173.473 170.296  0.00  0.00     0.223 A 
HETATM    8  C   UNK     0     167.184 174.161 170.532  0.00  0.00     0.085 A 
HETATM    9  C   UNK     0     166.833 173.923 167.768  0.00  0.00     0.075 A 
HETATM   10  C   UNK     0     165.767 174.316 168.579  0.00  0.00     0.071 A 
HETATM   11  C   UNK     0     165.943 174.435 169.957  0.00  0.00     0.074 A 
ENDROOT
BRANCH   5  12
HETATM   12  C   UNK     0     171.317 172.581 167.018  0.00  0.00     0.004 A 
HETATM   13  C   UNK     0     171.932 173.552 166.227  0.00  0.00     0.053 A 
HETATM   14  C   UNK     0     172.870 173.178 165.265  0.00  0.00     0.099 A 
HETATM   15  C   UNK     0     173.194 171.831 165.094  0.00  0.00     0.098 A 
HETATM   16  C   UNK     0     172.580 170.860 165.886  0.00  0.00     0.040 A 
HETATM   17  C   UNK     0     171.642 171.235 166.848  0.00  0.00     0.017 A 
BRANCH  14  18
HETATM   18  O   UNK     0     173.461 174.134 164.497  0.00  0.00    -0.358 OA
HETATM   19  H   UNK     0     174.422 173.993 164.479  0.00  0.00     0.217 HD
ENDBRANCH  14  18
BRANCH  15  20
HETATM   20  O   UNK     0     174.110 171.453 164.160  0.00  0.00    -0.358 OA
HETATM   21  H   UNK     0     174.739 170.827 164.552  0.00  0.00     0.217 HD
ENDBRANCH  15  20
ENDBRANCH   5  12
BRANCH   6  22
HETATM   22  O   UNK     0     171.884 172.796 169.845  0.00  0.00    -0.355 OA
HETATM   23  H   UNK     0     171.839 172.690 170.809  0.00  0.00     0.218 HD
ENDBRANCH   6  22
BRANCH   8  24
HETATM   24  O   UNK     0     167.302 174.293 171.883  0.00  0.00    -0.360 OA
HETATM   25  H   UNK     0     167.513 175.209 172.119  0.00  0.00     0.217 HD
ENDBRANCH   8  24
BRANCH  10  26
HETATM   26  O   UNK     0     164.554 174.585 168.021  0.00  0.00    -0.361 OA
HETATM   27  H   UNK     0     164.503 175.536 167.821  0.00  0.00     0.217 HD
ENDBRANCH  10  26
TORSDOF 6
ENDMDL
MODEL 4
REMARK VINA RESULT:      -7.7      1.542      3.204
REMARK  6 active torsions:
REMARK  status: ('A' for Active; 'I' for Inactive)
REMARK    1  A    between atoms: O_2  and  C_12 
REMARK    2  A    between atoms: O_3  and  C_14 
REMARK    3  A    between atoms: O_5  and  C_16 
REMARK    4  A    between atoms: O_6  and  C_20 
REMARK    5  A    between atoms: O_7  and  C_22 
REMARK    6  A    between atoms: C_10  and  C_11 
ROOT
HETATM    1  O   UNK     0     170.051 173.049 168.656  0.00  0.00    -0.306 OA
HETATM    2  O   UNK     0     171.771 174.778 171.921  0.00  0.00    -0.284 OA
HETATM    3  C   UNK     0     169.798 174.055 170.850  0.00  0.00     0.084 A 
HETATM    4  C   UNK     0     169.272 173.458 169.706  0.00  0.00     0.096 A 
HETATM    5  C   UNK     0     171.424 173.224 168.743  0.00  0.00     0.123 A 
HETATM    6  C   UNK     0     172.055 173.792 169.786  0.00  0.00     0.152 A 
HETATM    7  C   UNK     0     171.252 174.256 170.943  0.00  0.00     0.223 A 
HETATM    8  C   UNK     0     168.953 174.453 171.889  0.00  0.00     0.085 A 
HETATM    9  C   UNK     0     167.895 173.259 169.593  0.00  0.00     0.075 A 
HETATM   10  C   UNK     0     167.049 173.656 170.629  0.00  0.00     0.071 A 
HETATM   11  C   UNK     0     167.578 174.252 171.774  0.00  0.00     0.074 A 
ENDROOT
BRANCH   5  12
HETATM   12  C   UNK     0     172.142 172.741 167.551  0.00  0.00     0.004 A 
HETATM   13  C   UNK     0     172.356 173.597 166.471  0.00  0.00     0.053 A 
HETATM   14  C   UNK     0     173.037 173.140 165.342  0.00  0.00     0.099 A 
HETATM   15  C   UNK     0     173.503 171.826 165.293  0.00  0.00     0.098 A 
HETATM   16  C   UNK     0     173.289 170.970 166.374  0.00  0.00     0.040 A 
HETATM   17  C   UNK     0     172.609 171.427 167.502  0.00  0.00     0.017 A 
BRANCH  14  18
HETATM   18  O   UNK     0     173.238 173.984 164.292  0.00  0.00    -0.358 OA
HETATM   19  H   UNK     0     172.421 174.471 164.101  0.00  0.00     0.217 HD
ENDBRANCH  14  18
BRANCH  15  20
HETATM   20  O   UNK     0     174.171 171.369 164.197  0.00  0.00    -0.358 OA
HETATM   21  H   UNK     0     173.592 170.788 163.680  0.00  0.00     0.217 HD
ENDBRANCH  15  20
ENDBRANCH   5  12
BRANCH   6  22
HETATM   22  O   UNK     0     173.420 173.982 169.828  0.00  0.00    -0.355 OA
HETATM   23  H   UNK     0     173.665 174.441 170.648  0.00  0.00     0.218 HD
ENDBRANCH   6  22
BRANCH   8  24
HETATM   24  O   UNK     0     169.416 175.041 173.028  0.00  0.00    -0.360 OA
HETATM   25  H   UNK     0     170.352 175.276 172.933  0.00  0.00     0.217 HD
ENDBRANCH   8  24
BRANCH  10  26
HETATM   26  O   UNK     0     165.706 173.462 170.520  0.00  0.00    -0.361 OA
HETATM   27  H   UNK     0     165.348 173.241 171.398  0.00  0.00     0.217 HD
ENDBRANCH  10  26
TORSDOF 6
ENDMDL
MODEL 5
REMARK VINA RESULT:      -7.4      1.192      2.925
REMARK  6 active torsions:
REMARK  status: ('A' for Active; 'I' for Inactive)
REMARK    1  A    between atoms: O_2  and  C_12 
REMARK    2  A    between atoms: O_3  and  C_14 
REMARK    3  A    between atoms: O_5  and  C_16 
REMARK    4  A    between atoms: O_6  and  C_20 
REMARK    5  A    between atoms: O_7  and  C_22 
REMARK    6  A    between atoms: C_10  and  C_11 
ROOT
HETATM    1  O   UNK     0     169.630 173.273 168.763  0.00  0.00    -0.306 OA
HETATM    2  O   UNK     0     170.837 175.522 171.939  0.00  0.00    -0.284 OA
HETATM    3  C   UNK     0     169.086 174.368 170.859  0.00  0.00     0.084 A 
HETATM    4  C   UNK     0     168.737 173.604 169.748  0.00  0.00     0.096 A 
HETATM    5  C   UNK     0     170.941 173.707 168.885  0.00  0.00     0.123 A 
HETATM    6  C   UNK     0     171.404 174.456 169.902  0.00  0.00     0.152 A 
HETATM    7  C   UNK     0     170.472 174.843 170.989  0.00  0.00     0.223 A 
HETATM    8  C   UNK     0     168.132 174.676 171.832  0.00  0.00     0.085 A 
HETATM    9  C   UNK     0     167.427 173.144 169.601  0.00  0.00     0.075 A 
HETATM   10  C   UNK     0     166.472 173.449 170.571  0.00  0.00     0.071 A 
HETATM   11  C   UNK     0     166.824 174.214 171.684  0.00  0.00     0.074 A 
ENDROOT
BRANCH   5  12
HETATM   12  C   UNK     0     171.794 173.283 167.762  0.00  0.00     0.004 A 
HETATM   13  C   UNK     0     172.912 172.482 167.997  0.00  0.00     0.053 A 
HETATM   14  C   UNK     0     173.719 172.080 166.933  0.00  0.00     0.099 A 
HETATM   15  C   UNK     0     173.409 172.480 165.633  0.00  0.00     0.098 A 
HETATM   16  C   UNK     0     172.291 173.280 165.397  0.00  0.00     0.040 A 
HETATM   17  C   UNK     0     171.484 173.681 166.461  0.00  0.00     0.017 A 
BRANCH  14  18
HETATM   18  O   UNK     0     174.809 171.301 167.175  0.00  0.00    -0.358 OA
HETATM   19  H   UNK     0     174.531 170.464 167.583  0.00  0.00     0.217 HD
ENDBRANCH  14  18
BRANCH  15  20
HETATM   20  O   UNK     0     174.189 172.092 164.585  0.00  0.00    -0.358 OA
HETATM   21  H   UNK     0     174.412 172.863 164.040  0.00  0.00     0.217 HD
ENDBRANCH  15  20
ENDBRANCH   5  12
BRANCH   6  22
HETATM   22  O   UNK     0     172.707 174.900 169.978  0.00  0.00    -0.355 OA
HETATM   23  H   UNK     0     172.765 175.812 169.650  0.00  0.00     0.218 HD
ENDBRANCH   6  22
BRANCH   8  24
HETATM   24  O   UNK     0     168.421 175.419 172.937  0.00  0.00    -0.360 OA
HETATM   25  H   UNK     0     168.726 174.849 173.660  0.00  0.00     0.217 HD
ENDBRANCH   8  24
BRANCH  10  26
HETATM   26  O   UNK     0     165.194 173.000 170.430  0.00  0.00    -0.361 OA
HETATM   27  H   UNK     0     164.978 172.960 169.482  0.00  0.00     0.217 HD
ENDBRANCH  10  26
TORSDOF 6
ENDMDL
MODEL 6
REMARK VINA RESULT:      -7.4      2.341      3.839
REMARK  6 active torsions:
REMARK  status: ('A' for Active; 'I' for Inactive)
REMARK    1  A    between atoms: O_2  and  C_12 
REMARK    2  A    between atoms: O_3  and  C_14 
REMARK    3  A    between atoms: O_5  and  C_16 
REMARK    4  A    between atoms: O_6  and  C_20 
REMARK    5  A    between atoms: O_7  and  C_22 
REMARK    6  A    between atoms: C_10  and  C_11 
ROOT
HETATM    1  O   UNK     0     168.185 173.591 167.109  0.00  0.00    -0.306 OA
HETATM    2  O   UNK     0     168.271 174.425 171.097  0.00  0.00    -0.284 OA
HETATM    3  C   UNK     0     166.996 174.248 169.120  0.00  0.00     0.084 A 
HETATM    4  C   UNK     0     167.034 173.952 167.759  0.00  0.00     0.096 A 
HETATM    5  C   UNK     0     169.360 173.504 167.841  0.00  0.00     0.123 A 
HETATM    6  C   UNK     0     169.460 173.771 169.156  0.00  0.00     0.152 A 
HETATM    7  C   UNK     0     168.241 174.171 169.900  0.00  0.00     0.223 A 
HETATM    8  C   UNK     0     165.793 174.612 169.729  0.00  0.00     0.085 A 
HETATM    9  C   UNK     0     165.867 174.020 166.997  0.00  0.00     0.075 A 
HETATM   10  C   UNK     0     164.664 174.383 167.603  0.00  0.00     0.071 A 
HETATM   11  C   UNK     0     164.628 174.679 168.966  0.00  0.00     0.074 A 
ENDROOT
BRANCH   5  12
HETATM   12  C   UNK     0     170.519 173.107 167.023  0.00  0.00     0.004 A 
HETATM   13  C   UNK     0     170.998 171.798 167.081  0.00  0.00     0.053 A 
HETATM   14  C   UNK     0     172.095 171.422 166.306  0.00  0.00     0.099 A 
HETATM   15  C   UNK     0     172.714 172.355 165.474  0.00  0.00     0.098 A 
HETATM   16  C   UNK     0     172.235 173.664 165.416  0.00  0.00     0.040 A 
HETATM   17  C   UNK     0     171.137 174.040 166.190  0.00  0.00     0.017 A 
BRANCH  14  18
HETATM   18  O   UNK     0     172.556 170.142 166.372  0.00  0.00    -0.358 OA
HETATM   19  H   UNK     0     172.640 169.777 165.476  0.00  0.00     0.217 HD
ENDBRANCH  14  18
BRANCH  15  20
HETATM   20  O   UNK     0     173.786 171.999 164.711  0.00  0.00    -0.358 OA
HETATM   21  H   UNK     0     173.689 172.367 163.818  0.00  0.00     0.217 HD
ENDBRANCH  15  20
ENDBRANCH   5  12
BRANCH   6  22
HETATM   22  O   UNK     0     170.650 173.708 169.848  0.00  0.00    -0.355 OA
HETATM   23  H   UNK     0     170.565 174.176 170.695  0.00  0.00     0.218 HD
ENDBRANCH   6  22
BRANCH   8  24
HETATM   24  O   UNK     0     165.702 174.911 171.055  0.00  0.00    -0.360 OA
HETATM   25  H   UNK     0     165.831 174.116 171.593  0.00  0.00     0.217 HD
ENDBRANCH   8  24
BRANCH  10  26
HETATM   26  O   UNK     0     163.524 174.450 166.861  0.00  0.00    -0.361 OA
HETATM   27  H   UNK     0     163.655 173.950 166.036  0.00  0.00     0.217 HD
ENDBRANCH  10  26
TORSDOF 6
ENDMDL
MODEL 7
REMARK VINA RESULT:      -7.3     16.558     18.772
REMARK  6 active torsions:
REMARK  status: ('A' for Active; 'I' for Inactive)
REMARK    1  A    between atoms: O_2  and  C_12 
REMARK    2  A    between atoms: O_3  and  C_14 
REMARK    3  A    between atoms: O_5  and  C_16 
REMARK    4  A    between atoms: O_6  and  C_20 
REMARK    5  A    between atoms: O_7  and  C_22 
REMARK    6  A    between atoms: C_10  and  C_11 
ROOT
HETATM    1  O   UNK     0     155.022 177.175 160.932  0.00  0.00    -0.306 OA
HETATM    2  O   UNK     0     153.193 180.728 161.732  0.00  0.00    -0.284 OA
HETATM    3  C   UNK     0     154.123 179.278 160.121  0.00  0.00     0.084 A 
HETATM    4  C   UNK     0     154.747 178.049 159.914  0.00  0.00     0.096 A 
HETATM    5  C   UNK     0     154.651 177.523 162.222  0.00  0.00     0.123 A 
HETATM    6  C   UNK     0     154.052 178.680 162.557  0.00  0.00     0.152 A 
HETATM    7  C   UNK     0     153.739 179.660 161.488  0.00  0.00     0.223 A 
HETATM    8  C   UNK     0     153.869 180.130 159.043  0.00  0.00     0.085 A 
HETATM    9  C   UNK     0     155.123 177.666 158.626  0.00  0.00     0.075 A 
HETATM   10  C   UNK     0     154.871 178.515 157.548  0.00  0.00     0.071 A 
HETATM   11  C   UNK     0     154.245 179.744 157.756  0.00  0.00     0.074 A 
ENDROOT
BRANCH   5  12
HETATM   12  C   UNK     0     155.004 176.497 163.219  0.00  0.00     0.004 A 
HETATM   13  C   UNK     0     156.231 176.558 163.879  0.00  0.00     0.053 A 
HETATM   14  C   UNK     0     156.564 175.586 164.823  0.00  0.00     0.099 A 
HETATM   15  C   UNK     0     155.669 174.554 165.107  0.00  0.00     0.098 A 
HETATM   16  C   UNK     0     154.442 174.493 164.447  0.00  0.00     0.040 A 
HETATM   17  C   UNK     0     154.109 175.465 163.503  0.00  0.00     0.017 A 
BRANCH  14  18
HETATM   18  O   UNK     0     157.765 175.654 165.460  0.00  0.00    -0.358 OA
HETATM   19  H   UNK     0     158.485 175.612 164.810  0.00  0.00     0.217 HD
ENDBRANCH  14  18
BRANCH  15  20
HETATM   20  O   UNK     0     155.982 173.600 166.028  0.00  0.00    -0.358 OA
HETATM   21  H   UNK     0     156.854 173.226 165.829  0.00  0.00     0.217 HD
ENDBRANCH  15  20
ENDBRANCH   5  12
BRANCH   6  22
HETATM   22  O   UNK     0     153.725 179.011 163.854  0.00  0.00    -0.355 OA
HETATM   23  H   UNK     0     152.833 178.689 164.062  0.00  0.00     0.218 HD
ENDBRANCH   6  22
BRANCH   8  24
HETATM   24  O   UNK     0     153.262 181.341 159.191  0.00  0.00    -0.360 OA
HETATM   25  H   UNK     0     153.822 182.048 158.836  0.00  0.00     0.217 HD
ENDBRANCH   8  24
BRANCH  10  26
HETATM   26  O   UNK     0     155.237 178.141 156.290  0.00  0.00    -0.361 OA
HETATM   27  H   UNK     0     155.436 178.939 155.770  0.00  0.00     0.217 HD
ENDBRANCH  10  26
TORSDOF 6
ENDMDL
MODEL 8
REMARK VINA RESULT:      -7.2      4.821      8.622
REMARK  6 active torsions:
REMARK  status: ('A' for Active; 'I' for Inactive)
REMARK    1  A    between atoms: O_2  and  C_12 
REMARK    2  A    between atoms: O_3  and  C_14 
REMARK    3  A    between atoms: O_5  and  C_16 
REMARK    4  A    between atoms: O_6  and  C_20 
REMARK    5  A    between atoms: O_7  and  C_22 
REMARK    6  A    between atoms: C_10  and  C_11 
ROOT
HETATM    1  O   UNK     0     165.177 174.050 170.266  0.00  0.00    -0.306 OA
HETATM    2  O   UNK     0     166.438 173.974 166.392  0.00  0.00    -0.284 OA
HETATM    3  C   UNK     0     166.974 173.700 168.672  0.00  0.00     0.084 A 
HETATM    4  C   UNK     0     166.481 173.744 169.975  0.00  0.00     0.096 A 
HETATM    5  C   UNK     0     164.309 174.314 169.218  0.00  0.00     0.123 A 
HETATM    6  C   UNK     0     164.660 174.312 167.918  0.00  0.00     0.152 A 
HETATM    7  C   UNK     0     166.062 173.992 167.556  0.00  0.00     0.223 A 
HETATM    8  C   UNK     0     168.314 173.384 168.436  0.00  0.00     0.085 A 
HETATM    9  C   UNK     0     167.327 173.474 171.051  0.00  0.00     0.075 A 
HETATM   10  C   UNK     0     168.666 173.157 170.818  0.00  0.00     0.071 A 
HETATM   11  C   UNK     0     169.158 173.113 169.513  0.00  0.00     0.074 A 
ENDROOT
BRANCH   5  12
HETATM   12  C   UNK     0     162.942 174.627 169.668  0.00  0.00     0.004 A 
HETATM   13  C   UNK     0     161.866 173.864 169.213  0.00  0.00     0.053 A 
HETATM   14  C   UNK     0     160.571 174.161 169.640  0.00  0.00     0.099 A 
HETATM   15  C   UNK     0     160.353 175.220 170.522  0.00  0.00     0.098 A 
HETATM   16  C   UNK     0     161.429 175.981 170.977  0.00  0.00     0.040 A 
HETATM   17  C   UNK     0     162.723 175.685 170.550  0.00  0.00     0.017 A 
BRANCH  14  18
HETATM   18  O   UNK     0     159.528 173.411 169.188  0.00  0.00    -0.358 OA
HETATM   19  H   UNK     0     159.775 172.472 169.185  0.00  0.00     0.217 HD
ENDBRANCH  14  18
BRANCH  15  20
HETATM   20  O   UNK     0     159.093 175.517 170.947  0.00  0.00    -0.358 OA
HETATM   21  H   UNK     0     159.138 176.098 171.723  0.00  0.00     0.217 HD
ENDBRANCH  15  20
ENDBRANCH   5  12
BRANCH   6  22
HETATM   22  O   UNK     0     163.780 174.611 166.901  0.00  0.00    -0.355 OA
HETATM   23  H   UNK     0     163.295 175.426 167.112  0.00  0.00     0.218 HD
ENDBRANCH   6  22
BRANCH   8  24
HETATM   24  O   UNK     0     168.846 173.327 167.183  0.00  0.00    -0.360 OA
HETATM   25  H   UNK     0     168.571 174.097 166.662  0.00  0.00     0.217 HD
ENDBRANCH   8  24
BRANCH  10  26
HETATM   26  O   UNK     0     169.493 172.892 171.867  0.00  0.00    -0.361 OA
HETATM   27  H   UNK     0     170.362 172.623 171.523  0.00  0.00     0.217 HD
ENDBRANCH  10  26
TORSDOF 6
ENDMDL
MODEL 9
REMARK VINA RESULT:      -7.1      8.251     10.348
REMARK  6 active torsions:
REMARK  status: ('A' for Active; 'I' for Inactive)
REMARK    1  A    between atoms: O_2  and  C_12 
REMARK    2  A    between atoms: O_3  and  C_14 
REMARK    3  A    between atoms: O_5  and  C_16 
REMARK    4  A    between atoms: O_6  and  C_20 
REMARK    5  A    between atoms: O_7  and  C_22 
REMARK    6  A    between atoms: C_10  and  C_11 
ROOT
HETATM    1  O   UNK     0     163.018 170.879 170.301  0.00  0.00    -0.306 OA
HETATM    2  O   UNK     0     163.126 169.495 166.470  0.00  0.00    -0.284 OA
HETATM    3  C   UNK     0     163.452 169.052 168.763  0.00  0.00     0.084 A 
HETATM    4  C   UNK     0     163.396 169.586 170.049  0.00  0.00     0.096 A 
HETATM    5  C   UNK     0     162.664 171.686 169.231  0.00  0.00     0.123 A 
HETATM    6  C   UNK     0     162.684 171.296 167.943  0.00  0.00     0.152 A 
HETATM    7  C   UNK     0     163.091 169.906 167.622  0.00  0.00     0.223 A 
HETATM    8  C   UNK     0     163.846 167.726 168.567  0.00  0.00     0.085 A 
HETATM    9  C   UNK     0     163.736 168.796 171.148  0.00  0.00     0.075 A 
HETATM   10  C   UNK     0     164.130 167.472 170.955  0.00  0.00     0.071 A 
HETATM   11  C   UNK     0     164.185 166.939 169.667  0.00  0.00     0.074 A 
ENDROOT
BRANCH   5  12
HETATM   12  C   UNK     0     162.279 173.048 169.639  0.00  0.00     0.004 A 
HETATM   13  C   UNK     0     160.960 173.475 169.489  0.00  0.00     0.053 A 
HETATM   14  C   UNK     0     160.596 174.765 169.876  0.00  0.00     0.099 A 
HETATM   15  C   UNK     0     161.552 175.627 170.414  0.00  0.00     0.098 A 
HETATM   16  C   UNK     0     162.871 175.200 170.565  0.00  0.00     0.040 A 
HETATM   17  C   UNK     0     163.235 173.910 170.178  0.00  0.00     0.017 A 
BRANCH  14  18
HETATM   18  O   UNK     0     159.306 175.173 169.722  0.00  0.00    -0.358 OA
HETATM   19  H   UNK     0     159.265 175.895 169.075  0.00  0.00     0.217 HD
ENDBRANCH  14  18
BRANCH  15  20
HETATM   20  O   UNK     0     161.208 176.889 170.798  0.00  0.00    -0.358 OA
HETATM   21  H   UNK     0     161.501 177.526 170.129  0.00  0.00     0.217 HD
ENDBRANCH  15  20
ENDBRANCH   5  12
BRANCH   6  22
HETATM   22  O   UNK     0     162.357 172.133 166.898  0.00  0.00    -0.355 OA
HETATM   23  H   UNK     0     161.980 172.959 167.242  0.00  0.00     0.218 HD
ENDBRANCH   6  22
BRANCH   8  24
HETATM   24  O   UNK     0     163.918 167.156 167.331  0.00  0.00    -0.360 OA
HETATM   25  H   UNK     0     163.132 167.377 166.809  0.00  0.00     0.217 HD
ENDBRANCH   8  24
BRANCH  10  26
HETATM   26  O   UNK     0     164.462 166.700 172.027  0.00  0.00    -0.361 OA
HETATM   27  H   UNK     0     163.785 166.010 172.139  0.00  0.00     0.217 HD
ENDBRANCH  10  26
TORSDOF 6
ENDMDL
MODEL 10
REMARK VINA RESULT:      -7.1     16.887     18.992
REMARK  6 active torsions:
REMARK  status: ('A' for Active; 'I' for Inactive)
REMARK    1  A    between atoms: O_2  and  C_12 
REMARK    2  A    between atoms: O_3  and  C_14 
REMARK    3  A    between atoms: O_5  and  C_16 
REMARK    4  A    between atoms: O_6  and  C_20 
REMARK    5  A    between atoms: O_7  and  C_22 
REMARK    6  A    between atoms: C_10  and  C_11 
ROOT
HETATM    1  O   UNK     0     154.713 178.161 161.747  0.00  0.00    -0.306 OA
HETATM    2  O   UNK     0     153.406 176.665 158.189  0.00  0.00    -0.284 OA
HETATM    3  C   UNK     0     153.987 178.561 159.466  0.00  0.00     0.084 A 
HETATM    4  C   UNK     0     154.436 179.009 160.707  0.00  0.00     0.096 A 
HETATM    5  C   UNK     0     154.552 176.798 161.551  0.00  0.00     0.123 A 
HETATM    6  C   UNK     0     154.119 176.238 160.406  0.00  0.00     0.152 A 
HETATM    7  C   UNK     0     153.802 177.117 159.255  0.00  0.00     0.223 A 
HETATM    8  C   UNK     0     153.719 179.473 158.442  0.00  0.00     0.085 A 
HETATM    9  C   UNK     0     154.617 180.374 160.932  0.00  0.00     0.075 A 
HETATM   10  C   UNK     0     154.350 181.287 159.911  0.00  0.00     0.071 A 
HETATM   11  C   UNK     0     153.902 180.836 158.669  0.00  0.00     0.074 A 
ENDROOT
BRANCH   5  12
HETATM   12  C   UNK     0     154.884 176.002 162.745  0.00  0.00     0.004 A 
HETATM   13  C   UNK     0     153.963 175.888 163.786  0.00  0.00     0.053 A 
HETATM   14  C   UNK     0     154.277 175.134 164.917  0.00  0.00     0.099 A 
HETATM   15  C   UNK     0     155.514 174.493 165.006  0.00  0.00     0.098 A 
HETATM   16  C   UNK     0     156.435 174.606 163.965  0.00  0.00     0.040 A 
HETATM   17  C   UNK     0     156.120 175.360 162.834  0.00  0.00     0.017 A 
BRANCH  14  18
HETATM   18  O   UNK     0     153.371 175.032 165.928  0.00  0.00    -0.358 OA
HETATM   19  H   UNK     0     153.597 175.658 166.636  0.00  0.00     0.217 HD
ENDBRANCH  14  18
BRANCH  15  20
HETATM   20  O   UNK     0     155.831 173.752 166.104  0.00  0.00    -0.358 OA
HETATM   21  H   UNK     0     156.787 173.585 166.121  0.00  0.00     0.217 HD
ENDBRANCH  15  20
ENDBRANCH   5  12
BRANCH   6  22
HETATM   22  O   UNK     0     153.939 174.880 160.254  0.00  0.00    -0.355 OA
HETATM   23  H   UNK     0     154.259 174.601 159.380  0.00  0.00     0.218 HD
ENDBRANCH   6  22
BRANCH   8  24
HETATM   24  O   UNK     0     153.279 179.087 157.211  0.00  0.00    -0.360 OA
HETATM   25  H   UNK     0     152.438 178.611 157.284  0.00  0.00     0.217 HD
ENDBRANCH   8  24
BRANCH  10  26
HETATM   26  O   UNK     0     154.527 182.619 160.129  0.00  0.00    -0.361 OA
HETATM   27  H   UNK     0     154.505 183.084 159.275  0.00  0.00     0.217 HD
ENDBRANCH  10  26
TORSDOF 6
ENDMDL
