MODEL 1
REMARK VINA RESULT:     -10.1      0.000      0.000
REMARK  13 active torsions:
REMARK  status: ('A' for Active; 'I' for Inactive)
REMARK    1  A    between atoms: O_2  and  C_16 
REMARK    2  A    between atoms: O_2  and  C_17 
REMARK    3  A    between atoms: O_4  and  C_12 
REMARK    4  A    between atoms: O_5  and  C_13 
REMARK    5  A    between atoms: O_6  and  C_15 
REMARK    6  A    between atoms: O_6  and  C_22 
REMARK    7  A    between atoms: O_7  and  C_14 
REMARK    8  A    between atoms: O_8  and  C_18 
REMARK    9  A    between atoms: O_9  and  C_19 
REMARK   10  A    between atoms: O_10  and  C_20 
REMARK   11  A    between atoms: C_11  and  C_16 
REMARK   12  A    between atoms: C_22  and  C_23 
REMARK   13  A    between atoms: C_24  and  C_25 
ROOT
HETATM    1  O   UNK     0      27.329  21.321  24.667  0.00  0.00    -0.348 OA
HETATM    2  C   UNK     0      27.268  22.566  23.969  0.00  0.00     0.180 C 
HETATM    3  C   UNK     0      25.853  22.792  23.428  0.00  0.00     0.180 C 
HETATM    4  C   UNK     0      25.417  21.624  22.546  0.00  0.00     0.183 C 
HETATM    5  C   UNK     0      25.661  20.284  23.241  0.00  0.00     0.204 C 
HETATM    6  C   UNK     0      27.073  20.206  23.818  0.00  0.00     0.291 C 
ENDROOT
BRANCH   2   7
HETATM    7  C   UNK     0      27.681  23.663  24.946  0.00  0.00     0.205 C 
BRANCH   7   8
HETATM    8  O   UNK     0      26.667  24.651  24.969  0.00  0.00    -0.356 OA
BRANCH   8   9
HETATM    9  C   UNK     0      25.744  24.434  26.032  0.00  0.00     0.290 C 
HETATM   10  O   UNK     0      24.385  24.520  25.589  0.00  0.00    -0.356 OA
HETATM   11  C   UNK     0      23.999  25.827  25.169  0.00  0.00     0.205 C 
HETATM   12  C   UNK     0      24.135  26.821  26.315  0.00  0.00     0.173 C 
HETATM   13  C   UNK     0      25.570  26.840  26.845  0.00  0.00     0.182 C 
HETATM   14  C   UNK     0      26.028  25.416  27.179  0.00  0.00     0.204 C 
BRANCH  12  15
HETATM   15  O   UNK     0      23.761  28.123  25.888  0.00  0.00    -0.391 OA
HETATM   16  H   UNK     0      22.813  28.234  26.078  0.00  0.00     0.210 HD
ENDBRANCH  12  15
BRANCH  13  17
HETATM   17  O   UNK     0      26.430  27.399  25.855  0.00  0.00    -0.390 OA
HETATM   18  H   UNK     0      25.871  27.712  25.123  0.00  0.00     0.210 HD
ENDBRANCH  13  17
BRANCH  14  19
HETATM   19  O   UNK     0      25.333  24.955  28.337  0.00  0.00    -0.388 OA
HETATM   20  H   UNK     0      25.687  24.083  28.580  0.00  0.00     0.210 HD
ENDBRANCH  14  19
ENDBRANCH   8   9
ENDBRANCH   7   8
ENDBRANCH   2   7
BRANCH   6  21
HETATM   21  O   UNK     0      27.175  18.996  24.568  0.00  0.00    -0.355 OA
BRANCH  21  22
HETATM   22  C   UNK     0      28.525  18.570  24.679  0.00  0.00     0.198 C 
BRANCH  22  23
HETATM   23  C   UNK     0      28.782  18.154  26.092  0.00  0.00     0.000 C 
HETATM   24  C   UNK     0      28.036  18.567  27.129  0.00  0.00     0.009 C 
BRANCH  24  25
HETATM   25  C   UNK     0      28.242  18.173  28.533  0.00  0.00    -0.036 A 
HETATM   26  C   UNK     0      27.319  18.562  29.490  0.00  0.00     0.011 A 
HETATM   27  C   UNK     0      27.514  18.189  30.821  0.00  0.00     0.001 A 
HETATM   28  C   UNK     0      28.629  17.431  31.175  0.00  0.00     0.000 A 
HETATM   29  C   UNK     0      29.550  17.046  30.201  0.00  0.00     0.001 A 
HETATM   30  C   UNK     0      29.355  17.419  28.871  0.00  0.00     0.011 A 
ENDBRANCH  24  25
ENDBRANCH  22  23
ENDBRANCH  21  22
ENDBRANCH   6  21
BRANCH   3  31
HETATM   31  O   UNK     0      25.828  23.996  22.665  0.00  0.00    -0.390 OA
HETATM   32  H   UNK     0      26.003  23.766  21.736  0.00  0.00     0.210 HD
ENDBRANCH   3  31
BRANCH   5  33
HETATM   33  O   UNK     0      25.503  19.225  22.296  0.00  0.00    -0.388 OA
HETATM   34  H   UNK     0      25.799  19.548  21.429  0.00  0.00     0.210 HD
ENDBRANCH   5  33
BRANCH   4  35
HETATM   35  O   UNK     0      24.023  21.773  22.273  0.00  0.00    -0.390 OA
HETATM   36  H   UNK     0      23.617  20.892  22.344  0.00  0.00     0.210 HD
ENDBRANCH   4  35
TORSDOF 13
ENDMDL
MODEL 2
REMARK VINA RESULT:     -10.1     12.739     19.067
REMARK  13 active torsions:
REMARK  status: ('A' for Active; 'I' for Inactive)
REMARK    1  A    between atoms: O_2  and  C_16 
REMARK    2  A    between atoms: O_2  and  C_17 
REMARK    3  A    between atoms: O_4  and  C_12 
REMARK    4  A    between atoms: O_5  and  C_13 
REMARK    5  A    between atoms: O_6  and  C_15 
REMARK    6  A    between atoms: O_6  and  C_22 
REMARK    7  A    between atoms: O_7  and  C_14 
REMARK    8  A    between atoms: O_8  and  C_18 
REMARK    9  A    between atoms: O_9  and  C_19 
REMARK   10  A    between atoms: O_10  and  C_20 
REMARK   11  A    between atoms: C_11  and  C_16 
REMARK   12  A    between atoms: C_22  and  C_23 
REMARK   13  A    between atoms: C_24  and  C_25 
ROOT
HETATM    1  O   UNK     0      15.843  37.511  27.558  0.00  0.00    -0.348 OA
HETATM    2  C   UNK     0      16.862  36.848  26.809  0.00  0.00     0.180 C 
HETATM    3  C   UNK     0      17.859  37.874  26.263  0.00  0.00     0.180 C 
HETATM    4  C   UNK     0      17.142  38.936  25.431  0.00  0.00     0.183 C 
HETATM    5  C   UNK     0      15.938  39.508  26.181  0.00  0.00     0.204 C 
HETATM    6  C   UNK     0      15.064  38.396  26.757  0.00  0.00     0.291 C 
ENDROOT
BRANCH   2   7
HETATM    7  C   UNK     0      17.538  35.844  27.739  0.00  0.00     0.205 C 
BRANCH   7   8
HETATM    8  O   UNK     0      18.278  34.929  26.951  0.00  0.00    -0.356 OA
BRANCH   8   9
HETATM    9  C   UNK     0      17.624  33.668  26.852  0.00  0.00     0.290 C 
HETATM   10  O   UNK     0      17.591  32.981  28.109  0.00  0.00    -0.356 OA
HETATM   11  C   UNK     0      18.875  32.574  28.575  0.00  0.00     0.205 C 
HETATM   12  C   UNK     0      19.528  31.617  27.585  0.00  0.00     0.173 C 
HETATM   13  C   UNK     0      19.649  32.268  26.206  0.00  0.00     0.182 C 
HETATM   14  C   UNK     0      18.290  32.817  25.760  0.00  0.00     0.204 C 
BRANCH  12  15
HETATM   15  O   UNK     0      20.812  31.225  28.048  0.00  0.00    -0.391 OA
HETATM   16  H   UNK     0      21.123  30.503  27.475  0.00  0.00     0.210 HD
ENDBRANCH  12  15
BRANCH  13  17
HETATM   17  O   UNK     0      20.597  33.333  26.270  0.00  0.00    -0.390 OA
HETATM   18  H   UNK     0      20.902  33.507  25.363  0.00  0.00     0.210 HD
ENDBRANCH  13  17
BRANCH  14  19
HETATM   19  O   UNK     0      17.418  31.730  25.454  0.00  0.00    -0.388 OA
HETATM   20  H   UNK     0      17.134  31.816  24.529  0.00  0.00     0.210 HD
ENDBRANCH  14  19
ENDBRANCH   8   9
ENDBRANCH   7   8
ENDBRANCH   2   7
BRANCH   6  21
HETATM   21  O   UNK     0      14.050  39.003  27.557  0.00  0.00    -0.355 OA
BRANCH  21  22
HETATM   22  C   UNK     0      14.570  40.082  28.319  0.00  0.00     0.198 C 
BRANCH  22  23
HETATM   23  C   UNK     0      14.546  39.704  29.765  0.00  0.00     0.000 C 
HETATM   24  C   UNK     0      15.624  39.257  30.428  0.00  0.00     0.009 C 
BRANCH  24  25
HETATM   25  C   UNK     0      15.651  38.887  31.854  0.00  0.00    -0.036 A 
HETATM   26  C   UNK     0      14.652  39.351  32.695  0.00  0.00     0.011 A 
HETATM   27  C   UNK     0      14.678  39.001  34.045  0.00  0.00     0.001 A 
HETATM   28  C   UNK     0      15.702  38.192  34.536  0.00  0.00     0.000 A 
HETATM   29  C   UNK     0      16.701  37.733  33.677  0.00  0.00     0.001 A 
HETATM   30  C   UNK     0      16.675  38.082  32.327  0.00  0.00     0.011 A 
ENDBRANCH  24  25
ENDBRANCH  22  23
ENDBRANCH  21  22
ENDBRANCH   6  21
BRANCH   3  31
HETATM   31  O   UNK     0      18.822  37.208  25.450  0.00  0.00    -0.390 OA
HETATM   32  H   UNK     0      19.570  37.816  25.312  0.00  0.00     0.210 HD
ENDBRANCH   3  31
BRANCH   5  33
HETATM   33  O   UNK     0      15.145  40.282  25.282  0.00  0.00    -0.388 OA
HETATM   34  H   UNK     0      15.660  41.064  25.022  0.00  0.00     0.210 HD
ENDBRANCH   5  33
BRANCH   4  35
HETATM   35  O   UNK     0      18.074  39.984  25.156  0.00  0.00    -0.390 OA
HETATM   36  H   UNK     0      17.639  40.825  25.378  0.00  0.00     0.210 HD
ENDBRANCH   4  35
TORSDOF 13
ENDMDL
MODEL 3
REMARK VINA RESULT:     -10.0      1.529      2.371
REMARK  13 active torsions:
REMARK  status: ('A' for Active; 'I' for Inactive)
REMARK    1  A    between atoms: O_2  and  C_16 
REMARK    2  A    between atoms: O_2  and  C_17 
REMARK    3  A    between atoms: O_4  and  C_12 
REMARK    4  A    between atoms: O_5  and  C_13 
REMARK    5  A    between atoms: O_6  and  C_15 
REMARK    6  A    between atoms: O_6  and  C_22 
REMARK    7  A    between atoms: O_7  and  C_14 
REMARK    8  A    between atoms: O_8  and  C_18 
REMARK    9  A    between atoms: O_9  and  C_19 
REMARK   10  A    between atoms: O_10  and  C_20 
REMARK   11  A    between atoms: C_11  and  C_16 
REMARK   12  A    between atoms: C_22  and  C_23 
REMARK   13  A    between atoms: C_24  and  C_25 
ROOT
HETATM    1  O   UNK     0      28.168  20.607  24.798  0.00  0.00    -0.348 OA
HETATM    2  C   UNK     0      27.163  21.483  24.287  0.00  0.00     0.180 C 
HETATM    3  C   UNK     0      26.378  20.785  23.174  0.00  0.00     0.180 C 
HETATM    4  C   UNK     0      27.317  20.292  22.074  0.00  0.00     0.183 C 
HETATM    5  C   UNK     0      28.491  19.506  22.659  0.00  0.00     0.204 C 
HETATM    6  C   UNK     0      29.142  20.259  23.817  0.00  0.00     0.291 C 
ENDROOT
BRANCH   2   7
HETATM    7  C   UNK     0      26.261  21.881  25.452  0.00  0.00     0.205 C 
BRANCH   7   8
HETATM    8  O   UNK     0      25.577  23.071  25.105  0.00  0.00    -0.356 OA
BRANCH   8   9
HETATM    9  C   UNK     0      26.367  24.228  25.364  0.00  0.00     0.290 C 
HETATM   10  O   UNK     0      26.456  24.514  26.764  0.00  0.00    -0.356 OA
HETATM   11  C   UNK     0      25.218  24.907  27.351  0.00  0.00     0.205 C 
HETATM   12  C   UNK     0      24.689  26.174  26.691  0.00  0.00     0.173 C 
HETATM   13  C   UNK     0      24.516  25.967  25.185  0.00  0.00     0.182 C 
HETATM   14  C   UNK     0      25.814  25.425  24.576  0.00  0.00     0.204 C 
BRANCH  12  15
HETATM   15  O   UNK     0      23.448  26.553  27.270  0.00  0.00    -0.391 OA
HETATM   16  H   UNK     0      23.590  26.657  28.228  0.00  0.00     0.210 HD
ENDBRANCH  12  15
BRANCH  13  17
HETATM   17  O   UNK     0      23.457  25.039  24.956  0.00  0.00    -0.390 OA
HETATM   18  H   UNK     0      23.519  24.748  24.029  0.00  0.00     0.210 HD
ENDBRANCH  13  17
BRANCH  14  19
HETATM   19  O   UNK     0      26.804  26.452  24.581  0.00  0.00    -0.388 OA
HETATM   20  H   UNK     0      27.110  26.578  25.495  0.00  0.00     0.210 HD
ENDBRANCH  14  19
ENDBRANCH   8   9
ENDBRANCH   7   8
ENDBRANCH   2   7
BRANCH   6  21
HETATM   21  O   UNK     0      30.128  19.407  24.397  0.00  0.00    -0.355 OA
BRANCH  21  22
HETATM   22  C   UNK     0      29.597  18.121  24.682  0.00  0.00     0.198 C 
BRANCH  22  23
HETATM   23  C   UNK     0      29.614  17.911  26.162  0.00  0.00     0.000 C 
HETATM   24  C   UNK     0      28.552  18.139  26.950  0.00  0.00     0.009 C 
BRANCH  24  25
HETATM   25  C   UNK     0      28.517  17.933  28.408  0.00  0.00    -0.036 A 
HETATM   26  C   UNK     0      29.539  17.224  29.019  0.00  0.00     0.011 A 
HETATM   27  C   UNK     0      29.506  17.028  30.400  0.00  0.00     0.001 A 
HETATM   28  C   UNK     0      28.451  17.545  31.152  0.00  0.00     0.000 A 
HETATM   29  C   UNK     0      27.429  18.257  30.524  0.00  0.00     0.001 A 
HETATM   30  C   UNK     0      27.462  18.452  29.143  0.00  0.00     0.011 A 
ENDBRANCH  24  25
ENDBRANCH  22  23
ENDBRANCH  21  22
ENDBRANCH   6  21
BRANCH   3  31
HETATM   31  O   UNK     0      25.435  21.697  22.617  0.00  0.00    -0.390 OA
HETATM   32  H   UNK     0      25.662  22.590  22.930  0.00  0.00     0.210 HD
ENDBRANCH   3  31
BRANCH   5  33
HETATM   33  O   UNK     0      29.476  19.304  21.645  0.00  0.00    -0.388 OA
HETATM   34  H   UNK     0      30.237  18.855  22.050  0.00  0.00     0.210 HD
ENDBRANCH   5  33
BRANCH   4  35
HETATM   35  O   UNK     0      26.567  19.448  21.198  0.00  0.00    -0.390 OA
HETATM   36  H   UNK     0      27.177  19.124  20.514  0.00  0.00     0.210 HD
ENDBRANCH   4  35
TORSDOF 13
ENDMDL
MODEL 4
REMARK VINA RESULT:     -10.0     12.081     18.473
REMARK  13 active torsions:
REMARK  status: ('A' for Active; 'I' for Inactive)
REMARK    1  A    between atoms: O_2  and  C_16 
REMARK    2  A    between atoms: O_2  and  C_17 
REMARK    3  A    between atoms: O_4  and  C_12 
REMARK    4  A    between atoms: O_5  and  C_13 
REMARK    5  A    between atoms: O_6  and  C_15 
REMARK    6  A    between atoms: O_6  and  C_22 
REMARK    7  A    between atoms: O_7  and  C_14 
REMARK    8  A    between atoms: O_8  and  C_18 
REMARK    9  A    between atoms: O_9  and  C_19 
REMARK   10  A    between atoms: O_10  and  C_20 
REMARK   11  A    between atoms: C_11  and  C_16 
REMARK   12  A    between atoms: C_22  and  C_23 
REMARK   13  A    between atoms: C_24  and  C_25 
ROOT
HETATM    1  O   UNK     0      16.791  37.281  27.065  0.00  0.00    -0.348 OA
HETATM    2  C   UNK     0      16.974  36.290  26.052  0.00  0.00     0.180 C 
HETATM    3  C   UNK     0      18.355  36.447  25.412  0.00  0.00     0.180 C 
HETATM    4  C   UNK     0      18.542  37.861  24.864  0.00  0.00     0.183 C 
HETATM    5  C   UNK     0      18.166  38.914  25.908  0.00  0.00     0.204 C 
HETATM    6  C   UNK     0      16.811  38.607  26.543  0.00  0.00     0.291 C 
ENDROOT
BRANCH   2   7
HETATM    7  C   UNK     0      16.807  34.923  26.709  0.00  0.00     0.205 C 
BRANCH   7   8
HETATM    8  O   UNK     0      17.921  34.120  26.365  0.00  0.00    -0.356 OA
BRANCH   8   9
HETATM    9  C   UNK     0      18.752  33.859  27.492  0.00  0.00     0.290 C 
HETATM   10  O   UNK     0      20.143  33.917  27.158  0.00  0.00    -0.356 OA
HETATM   11  C   UNK     0      20.566  32.881  26.275  0.00  0.00     0.205 C 
HETATM   12  C   UNK     0      20.339  31.513  26.905  0.00  0.00     0.173 C 
HETATM   13  C   UNK     0      18.865  31.325  27.269  0.00  0.00     0.182 C 
HETATM   14  C   UNK     0      18.377  32.506  28.116  0.00  0.00     0.204 C 
BRANCH  12  15
HETATM   15  O   UNK     0      20.750  30.484  26.016  0.00  0.00    -0.391 OA
HETATM   16  H   UNK     0      21.453  30.848  25.450  0.00  0.00     0.210 HD
ENDBRANCH  12  15
BRANCH  13  17
HETATM   17  O   UNK     0      18.091  31.243  26.074  0.00  0.00    -0.390 OA
HETATM   18  H   UNK     0      17.884  30.304  25.923  0.00  0.00     0.210 HD
ENDBRANCH  13  17
BRANCH  14  19
HETATM   19  O   UNK     0      18.971  32.437  29.411  0.00  0.00    -0.388 OA
HETATM   20  H   UNK     0      19.903  32.700  29.335  0.00  0.00     0.210 HD
ENDBRANCH  14  19
ENDBRANCH   8   9
ENDBRANCH   7   8
ENDBRANCH   2   7
BRANCH   6  21
HETATM   21  O   UNK     0      16.597  39.544  27.598  0.00  0.00    -0.355 OA
BRANCH  21  22
HETATM   22  C   UNK     0      15.217  39.670  27.905  0.00  0.00     0.198 C 
BRANCH  22  23
HETATM   23  C   UNK     0      15.026  39.416  29.366  0.00  0.00     0.000 C 
HETATM   24  C   UNK     0      16.016  39.021  30.182  0.00  0.00     0.009 C 
BRANCH  24  25
HETATM   25  C   UNK     0      15.878  38.773  31.627  0.00  0.00    -0.036 A 
HETATM   26  C   UNK     0      16.814  37.982  32.273  0.00  0.00     0.011 A 
HETATM   27  C   UNK     0      16.684  37.747  33.642  0.00  0.00     0.001 A 
HETATM   28  C   UNK     0      15.620  38.308  34.347  0.00  0.00     0.000 A 
HETATM   29  C   UNK     0      14.685  39.103  33.684  0.00  0.00     0.001 A 
HETATM   30  C   UNK     0      14.815  39.338  32.315  0.00  0.00     0.011 A 
ENDBRANCH  24  25
ENDBRANCH  22  23
ENDBRANCH  21  22
ENDBRANCH   6  21
BRANCH   3  31
HETATM   31  O   UNK     0      18.491  35.507  24.349  0.00  0.00    -0.390 OA
HETATM   32  H   UNK     0      17.706  35.583  23.779  0.00  0.00     0.210 HD
ENDBRANCH   3  31
BRANCH   5  33
HETATM   33  O   UNK     0      18.089  40.194  25.282  0.00  0.00    -0.388 OA
HETATM   34  H   UNK     0      18.720  40.785  25.726  0.00  0.00     0.210 HD
ENDBRANCH   5  33
BRANCH   4  35
HETATM   35  O   UNK     0      19.916  38.018  24.504  0.00  0.00    -0.390 OA
HETATM   36  H   UNK     0      20.246  37.145  24.230  0.00  0.00     0.210 HD
ENDBRANCH   4  35
TORSDOF 13
ENDMDL
MODEL 5
REMARK VINA RESULT:      -9.7      1.573      2.742
REMARK  13 active torsions:
REMARK  status: ('A' for Active; 'I' for Inactive)
REMARK    1  A    between atoms: O_2  and  C_16 
REMARK    2  A    between atoms: O_2  and  C_17 
REMARK    3  A    between atoms: O_4  and  C_12 
REMARK    4  A    between atoms: O_5  and  C_13 
REMARK    5  A    between atoms: O_6  and  C_15 
REMARK    6  A    between atoms: O_6  and  C_22 
REMARK    7  A    between atoms: O_7  and  C_14 
REMARK    8  A    between atoms: O_8  and  C_18 
REMARK    9  A    between atoms: O_9  and  C_19 
REMARK   10  A    between atoms: O_10  and  C_20 
REMARK   11  A    between atoms: C_11  and  C_16 
REMARK   12  A    between atoms: C_22  and  C_23 
REMARK   13  A    between atoms: C_24  and  C_25 
ROOT
HETATM    1  O   UNK     0      26.708  21.248  24.194  0.00  0.00    -0.348 OA
HETATM    2  C   UNK     0      26.186  21.755  22.965  0.00  0.00     0.180 C 
HETATM    3  C   UNK     0      25.780  20.595  22.052  0.00  0.00     0.180 C 
HETATM    4  C   UNK     0      26.956  19.647  21.823  0.00  0.00     0.183 C 
HETATM    5  C   UNK     0      27.619  19.257  23.145  0.00  0.00     0.204 C 
HETATM    6  C   UNK     0      27.897  20.485  24.010  0.00  0.00     0.291 C 
ENDROOT
BRANCH   2   7
HETATM    7  C   UNK     0      24.998  22.651  23.303  0.00  0.00     0.205 C 
BRANCH   7   8
HETATM    8  O   UNK     0      25.283  23.341  24.506  0.00  0.00    -0.356 OA
BRANCH   8   9
HETATM    9  C   UNK     0      24.977  24.728  24.404  0.00  0.00     0.290 C 
HETATM   10  O   UNK     0      25.362  25.270  23.136  0.00  0.00    -0.356 OA
HETATM   11  C   UNK     0      26.771  25.297  22.926  0.00  0.00     0.205 C 
HETATM   12  C   UNK     0      27.455  26.158  23.980  0.00  0.00     0.173 C 
HETATM   13  C   UNK     0      27.142  25.641  25.385  0.00  0.00     0.182 C 
HETATM   14  C   UNK     0      25.628  25.493  25.567  0.00  0.00     0.204 C 
BRANCH  12  15
HETATM   15  O   UNK     0      28.861  26.171  23.773  0.00  0.00    -0.391 OA
HETATM   16  H   UNK     0      29.041  25.691  22.946  0.00  0.00     0.210 HD
ENDBRANCH  12  15
BRANCH  13  17
HETATM   17  O   UNK     0      27.771  24.374  25.572  0.00  0.00    -0.390 OA
HETATM   18  H   UNK     0      27.259  23.716  25.070  0.00  0.00     0.210 HD
ENDBRANCH  13  17
BRANCH  14  19
HETATM   19  O   UNK     0      25.031  26.787  25.632  0.00  0.00    -0.388 OA
HETATM   20  H   UNK     0      24.782  27.056  24.732  0.00  0.00     0.210 HD
ENDBRANCH  14  19
ENDBRANCH   8   9
ENDBRANCH   7   8
ENDBRANCH   2   7
BRANCH   6  21
HETATM   21  O   UNK     0      28.380  20.032  25.274  0.00  0.00    -0.355 OA
BRANCH  21  22
HETATM   22  C   UNK     0      27.358  19.383  26.015  0.00  0.00     0.198 C 
BRANCH  22  23
HETATM   23  C   UNK     0      27.965  18.771  27.236  0.00  0.00     0.000 C 
HETATM   24  C   UNK     0      27.354  18.750  28.431  0.00  0.00     0.009 C 
BRANCH  24  25
HETATM   25  C   UNK     0      27.905  18.146  29.657  0.00  0.00    -0.036 A 
HETATM   26  C   UNK     0      29.050  17.370  29.576  0.00  0.00     0.011 A 
HETATM   27  C   UNK     0      29.573  16.798  30.736  0.00  0.00     0.001 A 
HETATM   28  C   UNK     0      28.943  17.011  31.962  0.00  0.00     0.000 A 
HETATM   29  C   UNK     0      27.792  17.795  32.028  0.00  0.00     0.001 A 
HETATM   30  C   UNK     0      27.269  18.367  30.868  0.00  0.00     0.011 A 
ENDBRANCH  24  25
ENDBRANCH  22  23
ENDBRANCH  21  22
ENDBRANCH   6  21
BRANCH   3  31
HETATM   31  O   UNK     0      25.339  21.113  20.799  0.00  0.00    -0.390 OA
HETATM   32  H   UNK     0      26.068  21.016  20.162  0.00  0.00     0.210 HD
ENDBRANCH   3  31
BRANCH   5  33
HETATM   33  O   UNK     0      28.861  18.606  22.877  0.00  0.00    -0.388 OA
HETATM   34  H   UNK     0      29.047  17.999  23.613  0.00  0.00     0.210 HD
ENDBRANCH   5  33
BRANCH   4  35
HETATM   35  O   UNK     0      26.459  18.475  21.175  0.00  0.00    -0.390 OA
HETATM   36  H   UNK     0      25.630  18.226  21.619  0.00  0.00     0.210 HD
ENDBRANCH   4  35
TORSDOF 13
ENDMDL
MODEL 6
REMARK VINA RESULT:      -9.4     17.614     21.204
REMARK  13 active torsions:
REMARK  status: ('A' for Active; 'I' for Inactive)
REMARK    1  A    between atoms: O_2  and  C_16 
REMARK    2  A    between atoms: O_2  and  C_17 
REMARK    3  A    between atoms: O_4  and  C_12 
REMARK    4  A    between atoms: O_5  and  C_13 
REMARK    5  A    between atoms: O_6  and  C_15 
REMARK    6  A    between atoms: O_6  and  C_22 
REMARK    7  A    between atoms: O_7  and  C_14 
REMARK    8  A    between atoms: O_8  and  C_18 
REMARK    9  A    between atoms: O_9  and  C_19 
REMARK   10  A    between atoms: O_10  and  C_20 
REMARK   11  A    between atoms: C_11  and  C_16 
REMARK   12  A    between atoms: C_22  and  C_23 
REMARK   13  A    between atoms: C_24  and  C_25 
ROOT
HETATM    1  O   UNK     0      22.944  35.329  12.550  0.00  0.00    -0.348 OA
HETATM    2  C   UNK     0      23.452  35.059  11.242  0.00  0.00     0.180 C 
HETATM    3  C   UNK     0      22.790  33.801  10.674  0.00  0.00     0.180 C 
HETATM    4  C   UNK     0      22.983  32.614  11.616  0.00  0.00     0.183 C 
HETATM    5  C   UNK     0      22.603  32.978  13.052  0.00  0.00     0.204 C 
HETATM    6  C   UNK     0      23.250  34.295  13.480  0.00  0.00     0.291 C 
ENDROOT
BRANCH   2   7
HETATM    7  C   UNK     0      23.174  36.284  10.377  0.00  0.00     0.205 C 
BRANCH   7   8
HETATM    8  O   UNK     0      24.411  36.876  10.024  0.00  0.00    -0.356 OA
BRANCH   8   9
HETATM    9  C   UNK     0      24.280  37.740   8.900  0.00  0.00     0.290 C 
HETATM   10  O   UNK     0      25.539  37.986   8.263  0.00  0.00    -0.356 OA
HETATM   11  C   UNK     0      26.452  38.734   9.064  0.00  0.00     0.205 C 
HETATM   12  C   UNK     0      25.873  40.102   9.402  0.00  0.00     0.173 C 
HETATM   13  C   UNK     0      24.533  39.957  10.125  0.00  0.00     0.182 C 
HETATM   14  C   UNK     0      23.596  39.049   9.323  0.00  0.00     0.204 C 
BRANCH  12  15
HETATM   15  O   UNK     0      26.780  40.837  10.210  0.00  0.00    -0.391 OA
HETATM   16  H   UNK     0      26.328  41.652  10.492  0.00  0.00     0.210 HD
ENDBRANCH  12  15
BRANCH  13  17
HETATM   17  O   UNK     0      24.754  39.392  11.417  0.00  0.00    -0.390 OA
HETATM   18  H   UNK     0      25.581  39.769  11.763  0.00  0.00     0.210 HD
ENDBRANCH  13  17
BRANCH  14  19
HETATM   19  O   UNK     0      23.176  39.729   8.141  0.00  0.00    -0.388 OA
HETATM   20  H   UNK     0      22.857  39.068   7.504  0.00  0.00     0.210 HD
ENDBRANCH  14  19
ENDBRANCH   8   9
ENDBRANCH   7   8
ENDBRANCH   2   7
BRANCH   6  21
HETATM   21  O   UNK     0      22.739  34.637  14.768  0.00  0.00    -0.355 OA
BRANCH  21  22
HETATM   22  C   UNK     0      22.188  35.945  14.774  0.00  0.00     0.198 C 
BRANCH  22  23
HETATM   23  C   UNK     0      23.149  36.868  15.454  0.00  0.00     0.000 C 
HETATM   24  C   UNK     0      23.730  37.909  14.838  0.00  0.00     0.009 C 
BRANCH  24  25
HETATM   25  C   UNK     0      24.669  38.853  15.470  0.00  0.00    -0.036 A 
HETATM   26  C   UNK     0      25.306  38.492  16.646  0.00  0.00     0.011 A 
HETATM   27  C   UNK     0      26.195  39.385  17.245  0.00  0.00     0.001 A 
HETATM   28  C   UNK     0      26.436  40.627  16.657  0.00  0.00     0.000 A 
HETATM   29  C   UNK     0      25.788  40.976  15.473  0.00  0.00     0.001 A 
HETATM   30  C   UNK     0      24.898  40.083  14.875  0.00  0.00     0.011 A 
ENDBRANCH  24  25
ENDBRANCH  22  23
ENDBRANCH  21  22
ENDBRANCH   6  21
BRANCH   3  31
HETATM   31  O   UNK     0      23.366  33.497   9.406  0.00  0.00    -0.390 OA
HETATM   32  H   UNK     0      22.716  33.726   8.719  0.00  0.00     0.210 HD
ENDBRANCH   3  31
BRANCH   5  33
HETATM   33  O   UNK     0      23.051  31.950  13.935  0.00  0.00    -0.388 OA
HETATM   34  H   UNK     0      22.540  31.146  13.745  0.00  0.00     0.210 HD
ENDBRANCH   5  33
BRANCH   4  35
HETATM   35  O   UNK     0      22.148  31.547  11.160  0.00  0.00    -0.390 OA
HETATM   36  H   UNK     0      21.785  31.811  10.297  0.00  0.00     0.210 HD
ENDBRANCH   4  35
TORSDOF 13
ENDMDL
MODEL 7
REMARK VINA RESULT:      -9.3     17.328     21.356
REMARK  13 active torsions:
REMARK  status: ('A' for Active; 'I' for Inactive)
REMARK    1  A    between atoms: O_2  and  C_16 
REMARK    2  A    between atoms: O_2  and  C_17 
REMARK    3  A    between atoms: O_4  and  C_12 
REMARK    4  A    between atoms: O_5  and  C_13 
REMARK    5  A    between atoms: O_6  and  C_15 
REMARK    6  A    between atoms: O_6  and  C_22 
REMARK    7  A    between atoms: O_7  and  C_14 
REMARK    8  A    between atoms: O_8  and  C_18 
REMARK    9  A    between atoms: O_9  and  C_19 
REMARK   10  A    between atoms: O_10  and  C_20 
REMARK   11  A    between atoms: C_11  and  C_16 
REMARK   12  A    between atoms: C_22  and  C_23 
REMARK   13  A    between atoms: C_24  and  C_25 
ROOT
HETATM    1  O   UNK     0      23.158  34.946  12.100  0.00  0.00    -0.348 OA
HETATM    2  C   UNK     0      22.595  34.064  13.072  0.00  0.00     0.180 C 
HETATM    3  C   UNK     0      23.212  32.670  12.933  0.00  0.00     0.180 C 
HETATM    4  C   UNK     0      23.034  32.138  11.512  0.00  0.00     0.183 C 
HETATM    5  C   UNK     0      23.475  33.171  10.474  0.00  0.00     0.204 C 
HETATM    6  C   UNK     0      22.868  34.543  10.764  0.00  0.00     0.291 C 
ENDROOT
BRANCH   2   7
HETATM    7  C   UNK     0      22.862  34.665  14.449  0.00  0.00     0.205 C 
BRANCH   7   8
HETATM    8  O   UNK     0      22.902  36.075  14.324  0.00  0.00    -0.356 OA
BRANCH   8   9
HETATM    9  C   UNK     0      22.442  36.723  15.506  0.00  0.00     0.290 C 
HETATM   10  O   UNK     0      22.199  38.118  15.294  0.00  0.00    -0.356 OA
HETATM   11  C   UNK     0      23.379  38.872  15.025  0.00  0.00     0.205 C 
HETATM   12  C   UNK     0      24.351  38.783  16.194  0.00  0.00     0.173 C 
HETATM   13  C   UNK     0      24.712  37.326  16.487  0.00  0.00     0.182 C 
HETATM   14  C   UNK     0      23.439  36.490  16.652  0.00  0.00     0.204 C 
BRANCH  12  15
HETATM   15  O   UNK     0      25.530  39.525  15.916  0.00  0.00    -0.391 OA
HETATM   16  H   UNK     0      26.263  38.891  15.832  0.00  0.00     0.210 HD
ENDBRANCH  12  15
BRANCH  13  17
HETATM   17  O   UNK     0      25.487  36.807  15.407  0.00  0.00    -0.390 OA
HETATM   18  H   UNK     0      24.989  36.965  14.587  0.00  0.00     0.210 HD
ENDBRANCH  13  17
BRANCH  14  19
HETATM   19  O   UNK     0      22.796  36.845  17.875  0.00  0.00    -0.388 OA
HETATM   20  H   UNK     0      22.025  36.265  17.995  0.00  0.00     0.210 HD
ENDBRANCH  14  19
ENDBRANCH   8   9
ENDBRANCH   7   8
ENDBRANCH   2   7
BRANCH   6  21
HETATM   21  O   UNK     0      23.434  35.477   9.845  0.00  0.00    -0.355 OA
BRANCH  21  22
HETATM   22  C   UNK     0      23.348  36.804  10.339  0.00  0.00     0.198 C 
BRANCH  22  23
HETATM   23  C   UNK     0      24.505  37.590   9.810  0.00  0.00     0.000 C 
HETATM   24  C   UNK     0      24.373  38.594   8.929  0.00  0.00     0.009 C 
BRANCH  24  25
HETATM   25  C   UNK     0      25.480  39.404   8.392  0.00  0.00    -0.036 A 
HETATM   26  C   UNK     0      25.202  40.424   7.496  0.00  0.00     0.011 A 
HETATM   27  C   UNK     0      26.250  41.192   6.987  0.00  0.00     0.001 A 
HETATM   28  C   UNK     0      27.561  40.930   7.383  0.00  0.00     0.000 A 
HETATM   29  C   UNK     0      27.826  39.901   8.286  0.00  0.00     0.001 A 
HETATM   30  C   UNK     0      26.778  39.132   8.795  0.00  0.00     0.011 A 
ENDBRANCH  24  25
ENDBRANCH  22  23
ENDBRANCH  21  22
ENDBRANCH   6  21
BRANCH   3  31
HETATM   31  O   UNK     0      22.583  31.781  13.852  0.00  0.00    -0.390 OA
HETATM   32  H   UNK     0      22.922  31.982  14.742  0.00  0.00     0.210 HD
ENDBRANCH   3  31
BRANCH   5  33
HETATM   33  O   UNK     0      23.043  32.754   9.179  0.00  0.00    -0.388 OA
HETATM   34  H   UNK     0      23.798  32.341   8.727  0.00  0.00     0.210 HD
ENDBRANCH   5  33
BRANCH   4  35
HETATM   35  O   UNK     0      23.830  30.959  11.378  0.00  0.00    -0.390 OA
HETATM   36  H   UNK     0      23.296  30.298  10.906  0.00  0.00     0.210 HD
ENDBRANCH   4  35
TORSDOF 13
ENDMDL
MODEL 8
REMARK VINA RESULT:      -9.1     14.957     18.377
REMARK  13 active torsions:
REMARK  status: ('A' for Active; 'I' for Inactive)
REMARK    1  A    between atoms: O_2  and  C_16 
REMARK    2  A    between atoms: O_2  and  C_17 
REMARK    3  A    between atoms: O_4  and  C_12 
REMARK    4  A    between atoms: O_5  and  C_13 
REMARK    5  A    between atoms: O_6  and  C_15 
REMARK    6  A    between atoms: O_6  and  C_22 
REMARK    7  A    between atoms: O_7  and  C_14 
REMARK    8  A    between atoms: O_8  and  C_18 
REMARK    9  A    between atoms: O_9  and  C_19 
REMARK   10  A    between atoms: O_10  and  C_20 
REMARK   11  A    between atoms: C_11  and  C_16 
REMARK   12  A    between atoms: C_22  and  C_23 
REMARK   13  A    between atoms: C_24  and  C_25 
ROOT
HETATM    1  O   UNK     0      22.457  28.497  10.995  0.00  0.00    -0.348 OA
HETATM    2  C   UNK     0      22.110  29.321   9.880  0.00  0.00     0.180 C 
HETATM    3  C   UNK     0      22.911  30.625   9.924  0.00  0.00     0.180 C 
HETATM    4  C   UNK     0      22.697  31.347  11.254  0.00  0.00     0.183 C 
HETATM    5  C   UNK     0      22.897  30.400  12.437  0.00  0.00     0.204 C 
HETATM    6  C   UNK     0      22.122  29.097  12.243  0.00  0.00     0.291 C 
ENDROOT
BRANCH   2   7
HETATM    7  C   UNK     0      22.397  28.524   8.611  0.00  0.00     0.205 C 
BRANCH   7   8
HETATM    8  O   UNK     0      21.168  28.062   8.082  0.00  0.00    -0.356 OA
BRANCH   8   9
HETATM    9  C   UNK     0      21.281  27.722   6.703  0.00  0.00     0.290 C 
HETATM   10  O   UNK     0      20.005  27.681   6.055  0.00  0.00    -0.356 OA
HETATM   11  C   UNK     0      19.160  26.629   6.515  0.00  0.00     0.205 C 
HETATM   12  C   UNK     0      19.807  25.273   6.265  0.00  0.00     0.173 C 
HETATM   13  C   UNK     0      21.171  25.191   6.951  0.00  0.00     0.182 C 
HETATM   14  C   UNK     0      22.035  26.392   6.552  0.00  0.00     0.204 C 
BRANCH  12  15
HETATM   15  O   UNK     0      18.967  24.229   6.737  0.00  0.00    -0.391 OA
HETATM   16  H   UNK     0      19.322  23.389   6.396  0.00  0.00     0.210 HD
ENDBRANCH  12  15
BRANCH  13  17
HETATM   17  O   UNK     0      20.987  25.185   8.366  0.00  0.00    -0.390 OA
HETATM   18  H   UNK     0      21.499  24.439   8.724  0.00  0.00     0.210 HD
ENDBRANCH  13  17
BRANCH  14  19
HETATM   19  O   UNK     0      22.427  26.260   5.187  0.00  0.00    -0.388 OA
HETATM   20  H   UNK     0      22.519  25.314   4.985  0.00  0.00     0.210 HD
ENDBRANCH  14  19
ENDBRANCH   8   9
ENDBRANCH   7   8
ENDBRANCH   2   7
BRANCH   6  21
HETATM   21  O   UNK     0      22.469  28.216  13.310  0.00  0.00    -0.355 OA
BRANCH  21  22
HETATM   22  C   UNK     0      23.376  27.213  12.878  0.00  0.00     0.198 C 
BRANCH  22  23
HETATM   23  C   UNK     0      22.629  25.928  12.717  0.00  0.00     0.000 C 
HETATM   24  C   UNK     0      21.294  25.834  12.818  0.00  0.00     0.009 C 
BRANCH  24  25
HETATM   25  C   UNK     0      20.514  24.595  12.653  0.00  0.00    -0.036 A 
HETATM   26  C   UNK     0      20.722  23.806  11.533  0.00  0.00     0.011 A 
HETATM   27  C   UNK     0      19.985  22.632  11.376  0.00  0.00     0.001 A 
HETATM   28  C   UNK     0      19.049  22.263  12.342  0.00  0.00     0.000 A 
HETATM   29  C   UNK     0      18.851  23.067  13.464  0.00  0.00     0.001 A 
HETATM   30  C   UNK     0      19.589  24.241  13.621  0.00  0.00     0.011 A 
ENDBRANCH  24  25
ENDBRANCH  22  23
ENDBRANCH  21  22
ENDBRANCH   6  21
BRANCH   3  31
HETATM   31  O   UNK     0      22.494  31.470   8.855  0.00  0.00    -0.390 OA
HETATM   32  H   UNK     0      22.085  30.910   8.172  0.00  0.00     0.210 HD
ENDBRANCH   3  31
BRANCH   5  33
HETATM   33  O   UNK     0      22.426  31.028  13.630  0.00  0.00    -0.388 OA
HETATM   34  H   UNK     0      21.574  30.626  13.866  0.00  0.00     0.210 HD
ENDBRANCH   5  33
BRANCH   4  35
HETATM   35  O   UNK     0      23.644  32.414  11.333  0.00  0.00    -0.390 OA
HETATM   36  H   UNK     0      23.438  32.927  12.133  0.00  0.00     0.210 HD
ENDBRANCH   4  35
TORSDOF 13
ENDMDL
MODEL 9
REMARK VINA RESULT:      -9.1     17.848     21.967
REMARK  13 active torsions:
REMARK  status: ('A' for Active; 'I' for Inactive)
REMARK    1  A    between atoms: O_2  and  C_16 
REMARK    2  A    between atoms: O_2  and  C_17 
REMARK    3  A    between atoms: O_4  and  C_12 
REMARK    4  A    between atoms: O_5  and  C_13 
REMARK    5  A    between atoms: O_6  and  C_15 
REMARK    6  A    between atoms: O_6  and  C_22 
REMARK    7  A    between atoms: O_7  and  C_14 
REMARK    8  A    between atoms: O_8  and  C_18 
REMARK    9  A    between atoms: O_9  and  C_19 
REMARK   10  A    between atoms: O_10  and  C_20 
REMARK   11  A    between atoms: C_11  and  C_16 
REMARK   12  A    between atoms: C_22  and  C_23 
REMARK   13  A    between atoms: C_24  and  C_25 
ROOT
HETATM    1  O   UNK     0      24.388  40.179  14.438  0.00  0.00    -0.348 OA
HETATM    2  C   UNK     0      24.953  41.287  15.140  0.00  0.00     0.180 C 
HETATM    3  C   UNK     0      26.045  40.799  16.095  0.00  0.00     0.180 C 
HETATM    4  C   UNK     0      25.497  39.741  17.051  0.00  0.00     0.183 C 
HETATM    5  C   UNK     0      24.735  38.652  16.294  0.00  0.00     0.204 C 
HETATM    6  C   UNK     0      23.737  39.256  15.307  0.00  0.00     0.291 C 
ENDROOT
BRANCH   2   7
HETATM    7  C   UNK     0      25.504  42.259  14.100  0.00  0.00     0.205 C 
BRANCH   7   8
HETATM    8  O   UNK     0      25.668  43.526  14.710  0.00  0.00    -0.356 OA
BRANCH   8   9
HETATM    9  C   UNK     0      24.530  44.358  14.510  0.00  0.00     0.290 C 
HETATM   10  O   UNK     0      24.899  45.695  14.154  0.00  0.00    -0.356 OA
HETATM   11  C   UNK     0      25.563  46.405  15.197  0.00  0.00     0.205 C 
HETATM   12  C   UNK     0      24.665  46.525  16.422  0.00  0.00     0.173 C 
HETATM   13  C   UNK     0      24.238  45.141  16.915  0.00  0.00     0.182 C 
HETATM   14  C   UNK     0      23.637  44.332  15.761  0.00  0.00     0.204 C 
BRANCH  12  15
HETATM   15  O   UNK     0      25.336  47.221  17.462  0.00  0.00    -0.391 OA
HETATM   16  H   UNK     0      25.046  48.150  17.429  0.00  0.00     0.210 HD
ENDBRANCH  12  15
BRANCH  13  17
HETATM   17  O   UNK     0      25.375  44.456  17.437  0.00  0.00    -0.390 OA
HETATM   18  H   UNK     0      25.314  43.528  17.153  0.00  0.00     0.210 HD
ENDBRANCH  13  17
BRANCH  14  19
HETATM   19  O   UNK     0      22.369  44.881  15.409  0.00  0.00    -0.388 OA
HETATM   20  H   UNK     0      22.123  45.540  16.079  0.00  0.00     0.210 HD
ENDBRANCH  14  19
ENDBRANCH   8   9
ENDBRANCH   7   8
ENDBRANCH   2   7
BRANCH   6  21
HETATM   21  O   UNK     0      23.174  38.190  14.544  0.00  0.00    -0.355 OA
BRANCH  21  22
HETATM   22  C   UNK     0      23.549  38.277  13.178  0.00  0.00     0.198 C 
BRANCH  22  23
HETATM   23  C   UNK     0      23.564  36.901  12.595  0.00  0.00     0.000 C 
HETATM   24  C   UNK     0      23.111  35.819  13.248  0.00  0.00     0.009 C 
BRANCH  24  25
HETATM   25  C   UNK     0      23.091  34.448  12.709  0.00  0.00    -0.036 A 
HETATM   26  C   UNK     0      23.294  34.248  11.353  0.00  0.00     0.011 A 
HETATM   27  C   UNK     0      23.276  32.950  10.843  0.00  0.00     0.001 A 
HETATM   28  C   UNK     0      23.056  31.869  11.696  0.00  0.00     0.000 A 
HETATM   29  C   UNK     0      22.853  32.085  13.059  0.00  0.00     0.001 A 
HETATM   30  C   UNK     0      22.872  33.384  13.569  0.00  0.00     0.011 A 
ENDBRANCH  24  25
ENDBRANCH  22  23
ENDBRANCH  21  22
ENDBRANCH   6  21
BRANCH   3  31
HETATM   31  O   UNK     0      26.542  41.904  16.847  0.00  0.00    -0.390 OA
HETATM   32  H   UNK     0      27.354  42.220  16.415  0.00  0.00     0.210 HD
ENDBRANCH   3  31
BRANCH   5  33
HETATM   33  O   UNK     0      24.014  37.845  17.225  0.00  0.00    -0.388 OA
HETATM   34  H   UNK     0      23.517  37.178  16.723  0.00  0.00     0.210 HD
ENDBRANCH   5  33
BRANCH   4  35
HETATM   35  O   UNK     0      26.601  39.156  17.743  0.00  0.00    -0.390 OA
HETATM   36  H   UNK     0      27.193  38.771  17.074  0.00  0.00     0.210 HD
ENDBRANCH   4  35
TORSDOF 13
ENDMDL
