REMARK  26 active torsions:
REMARK  status: ('A' for Active; 'I' for Inactive)
REMARK    1  A    between atoms: C_1  and  C_7 
REMARK    2  A    between atoms: C_4  and  O_9 
REMARK    3  A    between atoms: C_5  and  O_11 
REMARK    4  A    between atoms: C_6  and  O_10 
REMARK    5  A    between atoms: C_12  and  C_18 
REMARK    6  A    between atoms: C_15  and  O_76 
REMARK    7  A    between atoms: C_18  and  O_74 
REMARK    8  A    between atoms: C_21  and  O_25 
REMARK    9  A    between atoms: C_23  and  O_26 
REMARK   10  A    between atoms: C_30  and  O_35 
REMARK   11  A    between atoms: C_32  and  O_36 
REMARK   12  A    between atoms: O_36  and  C_67 
REMARK   13  A    between atoms: C_39  and  O_60 
REMARK   14  A    between atoms: C_41  and  O_58 
REMARK   15  A    between atoms: C_42  and  C_45 
REMARK   16  A    between atoms: C_43  and  O_59 
REMARK   17  A    between atoms: C_45  and  O_53 
REMARK   18  A    between atoms: C_47  and  O_53 
REMARK   19  A    between atoms: C_50  and  O_55 
REMARK   20  A    between atoms: C_51  and  C_54 
REMARK   21  A    between atoms: C_54  and  O_74 
REMARK   22  A    between atoms: C_64  and  O_69 
REMARK   23  A    between atoms: C_65  and  C_72 
REMARK   24  A    between atoms: C_66  and  O_70 
REMARK   25  A    between atoms: C_68  and  O_71 
REMARK   26  A    between atoms: C_72  and  O_73 
ROOT
HETATM    1  C   UNK     0      18.277 -21.432   1.089  0.00  0.00     0.026 A 
HETATM    2  C   UNK     0      18.351 -20.116   0.601  0.00  0.00     0.006 A 
HETATM    3  C   UNK     0      19.288 -22.367   0.974  0.00  0.00     0.111 A 
HETATM    4  C   UNK     0      19.552 -19.840  -0.117  0.00  0.00     0.054 A 
HETATM    5  C   UNK     0      20.451 -22.041   0.327  0.00  0.00     0.100 A 
HETATM    6  C   UNK     0      20.560 -20.788  -0.226  0.00  0.00     0.058 A 
HETATM    7  O   UNK     0      17.143 -21.851   1.702  0.00  0.00     0.000 OA
HETATM    8  C   UNK     0      16.351 -19.945   2.021  0.00  0.00     0.026 A 
HETATM    9  C   UNK     0      17.005 -19.287   0.976  0.00  0.00     0.006 A 
HETATM   10  C   UNK     0      15.110 -19.602   2.488  0.00  0.00     0.111 A 
HETATM   11  C   UNK     0      16.333 -18.109   0.499  0.00  0.00     0.054 A 
HETATM   12  C   UNK     0      14.432 -18.542   1.961  0.00  0.00     0.111 A 
HETATM   13  C   UNK     0      15.058 -17.780   0.988  0.00  0.00     0.058 A 
HETATM   14  C   UNK     0      16.796 -17.118  -0.511  0.00  0.00     0.294 C 
HETATM   15  O   UNK     0      16.953 -20.995   2.629  0.00  0.00     0.000 OA
HETATM   16  O   UNK     0      16.937 -17.464  -1.661  0.00  0.00    -0.259 OA
HETATM   17  C   UNK     0      18.954 -14.161  -0.324  0.00  0.00     0.302 C 
HETATM   18  C   UNK     0      18.384 -15.525  -0.636  0.00  0.00     0.219 C 
HETATM   19  O   UNK     0      20.381 -14.152  -0.716  0.00  0.00    -0.348 OA
HETATM   20  C   UNK     0      19.253 -16.421  -0.023  0.00  0.00     0.184 C 
HETATM   21  C   UNK     0      21.223 -15.365  -0.870  0.00  0.00     0.181 C 
HETATM   22  C   UNK     0      20.331 -16.614  -0.939  0.00  0.00     0.194 C 
HETATM   23  O   UNK     0      20.966 -17.817  -0.580  0.00  0.00    -0.307 OA
HETATM   24  O   UNK     0      17.082 -15.788  -0.152  0.00  0.00    -0.304 OA
HETATM   25  C   UNK     0      19.894 -18.651  -0.855  0.00  0.00     0.294 C 
HETATM   26  O   UNK     0      19.171 -18.338  -1.771  0.00  0.00    -0.259 OA
HETATM   27  H   UNK     0      17.075 -22.800   2.045  0.00  0.00     0.000 HD
HETATM   28  H   UNK     0      16.485 -21.479   3.384  0.00  0.00     0.000 HD
ENDROOT
BRANCH  21  29
HETATM   29  C   UNK     0      22.037 -15.277  -2.185  0.00  0.00     0.213 C 
BRANCH  29  30
HETATM   30  O   UNK     0      23.314 -14.641  -2.124  0.00  0.00    -0.315 OA
BRANCH  30  31
HETATM   31  C   UNK     0      24.402 -15.349  -1.702  0.00  0.00     0.293 C 
HETATM   32  O   UNK     0      24.331 -15.974  -0.669  0.00  0.00    -0.259 OA
BRANCH  31  33
HETATM   33  C   UNK     0      25.662 -15.408  -2.490  0.00  0.00     0.044 A 
HETATM   34  C   UNK     0      26.205 -16.654  -2.759  0.00  0.00     0.055 A 
HETATM   35  C   UNK     0      27.385 -16.766  -3.474  0.00  0.00     0.080 A 
HETATM   36  C   UNK     0      28.027 -15.629  -3.927  0.00  0.00     0.047 A 
HETATM   37  C   UNK     0      27.498 -14.370  -3.669  0.00  0.00     0.091 A 
HETATM   38  O   UNK     0      29.186 -15.749  -4.629  0.00  0.00     0.000 OA
HETATM   39  C   UNK     0      26.311 -14.263  -2.946  0.00  0.00     0.056 A 
HETATM   40  O   UNK     0      28.153 -13.249  -4.122  0.00  0.00    -0.306 OA
HETATM   41  C   UNK     0      29.332 -13.366  -4.811  0.00  0.00     0.121 A 
HETATM   42  O   UNK     0      29.802 -14.466  -4.987  0.00  0.00     0.000 OA
HETATM   43  H   UNK     0      29.663 -14.921  -4.963  0.00  0.00     0.000 HD
BRANCH  35  44
HETATM   44  O   UNK     0      27.917 -17.992  -3.728  0.00  0.00    -0.360 OA
HETATM   45  H   UNK     0      28.782 -18.070  -4.249  0.00  0.00     0.217 HD
ENDBRANCH  35  44
BRANCH  41  46
HETATM   46  C   UNK     0      30.052 -12.200  -5.357  0.00  0.00     0.006 A 
HETATM   47  C   UNK     0      31.420 -12.295  -5.564  0.00  0.00     0.054 A 
HETATM   48  C   UNK     0      32.124 -11.222  -6.088  0.00  0.00     0.102 A 
HETATM   49  C   UNK     0      31.458 -10.050  -6.405  0.00  0.00     0.132 A 
HETATM   50  C   UNK     0      30.090  -9.950  -6.196  0.00  0.00     0.102 A 
HETATM   51  C   UNK     0      29.385 -11.026  -5.674  0.00  0.00     0.054 A 
BRANCH  48  52
HETATM   52  O   UNK     0      33.464 -11.321  -6.292  0.00  0.00    -0.358 OA
HETATM   53  H   UNK     0      33.977 -10.538  -6.676  0.00  0.00     0.217 HD
ENDBRANCH  48  52
BRANCH  49  54
HETATM   54  O   UNK     0      32.148  -8.998  -6.921  0.00  0.00    -0.356 OA
HETATM   55  H   UNK     0      31.664  -8.140  -7.154  0.00  0.00     0.218 HD
ENDBRANCH  49  54
BRANCH  50  56
HETATM   56  O   UNK     0      29.439  -8.796  -6.506  0.00  0.00    -0.358 OA
HETATM   57  H   UNK     0      29.952  -8.012  -6.887  0.00  0.00     0.217 HD
ENDBRANCH  50  56
ENDBRANCH  41  46
ENDBRANCH  31  33
ENDBRANCH  30  31
ENDBRANCH  29  30
ENDBRANCH  21  29
BRANCH  17  58
HETATM   58  O   UNK     0      18.247 -13.165  -1.042  0.00  0.00    -0.283 OA
BRANCH  58  59
HETATM   59  C   UNK     0      18.914 -12.196  -1.722  0.00  0.00     0.295 C 
HETATM   60  O   UNK     0      19.980 -12.438  -2.242  0.00  0.00    -0.259 OA
BRANCH  59  61
HETATM   61  C   UNK     0      18.333 -10.849  -1.816  0.00  0.00     0.045 A 
HETATM   62  C   UNK     0      16.977 -10.668  -1.595  0.00  0.00     0.057 A 
HETATM   63  C   UNK     0      16.423  -9.400  -1.675  0.00  0.00     0.102 A 
HETATM   64  C   UNK     0      17.226  -8.313  -1.981  0.00  0.00     0.132 A 
HETATM   65  C   UNK     0      18.583  -8.494  -2.202  0.00  0.00     0.102 A 
HETATM   66  C   UNK     0      19.138  -9.762  -2.118  0.00  0.00     0.057 A 
BRANCH  63  67
HETATM   67  O   UNK     0      15.093  -9.224  -1.453  0.00  0.00    -0.358 OA
HETATM   68  H   UNK     0      14.689  -8.298  -1.510  0.00  0.00     0.217 HD
ENDBRANCH  63  67
BRANCH  64  69
HETATM   69  O   UNK     0      16.683  -7.068  -2.066  0.00  0.00    -0.356 OA
HETATM   70  H   UNK     0      17.270  -6.274  -2.289  0.00  0.00     0.218 HD
ENDBRANCH  64  69
BRANCH  65  71
HETATM   71  O   UNK     0      19.370  -7.427  -2.500  0.00  0.00    -0.358 OA
HETATM   72  H   UNK     0      20.360  -7.557  -2.660  0.00  0.00     0.217 HD
ENDBRANCH  65  71
ENDBRANCH  59  61
ENDBRANCH  58  59
ENDBRANCH  17  58
BRANCH  20  73
HETATM   73  O   UNK     0      18.597 -17.652   0.240  0.00  0.00    -0.390 OA
HETATM   74  H   UNK     0      18.536 -18.001   1.188  0.00  0.00     0.210 HD
ENDBRANCH  20  73
BRANCH   5  75
HETATM   75  O   UNK     0      21.462 -22.944   0.217  0.00  0.00    -0.358 OA
HETATM   76  H   UNK     0      22.309 -22.696  -0.277  0.00  0.00     0.217 HD
ENDBRANCH   5  75
BRANCH   3  77
HETATM   77  O   UNK     0      19.129 -23.610   1.500  0.00  0.00    -0.357 OA
HETATM   78  H   UNK     0      19.869 -24.294   1.414  0.00  0.00     0.217 HD
ENDBRANCH   3  77
BRANCH  12  79
HETATM   79  O   UNK     0      13.177 -18.390   2.487  0.00  0.00    -0.304 OA
BRANCH  79  80
HETATM   80  C   UNK     0      12.082 -17.582   2.612  0.00  0.00     0.129 A 
HETATM   81  C   UNK     0      12.007 -16.249   2.230  0.00  0.00     0.077 A 
HETATM   82  C   UNK     0      10.834 -15.538   2.451  0.00  0.00     0.060 A 
HETATM   83  C   UNK     0       9.738 -16.147   3.044  0.00  0.00     0.102 A 
HETATM   84  C   UNK     0       9.810 -17.478   3.414  0.00  0.00     0.135 A 
HETATM   85  C   UNK     0      10.976 -18.186   3.195  0.00  0.00     0.137 A 
BRANCH  81  86
HETATM   86  C   UNK     0      13.140 -15.571   1.596  0.00  0.00     0.179 C 
HETATM   87  O   UNK     0      14.237 -15.613   2.103  0.00  0.00    -0.646 OA
BRANCH  86  88
HETATM   88  O   UNK     0      12.948 -14.891   0.433  0.00  0.00    -0.773 OA
HETATM   89  H   UNK     0      13.725 -14.418  -0.010  0.00  0.00     0.167 HD
ENDBRANCH  86  88
ENDBRANCH  81  86
BRANCH  83  90
HETATM   90  O   UNK     0       8.594 -15.444   3.263  0.00  0.00    -0.358 OA
HETATM   91  H   UNK     0       7.799 -15.896   3.695  0.00  0.00     0.217 HD
ENDBRANCH  83  90
BRANCH  84  92
HETATM   92  O   UNK     0       8.741 -18.090   3.993  0.00  0.00    -0.356 OA
HETATM   93  H   UNK     0       8.802 -19.063   4.264  0.00  0.00     0.218 HD
ENDBRANCH  84  92
BRANCH  85  94
HETATM   94  O   UNK     0      11.043 -19.495   3.559  0.00  0.00    -0.356 OA
HETATM   95  H   UNK     0      11.895 -20.020   3.406  0.00  0.00     0.218 HD
ENDBRANCH  85  94
ENDBRANCH  79  80
ENDBRANCH  12  79
BRANCH  10  96
HETATM   96  O   UNK     0      14.534 -20.336   3.477  0.00  0.00    -0.357 OA
HETATM   97  H   UNK     0      13.611 -20.095   3.815  0.00  0.00     0.217 HD
ENDBRANCH  10  96
TORSDOF 26
