REMARK  Name = PEG
REMARK                            x       y       z     vdW  Elec       q    Type
REMARK                         _______ _______ _______ _____ _____    ______ ____
ROOT
ATOM      3  O   LIG    1        0.000   0.112   0.000  0.00  0.00    -0.375 OA
ENDROOT
BRANCH   3   2
ATOM      2  C   LIG    1       -1.162   0.890  -0.292  0.00  0.00    +0.187 C 
BRANCH   2   1
ATOM      1  C   LIG    1       -2.339  -0.042  -0.588  0.00  0.00    +0.184 C 
BRANCH   1   8
ATOM      8  O   LIG    1       -2.667  -0.784   0.588  0.00  0.00    -0.393 OA
ATOM      9  H   LIG    1       -3.406  -1.397   0.473  0.00  0.00    +0.209 HD
ENDBRANCH   1   8
ENDBRANCH   2   1
ENDBRANCH   3   2
BRANCH   3   4
ATOM      4  C   LIG    1        1.162   0.890   0.292  0.00  0.00    +0.187 C 
BRANCH   4   5
ATOM      5  C   LIG    1        2.339  -0.042   0.588  0.00  0.00    +0.184 C 
BRANCH   5   6
ATOM      6  O   LIG    1        2.667  -0.784  -0.589  0.00  0.00    -0.393 OA
ATOM      7  H   LIG    1        3.406  -1.397  -0.474  0.00  0.00    +0.209 HD
ENDBRANCH   5   6
ENDBRANCH   4   5
ENDBRANCH   3   4
TORSDOF 6
