REMARK  Name = 15P
REMARK                            x       y       z     vdW  Elec       q    Type
REMARK                         _______ _______ _______ _____ _____    ______ ____
ROOT
ATOM     53  O   LIG    1      -25.213  -2.182  -0.813  0.00  0.00    -0.375 OA
ENDROOT
BRANCH  53  52
ATOM     52  C   LIG    1      -24.642  -3.485  -0.801  0.00  0.00    +0.188 C 
BRANCH  52  51
ATOM     51  C   LIG    1      -24.519  -3.984  -2.227  0.00  0.00    +0.188 C 
BRANCH  51  50
ATOM     50  O   LIG    1      -25.813  -4.047  -2.810  0.00  0.00    -0.375 OA
BRANCH  50  49
ATOM     49  C   LIG    1      -25.755  -4.491  -4.160  0.00  0.00    +0.188 C 
BRANCH  49  48
ATOM     48  C   LIG    1      -27.162  -4.537  -4.726  0.00  0.00    +0.188 C 
BRANCH  48  47
ATOM     47  O   LIG    1      -27.937  -5.454  -3.967  0.00  0.00    -0.375 OA
BRANCH  47  46
ATOM     46  C   LIG    1      -29.276  -5.522  -4.441  0.00  0.00    +0.188 C 
BRANCH  46  45
ATOM     45  C   LIG    1      -30.051  -6.513  -3.594  0.00  0.00    +0.188 C 
BRANCH  45  44
ATOM     44  O   LIG    1      -29.449  -7.794  -3.712  0.00  0.00    -0.375 OA
BRANCH  44  43
ATOM     43  C   LIG    1      -30.124  -8.763  -2.918  0.00  0.00    +0.188 C 
BRANCH  43  42
ATOM     42  C   LIG    1      -29.438 -10.105  -3.085  0.00  0.00    +0.188 C 
BRANCH  42  41
ATOM     41  O   LIG    1      -29.503 -10.493  -4.450  0.00  0.00    -0.375 OA
BRANCH  41  40
ATOM     40  C   LIG    1      -28.853 -11.739  -4.670  0.00  0.00    +0.188 C 
BRANCH  40  39
ATOM     39  C   LIG    1      -28.957 -12.098  -6.139  0.00  0.00    +0.188 C 
BRANCH  39  38
ATOM     38  O   LIG    1      -30.328 -12.219  -6.492  0.00  0.00    -0.375 OA
BRANCH  38  37
ATOM     37  C   LIG    1      -30.485 -12.534  -7.870  0.00  0.00    +0.188 C 
BRANCH  37  36
ATOM     36  C   LIG    1      -31.964 -12.649  -8.185  0.00  0.00    +0.188 C 
BRANCH  36  35
ATOM     35  O   LIG    1      -32.526 -13.692  -7.400  0.00  0.00    -0.375 OA
BRANCH  35  34
ATOM     34  C   LIG    1      -33.921 -13.831  -7.639  0.00  0.00    +0.188 C 
BRANCH  34  33
ATOM     33  C   LIG    1      -34.462 -14.954  -6.777  0.00  0.00    +0.188 C 
BRANCH  33  32
ATOM     32  O   LIG    1      -33.806 -16.165  -7.127  0.00  0.00    -0.375 OA
BRANCH  32  31
ATOM     31  C   LIG    1      -34.260 -17.253  -6.331  0.00  0.00    +0.188 C 
BRANCH  31  30
ATOM     30  C   LIG    1      -33.526 -18.512  -6.751  0.00  0.00    +0.188 C 
BRANCH  30  29
ATOM     29  O   LIG    1      -33.811 -18.782  -8.116  0.00  0.00    -0.375 OA
BRANCH  29  28
ATOM     28  C   LIG    1      -33.129 -19.945  -8.571  0.00  0.00    +0.188 C 
BRANCH  28  27
ATOM     27  C   LIG    1      -33.472 -20.180 -10.029  0.00  0.00    +0.188 C 
BRANCH  27  26
ATOM     26  O   LIG    1      -34.873 -20.384 -10.149  0.00  0.00    -0.375 OA
BRANCH  26  25
ATOM     25  C   LIG    1      -35.255 -20.589 -11.504  0.00  0.00    +0.188 C 
BRANCH  25  24
ATOM     24  C   LIG    1      -36.756 -20.800 -11.568  0.00  0.00    +0.188 C 
BRANCH  24  23
ATOM     23  O   LIG    1      -37.095 -21.952 -10.808  0.00  0.00    -0.375 OA
BRANCH  23  22
ATOM     22  C   LIG    1      -38.498 -22.186 -10.814  0.00  0.00    +0.188 C 
BRANCH  22  21
ATOM     21  C   LIG    1      -38.797 -23.423  -9.990  0.00  0.00    +0.188 C 
BRANCH  21  20
ATOM     20  O   LIG    1      -38.135 -24.538 -10.571  0.00  0.00    -0.375 OA
BRANCH  20  19
ATOM     19  C   LIG    1      -38.363 -25.727  -9.823  0.00  0.00    +0.188 C 
BRANCH  19  18
ATOM     18  C   LIG    1      -37.634 -26.878 -10.490  0.00  0.00    +0.188 C 
BRANCH  18  17
ATOM     17  O   LIG    1      -38.142 -27.049 -11.805  0.00  0.00    -0.375 OA
BRANCH  17  16
ATOM     16  C   LIG    1      -37.477 -28.105 -12.488  0.00  0.00    +0.188 C 
BRANCH  16  15
ATOM     15  C   LIG    1      -38.061 -28.239 -13.881  0.00  0.00    +0.188 C 
BRANCH  15  14
ATOM     14  O   LIG    1      -39.444 -28.549 -13.776  0.00  0.00    -0.375 OA
BRANCH  14  13
ATOM     13  C   LIG    1      -40.050 -28.665 -15.058  0.00  0.00    +0.188 C 
BRANCH  13  12
ATOM     12  C   LIG    1      -41.520 -28.996 -14.881  0.00  0.00    +0.188 C 
BRANCH  12  11
ATOM     11  O   LIG    1      -41.637 -30.234 -14.196  0.00  0.00    -0.375 OA
BRANCH  11  10
ATOM     10  C   LIG    1      -42.999 -30.585 -13.983  0.00  0.00    +0.188 C 
BRANCH  10   9
ATOM      9  C   LIG    1      -43.060 -31.911 -13.249  0.00  0.00    +0.188 C 
BRANCH   9   8
ATOM      8  O   LIG    1      -42.441 -32.910 -14.047  0.00  0.00    -0.375 OA
BRANCH   8   7
ATOM      7  C   LIG    1      -42.450 -34.175 -13.396  0.00  0.00    +0.188 C 
BRANCH   7   6
ATOM      6  C   LIG    1      -41.777 -35.197 -14.293  0.00  0.00    +0.188 C 
BRANCH   6   5
ATOM      5  O   LIG    1      -42.502 -35.294 -15.511  0.00  0.00    -0.375 OA
BRANCH   5   4
ATOM      4  C   LIG    1      -41.902 -36.226 -16.402  0.00  0.00    +0.187 C 
BRANCH   4   3
ATOM      3  C   LIG    1      -42.717 -36.285 -17.679  0.00  0.00    +0.184 C 
BRANCH   3   1
ATOM      1  O   LIG    1      -44.036 -36.719 -17.368  0.00  0.00    -0.393 OA
ATOM      2  H   LIG    1      -44.166 -37.565 -17.824  0.00  0.00    +0.209 HD
ENDBRANCH   3   1
ENDBRANCH   4   3
ENDBRANCH   5   4
ENDBRANCH   6   5
ENDBRANCH   7   6
ENDBRANCH   8   7
ENDBRANCH   9   8
ENDBRANCH  10   9
ENDBRANCH  11  10
ENDBRANCH  12  11
ENDBRANCH  13  12
ENDBRANCH  14  13
ENDBRANCH  15  14
ENDBRANCH  16  15
ENDBRANCH  17  16
ENDBRANCH  18  17
ENDBRANCH  19  18
ENDBRANCH  20  19
ENDBRANCH  21  20
ENDBRANCH  22  21
ENDBRANCH  23  22
ENDBRANCH  24  23
ENDBRANCH  25  24
ENDBRANCH  26  25
ENDBRANCH  27  26
ENDBRANCH  28  27
ENDBRANCH  29  28
ENDBRANCH  30  29
ENDBRANCH  31  30
ENDBRANCH  32  31
ENDBRANCH  33  32
ENDBRANCH  34  33
ENDBRANCH  35  34
ENDBRANCH  36  35
ENDBRANCH  37  36
ENDBRANCH  38  37
ENDBRANCH  39  38
ENDBRANCH  40  39
ENDBRANCH  41  40
ENDBRANCH  42  41
ENDBRANCH  43  42
ENDBRANCH  44  43
ENDBRANCH  45  44
ENDBRANCH  46  45
ENDBRANCH  47  46
ENDBRANCH  48  47
ENDBRANCH  49  48
ENDBRANCH  50  49
ENDBRANCH  51  50
ENDBRANCH  52  51
ENDBRANCH  53  52
BRANCH  53  54
ATOM     54  C   LIG    1      -25.352  -1.662   0.502  0.00  0.00    +0.188 C 
BRANCH  54  55
ATOM     55  C   LIG    1      -25.963  -0.276   0.424  0.00  0.00    +0.188 C 
BRANCH  55  56
ATOM     56  O   LIG    1      -25.099   0.571  -0.324  0.00  0.00    -0.375 OA
BRANCH  56  57
ATOM     57  C   LIG    1      -25.634   1.881  -0.448  0.00  0.00    +0.188 C 
BRANCH  57  58
ATOM     58  C   LIG    1      -24.672   2.734  -1.252  0.00  0.00    +0.188 C 
BRANCH  58  59
ATOM     59  O   LIG    1      -23.427   2.801  -0.567  0.00  0.00    -0.375 OA
BRANCH  59  60
ATOM     60  C   LIG    1      -22.477   3.573  -1.288  0.00  0.00    +0.188 C 
BRANCH  60  61
ATOM     61  C   LIG    1      -21.175   3.607  -0.510  0.00  0.00    +0.188 C 
BRANCH  61  62
ATOM     62  O   LIG    1      -21.406   4.214   0.755  0.00  0.00    -0.375 OA
BRANCH  62  63
ATOM     63  C   LIG    1      -20.221   4.253   1.538  0.00  0.00    +0.188 C 
BRANCH  63  64
ATOM     64  C   LIG    1      -20.529   4.909   2.870  0.00  0.00    +0.188 C 
BRANCH  64  65
ATOM     65  O   LIG    1      -20.981   6.238   2.640  0.00  0.00    -0.375 OA
BRANCH  65  66
ATOM     66  C   LIG    1      -21.307   6.895   3.857  0.00  0.00    +0.188 C 
BRANCH  66  67
ATOM     67  C   LIG    1      -21.781   8.302   3.547  0.00  0.00    +0.188 C 
BRANCH  67  68
ATOM     68  O   LIG    1      -20.733   9.013   2.899  0.00  0.00    -0.375 OA
BRANCH  68  69
ATOM     69  C   LIG    1      -21.130  10.335   2.565  0.00  0.00    +0.188 C 
BRANCH  69  70
ATOM     70  C   LIG    1      -19.975  11.040   1.878  0.00  0.00    +0.188 C 
BRANCH  70  71
ATOM     71  O   LIG    1      -18.869  11.095   2.771  0.00  0.00    -0.375 OA
BRANCH  71  72
ATOM     72  C   LIG    1      -17.747  11.728   2.171  0.00  0.00    +0.188 C 
BRANCH  72  73
ATOM     73  C   LIG    1      -16.604  11.757   3.167  0.00  0.00    +0.188 C 
BRANCH  73  74
ATOM     74  O   LIG    1      -17.004  12.502   4.311  0.00  0.00    -0.375 OA
BRANCH  74  75
ATOM     75  C   LIG    1      -15.976  12.544   5.290  0.00  0.00    +0.188 C 
BRANCH  75  76
ATOM     76  C   LIG    1      -16.459  13.349   6.481  0.00  0.00    +0.188 C 
BRANCH  76  77
ATOM     77  O   LIG    1      -16.754  14.674   6.057  0.00  0.00    -0.375 OA
BRANCH  77  78
ATOM     78  C   LIG    1      -17.234  15.470   7.131  0.00  0.00    +0.188 C 
BRANCH  78  79
ATOM     79  C   LIG    1      -17.530  16.866   6.619  0.00  0.00    +0.188 C 
BRANCH  79  80
ATOM     80  O   LIG    1      -18.502  16.784   5.583  0.00  0.00    -0.375 OA
BRANCH  80  81
ATOM     81  C   LIG    1      -18.835  18.070   5.079  0.00  0.00    +0.188 C 
BRANCH  81  82
ATOM     82  C   LIG    1      -19.872  17.918   3.982  0.00  0.00    +0.188 C 
BRANCH  82  83
ATOM     83  O   LIG    1      -19.323  17.132   2.931  0.00  0.00    -0.375 OA
BRANCH  83  84
ATOM     84  C   LIG    1      -20.261  16.938   1.882  0.00  0.00    +0.188 C 
BRANCH  84  85
ATOM     85  C   LIG    1      -19.621  16.096   0.795  0.00  0.00    +0.188 C 
BRANCH  85  86
ATOM     86  O   LIG    1      -18.485  16.783   0.285  0.00  0.00    -0.375 OA
BRANCH  86  87
ATOM     87  C   LIG    1      -17.831  16.028  -0.725  0.00  0.00    +0.188 C 
BRANCH  87  88
ATOM     88  C   LIG    1      -16.632  16.809  -1.229  0.00  0.00    +0.188 C 
BRANCH  88  89
ATOM     89  O   LIG    1      -15.751  17.059  -0.141  0.00  0.00    -0.375 OA
BRANCH  89  90
ATOM     90  C   LIG    1      -14.596  17.772  -0.560  0.00  0.00    +0.188 C 
BRANCH  90  91
ATOM     91  C   LIG    1      -13.698  18.008   0.640  0.00  0.00    +0.188 C 
BRANCH  91  92
ATOM     92  O   LIG    1      -14.402  18.784   1.601  0.00  0.00    -0.375 OA
BRANCH  92  93
ATOM     93  C   LIG    1      -13.614  19.019   2.759  0.00  0.00    +0.188 C 
BRANCH  93  94
ATOM     94  C   LIG    1      -14.415  19.848   3.744  0.00  0.00    +0.188 C 
BRANCH  94  95
ATOM     95  O   LIG    1      -14.743  21.095   3.142  0.00  0.00    -0.375 OA
BRANCH  95  96
ATOM     96  C   LIG    1      -15.516  21.907   4.014  0.00  0.00    +0.188 C 
BRANCH  96  97
ATOM     97  C   LIG    1      -15.833  23.218   3.319  0.00  0.00    +0.188 C 
BRANCH  97  98
ATOM     98  O   LIG    1      -16.550  22.946   2.121  0.00  0.00    -0.375 OA
BRANCH  98  99
ATOM     99  C   LIG    1      -16.894  24.143   1.438  0.00  0.00    +0.188 C 
BRANCH  99 100
ATOM    100  C   LIG    1      -17.654  23.790   0.174  0.00  0.00    +0.188 C 
BRANCH 100 101
ATOM    101  O   LIG    1      -16.821  22.997  -0.663  0.00  0.00    -0.375 OA
BRANCH 101 102
ATOM    102  C   LIG    1      -17.491  22.617  -1.856  0.00  0.00    +0.188 C 
BRANCH 102 103
ATOM    103  C   LIG    1      -16.556  21.777  -2.704  0.00  0.00    +0.187 C 
BRANCH 103 104
ATOM    104  O   LIG    1      -15.411  22.551  -3.038  0.00  0.00    -0.381 OA
ATOM    105  C   LIG    1      -14.486  21.804  -3.817  0.00  0.00    +0.194 C 
ENDBRANCH 103 104
ENDBRANCH 102 103
ENDBRANCH 101 102
ENDBRANCH 100 101
ENDBRANCH  99 100
ENDBRANCH  98  99
ENDBRANCH  97  98
ENDBRANCH  96  97
ENDBRANCH  95  96
ENDBRANCH  94  95
ENDBRANCH  93  94
ENDBRANCH  92  93
ENDBRANCH  91  92
ENDBRANCH  90  91
ENDBRANCH  89  90
ENDBRANCH  88  89
ENDBRANCH  87  88
ENDBRANCH  86  87
ENDBRANCH  85  86
ENDBRANCH  84  85
ENDBRANCH  83  84
ENDBRANCH  82  83
ENDBRANCH  81  82
ENDBRANCH  80  81
ENDBRANCH  79  80
ENDBRANCH  78  79
ENDBRANCH  77  78
ENDBRANCH  76  77
ENDBRANCH  75  76
ENDBRANCH  74  75
ENDBRANCH  73  74
ENDBRANCH  72  73
ENDBRANCH  71  72
ENDBRANCH  70  71
ENDBRANCH  69  70
ENDBRANCH  68  69
ENDBRANCH  67  68
ENDBRANCH  66  67
ENDBRANCH  65  66
ENDBRANCH  64  65
ENDBRANCH  63  64
ENDBRANCH  62  63
ENDBRANCH  61  62
ENDBRANCH  60  61
ENDBRANCH  59  60
ENDBRANCH  58  59
ENDBRANCH  57  58
ENDBRANCH  56  57
ENDBRANCH  55  56
ENDBRANCH  54  55
ENDBRANCH  53  54
TORSDOF 102
