REMARK  Name = 5775
REMARK                            x       y       z     vdW  Elec       q    Type
REMARK                         _______ _______ _______ _____ _____    ______ ____
ROOT
ATOM      8  N   LIG    1       -0.232   0.273  -0.507  0.00  0.00    -0.288 N 
ENDROOT
BRANCH   8   9
ATOM      9  C   LIG    1        0.708  -0.776  -0.244  0.00  0.00    +0.035 A 
ATOM     10  C   LIG    1        1.381  -0.792   0.965  0.00  0.00    +0.024 A 
ATOM     11  C   LIG    1        2.296  -1.813   1.222  0.00  0.00    +0.005 A 
ATOM     12  C   LIG    1        2.523  -2.803   0.265  0.00  0.00    -0.050 A 
ATOM     13  C   LIG    1        3.501  -3.895   0.539  0.00  0.00    +0.044 C 
ATOM     14  C   LIG    1        1.835  -2.771  -0.948  0.00  0.00    +0.005 A 
ATOM     15  C   LIG    1        0.920  -1.750  -1.204  0.00  0.00    +0.024 A 
ENDBRANCH   8   9
BRANCH   8   7
ATOM      3  C   LIG    1       -3.610  -1.101   0.147  0.00  0.00    +0.119 A 
ATOM      4  C   LIG    1       -4.314   0.063   0.456  0.00  0.00    +0.045 A 
ATOM      5  C   LIG    1       -3.663   1.296   0.445  0.00  0.00    +0.005 A 
ATOM      6  C   LIG    1       -2.307   1.366   0.125  0.00  0.00    +0.024 A 
ATOM      7  C   LIG    1       -1.626   0.202  -0.179  0.00  0.00    +0.038 A 
ATOM     23  C   LIG    1       -2.254  -1.031  -0.173  0.00  0.00    +0.068 A 
BRANCH   3   1
ATOM      1  O   LIG    1       -4.245  -2.304   0.158  0.00  0.00    -0.507 OA
ATOM      2  H   LIG    1       -5.177  -2.166   0.400  0.00  0.00    +0.292 HD
ENDBRANCH   3   1
ENDBRANCH   8   7
BRANCH   8  16
ATOM     16  C   LIG    1        0.226   1.334  -1.359  0.00  0.00    +0.238 C 
BRANCH  16  17
ATOM     17  C   LIG    1        1.079   2.240  -0.534  0.00  0.00    +0.299 C 
ATOM     18  N   LIG    1        0.580   3.261   0.116  0.00  0.00    -0.082 NA
ATOM     19  C   LIG    1        1.768   3.873   0.787  0.00  0.00    +0.333 C 
ATOM     20  C   LIG    1        3.011   3.074   0.370  0.00  0.00    +0.273 C 
ATOM     21  N   LIG    1        2.425   2.052  -0.444  0.00  0.00    -0.232 N 
ATOM     22  H   LIG    1        2.959   1.323  -0.901  0.00  0.00    +0.291 HD
ENDBRANCH  16  17
ENDBRANCH   8  16
TORSDOF 5
