MODEL 1
REMARK VINA RESULT:      -6.1      0.000      0.000
REMARK  5 active torsions:
REMARK  status: ('A' for Active; 'I' for Inactive)
REMARK    1  A    between atoms: C_3  and  O_1 
REMARK    2  A    between atoms: C_4  and  O_14 
REMARK    3  A    between atoms: C_7  and  C_8 
REMARK    4  A    between atoms: C_9  and  C_10 
REMARK    5  A    between atoms: C_10  and  O_12 
ROOT
ATOM      1  C   LIG     1       6.423  45.590  19.084  0.00  0.00     0.162 A 
ATOM      2  C   LIG     1       6.387  46.910  19.535  0.00  0.00     0.158 A 
ATOM      3  C   LIG     1       5.485  47.281  20.532  0.00  0.00     0.050 A 
ATOM      4  C   LIG     1       4.620  46.333  21.079  0.00  0.00     0.012 A 
ATOM      5  C   LIG     1       4.656  45.015  20.628  0.00  0.00    -0.021 A 
ATOM      6  C   LIG     1       5.558  44.642  19.631  0.00  0.00     0.057 A 
ENDROOT
BRANCH   5   7
ATOM      7  C   LIG     1       3.755  44.027  21.199  0.00  0.00     0.015 C 
ATOM      8  C   LIG     1       3.307  42.919  20.566  0.00  0.00     0.092 C 
BRANCH   8   9
ATOM      9  C   LIG     1       2.399  41.985  21.261  0.00  0.00     0.330 C 
ATOM     10  O   LIG     1       2.635  40.823  21.547  0.00  0.00    -0.246 OA
BRANCH   9  11
ATOM     11  O   LIG     1       1.242  42.630  21.540  0.00  0.00    -0.478 OA
ATOM     12  H   LIG     1       1.109  42.747  22.504  0.00  0.00     0.295 HD
ENDBRANCH   9  11
ENDBRANCH   8   9
ENDBRANCH   5   7
BRANCH   1  13
ATOM     13  O   LIG     1       7.299  45.216  18.110  0.00  0.00    -0.491 OA
ATOM     14  C   LIG     1       8.558  44.699  18.535  0.00  0.00     0.277 C 
ENDBRANCH   1  13
BRANCH   2  15
ATOM     15  O   LIG     1       7.226  47.845  19.008  0.00  0.00    -0.503 OA
ATOM     16  H   LIG     1       8.099  47.759  19.428  0.00  0.00     0.292 HD
ENDBRANCH   2  15
TORSDOF 5
ENDMDL
MODEL 2
REMARK VINA RESULT:      -6.1      2.156      6.237
REMARK  5 active torsions:
REMARK  status: ('A' for Active; 'I' for Inactive)
REMARK    1  A    between atoms: C_3  and  O_1 
REMARK    2  A    between atoms: C_4  and  O_14 
REMARK    3  A    between atoms: C_7  and  C_8 
REMARK    4  A    between atoms: C_9  and  C_10 
REMARK    5  A    between atoms: C_10  and  O_12 
ROOT
ATOM      1  C   LIG     1       2.617  42.163  22.982  0.00  0.00     0.162 A 
ATOM      2  C   LIG     1       3.166  42.351  24.251  0.00  0.00     0.158 A 
ATOM      3  C   LIG     1       4.023  43.425  24.488  0.00  0.00     0.050 A 
ATOM      4  C   LIG     1       4.332  44.312  23.456  0.00  0.00     0.012 A 
ATOM      5  C   LIG     1       3.784  44.124  22.188  0.00  0.00    -0.021 A 
ATOM      6  C   LIG     1       2.926  43.050  21.950  0.00  0.00     0.057 A 
ENDROOT
BRANCH   5   7
ATOM      7  C   LIG     1       4.105  45.048  21.112  0.00  0.00     0.015 C 
ATOM      8  C   LIG     1       4.992  46.066  21.194  0.00  0.00     0.092 C 
BRANCH   8   9
ATOM      9  C   LIG     1       5.237  46.931  20.023  0.00  0.00     0.330 C 
ATOM     10  O   LIG     1       5.361  48.145  20.032  0.00  0.00    -0.246 OA
BRANCH   9  11
ATOM     11  O   LIG     1       5.305  46.154  18.917  0.00  0.00    -0.478 OA
ATOM     12  H   LIG     1       4.977  45.245  19.086  0.00  0.00     0.295 HD
ENDBRANCH   9  11
ENDBRANCH   8   9
ENDBRANCH   5   7
BRANCH   1  13
ATOM     13  O   LIG     1       1.779  41.117  22.739  0.00  0.00    -0.491 OA
ATOM     14  C   LIG     1       2.345  39.965  22.117  0.00  0.00     0.277 C 
ENDBRANCH   1  13
BRANCH   2  15
ATOM     15  O   LIG     1       2.872  41.492  25.267  0.00  0.00    -0.503 OA
ATOM     16  H   LIG     1       2.871  41.983  26.107  0.00  0.00     0.292 HD
ENDBRANCH   2  15
TORSDOF 5
ENDMDL
MODEL 3
REMARK VINA RESULT:      -6.0      2.216      6.431
REMARK  5 active torsions:
REMARK  status: ('A' for Active; 'I' for Inactive)
REMARK    1  A    between atoms: C_3  and  O_1 
REMARK    2  A    between atoms: C_4  and  O_14 
REMARK    3  A    between atoms: C_7  and  C_8 
REMARK    4  A    between atoms: C_9  and  C_10 
REMARK    5  A    between atoms: C_10  and  O_12 
ROOT
ATOM      1  C   LIG     1       3.026  42.453  23.724  0.00  0.00     0.162 A 
ATOM      2  C   LIG     1       2.197  41.857  22.772  0.00  0.00     0.158 A 
ATOM      3  C   LIG     1       2.093  42.408  21.496  0.00  0.00     0.050 A 
ATOM      4  C   LIG     1       2.816  43.556  21.170  0.00  0.00     0.012 A 
ATOM      5  C   LIG     1       3.644  44.151  22.120  0.00  0.00    -0.021 A 
ATOM      6  C   LIG     1       3.750  43.600  23.397  0.00  0.00     0.057 A 
ENDROOT
BRANCH   5   7
ATOM      7  C   LIG     1       4.399  45.346  21.780  0.00  0.00     0.015 C 
ATOM      8  C   LIG     1       4.828  45.675  20.541  0.00  0.00     0.092 C 
BRANCH   8   9
ATOM      9  C   LIG     1       5.579  46.927  20.324  0.00  0.00     0.330 C 
ATOM     10  O   LIG     1       5.113  48.004  19.991  0.00  0.00    -0.246 OA
BRANCH   9  11
ATOM     11  O   LIG     1       6.892  46.691  20.559  0.00  0.00    -0.478 OA
ATOM     12  H   LIG     1       7.263  46.032  19.935  0.00  0.00     0.295 HD
ENDBRANCH   9  11
ENDBRANCH   8   9
ENDBRANCH   5   7
BRANCH   1  13
ATOM     13  O   LIG     1       3.136  41.924  24.975  0.00  0.00    -0.491 OA
ATOM     14  C   LIG     1       3.925  42.648  25.917  0.00  0.00     0.277 C 
ENDBRANCH   1  13
BRANCH   2  15
ATOM     15  O   LIG     1       1.485  40.737  23.079  0.00  0.00    -0.503 OA
ATOM     16  H   LIG     1       2.103  40.001  23.234  0.00  0.00     0.292 HD
ENDBRANCH   2  15
TORSDOF 5
ENDMDL
MODEL 4
REMARK VINA RESULT:      -5.7      1.531      2.262
REMARK  5 active torsions:
REMARK  status: ('A' for Active; 'I' for Inactive)
REMARK    1  A    between atoms: C_3  and  O_1 
REMARK    2  A    between atoms: C_4  and  O_14 
REMARK    3  A    between atoms: C_7  and  C_8 
REMARK    4  A    between atoms: C_9  and  C_10 
REMARK    5  A    between atoms: C_10  and  O_12 
ROOT
ATOM      1  C   LIG     1       6.405  45.354  19.950  0.00  0.00     0.162 A 
ATOM      2  C   LIG     1       6.616  45.112  18.592  0.00  0.00     0.158 A 
ATOM      3  C   LIG     1       5.822  44.185  17.918  0.00  0.00     0.050 A 
ATOM      4  C   LIG     1       4.817  43.499  18.601  0.00  0.00     0.012 A 
ATOM      5  C   LIG     1       4.607  43.740  19.957  0.00  0.00    -0.021 A 
ATOM      6  C   LIG     1       5.400  44.668  20.633  0.00  0.00     0.057 A 
ENDROOT
BRANCH   5   7
ATOM      7  C   LIG     1       3.559  43.026  20.669  0.00  0.00     0.015 C 
ATOM      8  C   LIG     1       3.316  43.113  21.996  0.00  0.00     0.092 C 
BRANCH   8   9
ATOM      9  C   LIG     1       2.211  42.341  22.598  0.00  0.00     0.330 C 
ATOM     10  O   LIG     1       2.261  41.683  23.625  0.00  0.00    -0.246 OA
BRANCH   9  11
ATOM     11  O   LIG     1       1.111  42.479  21.822  0.00  0.00    -0.478 OA
ATOM     12  H   LIG     1       0.336  42.009  22.196  0.00  0.00     0.295 HD
ENDBRANCH   9  11
ENDBRANCH   8   9
ENDBRANCH   5   7
BRANCH   1  13
ATOM     13  O   LIG     1       7.175  46.257  20.619  0.00  0.00    -0.491 OA
ATOM     14  C   LIG     1       8.282  45.742  21.357  0.00  0.00     0.277 C 
ENDBRANCH   1  13
BRANCH   2  15
ATOM     15  O   LIG     1       7.595  45.775  17.914  0.00  0.00    -0.503 OA
ATOM     16  H   LIG     1       8.012  46.419  18.512  0.00  0.00     0.292 HD
ENDBRANCH   2  15
TORSDOF 5
ENDMDL
MODEL 5
REMARK VINA RESULT:      -5.5     27.009     27.894
REMARK  5 active torsions:
REMARK  status: ('A' for Active; 'I' for Inactive)
REMARK    1  A    between atoms: C_3  and  O_1 
REMARK    2  A    between atoms: C_4  and  O_14 
REMARK    3  A    between atoms: C_7  and  C_8 
REMARK    4  A    between atoms: C_9  and  C_10 
REMARK    5  A    between atoms: C_10  and  O_12 
ROOT
ATOM      1  C   LIG     1      14.654  67.460   7.221  0.00  0.00     0.162 A 
ATOM      2  C   LIG     1      13.501  68.100   6.766  0.00  0.00     0.158 A 
ATOM      3  C   LIG     1      12.764  68.906   7.633  0.00  0.00     0.050 A 
ATOM      4  C   LIG     1      13.179  69.073   8.955  0.00  0.00     0.012 A 
ATOM      5  C   LIG     1      14.332  68.433   9.408  0.00  0.00    -0.021 A 
ATOM      6  C   LIG     1      15.070  67.626   8.542  0.00  0.00     0.057 A 
ENDROOT
BRANCH   5   7
ATOM      7  C   LIG     1      14.765  68.607  10.785  0.00  0.00     0.015 C 
ATOM      8  C   LIG     1      15.879  68.066  11.329  0.00  0.00     0.092 C 
BRANCH   8   9
ATOM      9  C   LIG     1      16.215  68.328  12.743  0.00  0.00     0.330 C 
ATOM     10  O   LIG     1      16.974  69.187  13.160  0.00  0.00    -0.246 OA
BRANCH   9  11
ATOM     11  O   LIG     1      15.537  67.452  13.520  0.00  0.00    -0.478 OA
ATOM     12  H   LIG     1      14.724  67.849  13.898  0.00  0.00     0.295 HD
ENDBRANCH   9  11
ENDBRANCH   8   9
ENDBRANCH   5   7
BRANCH   1  13
ATOM     13  O   LIG     1      15.382  66.669   6.383  0.00  0.00    -0.491 OA
ATOM     14  C   LIG     1      16.795  66.650   6.577  0.00  0.00     0.277 C 
ENDBRANCH   1  13
BRANCH   2  15
ATOM     15  O   LIG     1      13.084  67.945   5.479  0.00  0.00    -0.503 OA
ATOM     16  H   LIG     1      12.542  68.712   5.226  0.00  0.00     0.292 HD
ENDBRANCH   2  15
TORSDOF 5
ENDMDL
MODEL 6
REMARK VINA RESULT:      -5.2     22.013     24.908
REMARK  5 active torsions:
REMARK  status: ('A' for Active; 'I' for Inactive)
REMARK    1  A    between atoms: C_3  and  O_1 
REMARK    2  A    between atoms: C_4  and  O_14 
REMARK    3  A    between atoms: C_7  and  C_8 
REMARK    4  A    between atoms: C_9  and  C_10 
REMARK    5  A    between atoms: C_10  and  O_12 
ROOT
ATOM      1  C   LIG     1      25.598  50.827  13.649  0.00  0.00     0.162 A 
ATOM      2  C   LIG     1      24.844  50.621  12.493  0.00  0.00     0.158 A 
ATOM      3  C   LIG     1      25.037  51.439  11.381  0.00  0.00     0.050 A 
ATOM      4  C   LIG     1      25.982  52.464  11.423  0.00  0.00     0.012 A 
ATOM      5  C   LIG     1      26.735  52.670  12.578  0.00  0.00    -0.021 A 
ATOM      6  C   LIG     1      26.543  51.852  13.692  0.00  0.00     0.057 A 
ENDROOT
BRANCH   5   7
ATOM      7  C   LIG     1      27.721  53.738  12.623  0.00  0.00     0.015 C 
ATOM      8  C   LIG     1      28.756  53.812  13.490  0.00  0.00     0.092 C 
BRANCH   8   9
ATOM      9  C   LIG     1      29.697  54.947  13.425  0.00  0.00     0.330 C 
ATOM     10  O   LIG     1      30.776  54.962  12.856  0.00  0.00    -0.246 OA
BRANCH   9  11
ATOM     11  O   LIG     1      29.167  55.990  14.106  0.00  0.00    -0.478 OA
ATOM     12  H   LIG     1      28.563  56.524  13.548  0.00  0.00     0.295 HD
ENDBRANCH   9  11
ENDBRANCH   8   9
ENDBRANCH   5   7
BRANCH   1  13
ATOM     13  O   LIG     1      25.418  50.035  14.743  0.00  0.00    -0.491 OA
ATOM     14  C   LIG     1      26.304  48.927  14.892  0.00  0.00     0.277 C 
ENDBRANCH   1  13
BRANCH   2  15
ATOM     15  O   LIG     1      23.917  49.624  12.440  0.00  0.00    -0.503 OA
ATOM     16  H   LIG     1      24.310  48.850  12.000  0.00  0.00     0.292 HD
ENDBRANCH   2  15
TORSDOF 5
ENDMDL
MODEL 7
REMARK VINA RESULT:      -5.2     17.362     18.573
REMARK  5 active torsions:
REMARK  status: ('A' for Active; 'I' for Inactive)
REMARK    1  A    between atoms: C_3  and  O_1 
REMARK    2  A    between atoms: C_4  and  O_14 
REMARK    3  A    between atoms: C_7  and  C_8 
REMARK    4  A    between atoms: C_9  and  C_10 
REMARK    5  A    between atoms: C_10  and  O_12 
ROOT
ATOM      1  C   LIG     1      12.612  54.297  35.343  0.00  0.00     0.162 A 
ATOM      2  C   LIG     1      11.933  54.762  34.216  0.00  0.00     0.158 A 
ATOM      3  C   LIG     1      11.169  53.882  33.450  0.00  0.00     0.050 A 
ATOM      4  C   LIG     1      11.084  52.537  33.810  0.00  0.00     0.012 A 
ATOM      5  C   LIG     1      11.763  52.073  34.936  0.00  0.00    -0.021 A 
ATOM      6  C   LIG     1      12.527  52.952  35.703  0.00  0.00     0.057 A 
ENDROOT
BRANCH   5   7
ATOM      7  C   LIG     1      11.673  50.671  35.311  0.00  0.00     0.015 C 
ATOM      8  C   LIG     1      12.687  49.778  35.251  0.00  0.00     0.092 C 
BRANCH   8   9
ATOM      9  C   LIG     1      12.470  48.380  35.672  0.00  0.00     0.330 C 
ATOM     10  O   LIG     1      12.029  47.475  34.983  0.00  0.00    -0.246 OA
BRANCH   9  11
ATOM     11  O   LIG     1      12.843  48.254  36.967  0.00  0.00    -0.478 OA
ATOM     12  H   LIG     1      12.128  48.520  37.583  0.00  0.00     0.295 HD
ENDBRANCH   9  11
ENDBRANCH   8   9
ENDBRANCH   5   7
BRANCH   1  13
ATOM     13  O   LIG     1      13.363  55.147  36.099  0.00  0.00    -0.491 OA
ATOM     14  C   LIG     1      13.724  54.704  37.405  0.00  0.00     0.277 C 
ENDBRANCH   1  13
BRANCH   2  15
ATOM     15  O   LIG     1      12.009  56.073  33.854  0.00  0.00    -0.503 OA
ATOM     16  H   LIG     1      11.480  56.604  34.474  0.00  0.00     0.292 HD
ENDBRANCH   2  15
TORSDOF 5
ENDMDL
MODEL 8
REMARK VINA RESULT:      -5.1      3.865      5.810
REMARK  5 active torsions:
REMARK  status: ('A' for Active; 'I' for Inactive)
REMARK    1  A    between atoms: C_3  and  O_1 
REMARK    2  A    between atoms: C_4  and  O_14 
REMARK    3  A    between atoms: C_7  and  C_8 
REMARK    4  A    between atoms: C_9  and  C_10 
REMARK    5  A    between atoms: C_10  and  O_12 
ROOT
ATOM      1  C   LIG     1       3.369  43.303  21.703  0.00  0.00     0.162 A 
ATOM      2  C   LIG     1       2.507  42.351  21.158  0.00  0.00     0.158 A 
ATOM      3  C   LIG     1       1.961  41.358  21.971  0.00  0.00     0.050 A 
ATOM      4  C   LIG     1       2.277  41.317  23.329  0.00  0.00     0.012 A 
ATOM      5  C   LIG     1       3.138  42.268  23.873  0.00  0.00    -0.021 A 
ATOM      6  C   LIG     1       3.685  43.261  23.061  0.00  0.00     0.057 A 
ENDROOT
BRANCH   5   7
ATOM      7  C   LIG     1       3.466  42.226  25.290  0.00  0.00     0.015 C 
ATOM      8  C   LIG     1       2.960  41.348  26.184  0.00  0.00     0.092 C 
BRANCH   8   9
ATOM      9  C   LIG     1       3.382  41.403  27.597  0.00  0.00     0.330 C 
ATOM     10  O   LIG     1       2.959  42.165  28.451  0.00  0.00    -0.246 OA
BRANCH   9  11
ATOM     11  O   LIG     1       4.329  40.459  27.805  0.00  0.00    -0.478 OA
ATOM     12  H   LIG     1       4.983  40.736  28.482  0.00  0.00     0.295 HD
ENDBRANCH   9  11
ENDBRANCH   8   9
ENDBRANCH   5   7
BRANCH   1  13
ATOM     13  O   LIG     1       3.910  44.277  20.918  0.00  0.00    -0.491 OA
ATOM     14  C   LIG     1       5.227  44.048  20.418  0.00  0.00     0.277 C 
ENDBRANCH   1  13
BRANCH   2  15
ATOM     15  O   LIG     1       2.193  42.380  19.832  0.00  0.00    -0.503 OA
ATOM     16  H   LIG     1       2.411  43.258  19.474  0.00  0.00     0.292 HD
ENDBRANCH   2  15
TORSDOF 5
ENDMDL
MODEL 9
REMARK VINA RESULT:      -5.0      1.587      6.013
REMARK  5 active torsions:
REMARK  status: ('A' for Active; 'I' for Inactive)
REMARK    1  A    between atoms: C_3  and  O_1 
REMARK    2  A    between atoms: C_4  and  O_14 
REMARK    3  A    between atoms: C_7  and  C_8 
REMARK    4  A    between atoms: C_9  and  C_10 
REMARK    5  A    between atoms: C_10  and  O_12 
ROOT
ATOM      1  C   LIG     1       3.797  42.445  22.247  0.00  0.00     0.162 A 
ATOM      2  C   LIG     1       2.599  42.177  21.585  0.00  0.00     0.158 A 
ATOM      3  C   LIG     1       2.482  42.442  20.220  0.00  0.00     0.050 A 
ATOM      4  C   LIG     1       3.563  42.975  19.518  0.00  0.00     0.012 A 
ATOM      5  C   LIG     1       4.760  43.243  20.180  0.00  0.00    -0.021 A 
ATOM      6  C   LIG     1       4.878  42.978  21.545  0.00  0.00     0.057 A 
ENDROOT
BRANCH   5   7
ATOM      7  C   LIG     1       5.888  43.798  19.448  0.00  0.00     0.015 C 
ATOM      8  C   LIG     1       6.262  45.097  19.455  0.00  0.00     0.092 C 
BRANCH   8   9
ATOM      9  C   LIG     1       7.436  45.534  18.673  0.00  0.00     0.330 C 
ATOM     10  O   LIG     1       8.223  44.812  18.083  0.00  0.00    -0.246 OA
BRANCH   9  11
ATOM     11  O   LIG     1       7.505  46.885  18.713  0.00  0.00    -0.478 OA
ATOM     12  H   LIG     1       8.417  47.210  18.551  0.00  0.00     0.295 HD
ENDBRANCH   9  11
ENDBRANCH   8   9
ENDBRANCH   5   7
BRANCH   1  13
ATOM     13  O   LIG     1       3.923  42.192  23.580  0.00  0.00    -0.491 OA
ATOM     14  C   LIG     1       4.003  43.320  24.449  0.00  0.00     0.277 C 
ENDBRANCH   1  13
BRANCH   2  15
ATOM     15  O   LIG     1       1.536  41.657  22.260  0.00  0.00    -0.503 OA
ATOM     16  H   LIG     1       1.555  40.688  22.182  0.00  0.00     0.292 HD
ENDBRANCH   2  15
TORSDOF 5
ENDMDL
