REMARK VINA RESULT:      -8.4      5.242      9.855
REMARK  21 active torsions:
REMARK  status: ('A' for Active; 'I' for Inactive)
REMARK    1  A    between atoms: C_2  and  O_11 
REMARK    2  A    between atoms: C_3  and  O_7 
REMARK    3  A    between atoms: C_4  and  O_42 
REMARK    4  A    between atoms: C_5  and  O_9 
REMARK    5  A    between atoms: C_6  and  C_26 
REMARK    6  A    between atoms: O_11  and  C_12 
REMARK    7  A    between atoms: C_12  and  C_14 
REMARK    8  A    between atoms: C_16  and  O_20 
REMARK    9  A    between atoms: C_17  and  O_22 
REMARK   10  A    between atoms: C_18  and  O_24 
REMARK   11  A    between atoms: C_26  and  O_27 
REMARK   12  A    between atoms: O_27  and  C_28 
REMARK   13  A    between atoms: C_28  and  C_30 
REMARK   14  A    between atoms: C_32  and  O_36 
REMARK   15  A    between atoms: C_33  and  O_38 
REMARK   16  A    between atoms: C_34  and  O_40 
REMARK   17  A    between atoms: O_42  and  C_43 
REMARK   18  A    between atoms: C_43  and  C_45 
REMARK   19  A    between atoms: C_47  and  O_51 
REMARK   20  A    between atoms: C_48  and  O_53 
REMARK   21  A    between atoms: C_49  and  O_55 
ROOT
ATOM      1  O   UNL     1     180.921 180.484 171.107  0.00  0.00    -0.330 OA
ATOM      2  C   UNL     1     181.324 180.405 172.472  0.00  0.00     0.344 C 
ATOM      3  C   UNL     1     182.612 181.197 172.698  0.00  0.00     0.226 C 
ATOM      4  C   UNL     1     182.473 182.637 172.204  0.00  0.00     0.242 C 
ATOM      5  C   UNL     1     181.888 182.686 170.793  0.00  0.00     0.190 C 
ATOM      6  C   UNL     1     180.628 181.822 170.699  0.00  0.00     0.192 C 
ENDROOT
BRANCH   6   7
ATOM      7  C   UNL     1     180.092 181.760 169.272  0.00  0.00     0.266 C 
BRANCH   7   8
ATOM      8  O   UNL     1     179.134 180.720 169.196  0.00  0.00    -0.458 OA
BRANCH   8   9
ATOM      9  C   UNL     1     179.223 179.896 168.112  0.00  0.00     0.340 C 
ATOM     10  O   UNL     1     179.427 180.250 166.961  0.00  0.00    -0.245 OA
BRANCH   9  11
ATOM     11  C   UNL     1     179.035 178.476 168.506  0.00  0.00     0.066 A 
ATOM     12  C   UNL     1     177.984 178.121 169.351  0.00  0.00     0.064 A 
ATOM     13  C   UNL     1     177.805 176.788 169.719  0.00  0.00     0.163 A 
ATOM     14  C   UNL     1     178.676 175.810 169.242  0.00  0.00     0.201 A 
ATOM     15  C   UNL     1     179.728 176.165 168.397  0.00  0.00     0.163 A 
ATOM     16  C   UNL     1     179.906 177.498 168.029  0.00  0.00     0.064 A 
BRANCH  13  17
ATOM     17  O   UNL     1     176.774 176.453 170.545  0.00  0.00    -0.503 OA
ATOM     18  H   UNL     1     176.719 177.105 171.266  0.00  0.00     0.292 HD
ENDBRANCH  13  17
BRANCH  14  19
ATOM     19  O   UNL     1     178.503 174.506 169.602  0.00  0.00    -0.501 OA
ATOM     20  H   UNL     1     178.903 173.943 168.916  0.00  0.00     0.292 HD
ENDBRANCH  14  19
BRANCH  15  21
ATOM     21  O   UNL     1     180.586 175.219 167.922  0.00  0.00    -0.503 OA
ATOM     22  H   UNL     1     180.201 174.339 168.069  0.00  0.00     0.292 HD
ENDBRANCH  15  21
ENDBRANCH   9  11
ENDBRANCH   8   9
ENDBRANCH   7   8
ENDBRANCH   6   7
BRANCH   5  23
ATOM     23  O   UNL     1     181.562 184.032 170.464  0.00  0.00    -0.385 OA
ATOM     24  H   UNL     1     181.115 184.032 169.600  0.00  0.00     0.210 HD
ENDBRANCH   5  23
BRANCH   4  25
ATOM     25  O   UNL     1     183.761 183.254 172.170  0.00  0.00    -0.452 OA
BRANCH  25  26
ATOM     26  C   UNL     1     183.863 184.449 172.808  0.00  0.00     0.340 C 
ATOM     27  O   UNL     1     183.133 185.415 172.649  0.00  0.00    -0.245 OA
BRANCH  26  28
ATOM     28  C   UNL     1     185.008 184.440 173.752  0.00  0.00     0.066 A 
ATOM     29  C   UNL     1     185.003 185.281 174.864  0.00  0.00     0.064 A 
ATOM     30  C   UNL     1     186.078 185.270 175.753  0.00  0.00     0.163 A 
ATOM     31  C   UNL     1     187.159 184.418 175.529  0.00  0.00     0.201 A 
ATOM     32  C   UNL     1     187.165 183.576 174.416  0.00  0.00     0.163 A 
ATOM     33  C   UNL     1     186.089 183.587 173.528  0.00  0.00     0.064 A 
BRANCH  30  34
ATOM     34  O   UNL     1     186.060 186.096 176.837  0.00  0.00    -0.503 OA
ATOM     35  H   UNL     1     186.975 186.270 177.119  0.00  0.00     0.292 HD
ENDBRANCH  30  34
BRANCH  31  36
ATOM     36  O   UNL     1     188.211 184.408 176.396  0.00  0.00    -0.501 OA
ATOM     37  H   UNL     1     188.562 183.501 176.442  0.00  0.00     0.292 HD
ENDBRANCH  31  36
BRANCH  32  38
ATOM     38  O   UNL     1     188.214 182.739 174.186  0.00  0.00    -0.503 OA
ATOM     39  H   UNL     1     188.731 183.077 173.434  0.00  0.00     0.292 HD
ENDBRANCH  32  38
ENDBRANCH  26  28
ENDBRANCH  25  26
ENDBRANCH   4  25
BRANCH   2  40
ATOM     40  O   UNL     1     181.577 179.045 172.822  0.00  0.00    -0.429 OA
BRANCH  40  41
ATOM     41  C   UNL     1     180.603 178.158 172.492  0.00  0.00     0.342 C 
ATOM     42  O   UNL     1     179.399 178.330 172.611  0.00  0.00    -0.245 OA
BRANCH  41  43
ATOM     43  C   UNL     1     181.196 176.909 171.950  0.00  0.00     0.066 A 
ATOM     44  C   UNL     1     180.630 175.674 172.265  0.00  0.00     0.064 A 
ATOM     45  C   UNL     1     181.189 174.500 171.757  0.00  0.00     0.163 A 
ATOM     46  C   UNL     1     182.314 174.562 170.936  0.00  0.00     0.201 A 
ATOM     47  C   UNL     1     182.881 175.799 170.621  0.00  0.00     0.163 A 
ATOM     48  C   UNL     1     182.322 176.971 171.129  0.00  0.00     0.064 A 
BRANCH  45  49
ATOM     49  O   UNL     1     180.626 173.301 172.073  0.00  0.00    -0.503 OA
ATOM     50  H   UNL     1     179.861 173.146 171.493  0.00  0.00     0.292 HD
ENDBRANCH  45  49
BRANCH  46  51
ATOM     51  O   UNL     1     182.859 173.417 170.439  0.00  0.00    -0.501 OA
ATOM     52  H   UNL     1     183.828 173.489 170.493  0.00  0.00     0.292 HD
ENDBRANCH  46  51
BRANCH  47  53
ATOM     53  O   UNL     1     183.980 175.872 169.821  0.00  0.00    -0.503 OA
ATOM     54  H   UNL     1     184.090 175.028 169.351  0.00  0.00     0.292 HD
ENDBRANCH  47  53
ENDBRANCH  41  43
ENDBRANCH  40  41
ENDBRANCH   2  40
BRANCH   3  55
ATOM     55  O   UNL     1     182.896 181.201 174.097  0.00  0.00    -0.382 OA
ATOM     56  H   UNL     1     182.587 180.357 174.470  0.00  0.00     0.210 HD
ENDBRANCH   3  55
TORSDOF 21
