REMARK VINA RESULT:      -8.4      0.000      0.000
REMARK  21 active torsions:
REMARK  status: ('A' for Active; 'I' for Inactive)
REMARK    1  A    between atoms: C_2  and  O_11 
REMARK    2  A    between atoms: C_3  and  O_7 
REMARK    3  A    between atoms: C_4  and  O_42 
REMARK    4  A    between atoms: C_5  and  O_9 
REMARK    5  A    between atoms: C_6  and  C_26 
REMARK    6  A    between atoms: O_11  and  C_12 
REMARK    7  A    between atoms: C_12  and  C_14 
REMARK    8  A    between atoms: C_16  and  O_20 
REMARK    9  A    between atoms: C_17  and  O_22 
REMARK   10  A    between atoms: C_18  and  O_24 
REMARK   11  A    between atoms: C_26  and  O_27 
REMARK   12  A    between atoms: O_27  and  C_28 
REMARK   13  A    between atoms: C_28  and  C_30 
REMARK   14  A    between atoms: C_32  and  O_36 
REMARK   15  A    between atoms: C_33  and  O_38 
REMARK   16  A    between atoms: C_34  and  O_40 
REMARK   17  A    between atoms: O_42  and  C_43 
REMARK   18  A    between atoms: C_43  and  C_45 
REMARK   19  A    between atoms: C_47  and  O_51 
REMARK   20  A    between atoms: C_48  and  O_53 
REMARK   21  A    between atoms: C_49  and  O_55 
ROOT
ATOM      1  O   UNL     1     182.873 182.874 172.583  0.00  0.00    -0.330 OA
ATOM      2  C   UNL     1     181.713 183.039 173.395  0.00  0.00     0.344 C 
ATOM      3  C   UNL     1     180.852 184.190 172.873  0.00  0.00     0.226 C 
ATOM      4  C   UNL     1     180.516 184.005 171.393  0.00  0.00     0.242 C 
ATOM      5  C   UNL     1     181.766 183.672 170.578  0.00  0.00     0.190 C 
ATOM      6  C   UNL     1     182.552 182.533 171.233  0.00  0.00     0.192 C 
ENDROOT
BRANCH   6   7
ATOM      7  C   UNL     1     183.863 182.260 170.503  0.00  0.00     0.266 C 
BRANCH   7   8
ATOM      8  O   UNL     1     184.361 183.487 169.999  0.00  0.00    -0.458 OA
BRANCH   8   9
ATOM      9  C   UNL     1     185.663 183.488 169.593  0.00  0.00     0.340 C 
ATOM     10  O   UNL     1     186.162 182.713 168.791  0.00  0.00    -0.245 OA
BRANCH   9  11
ATOM     11  C   UNL     1     186.428 184.572 170.260  0.00  0.00     0.066 A 
ATOM     12  C   UNL     1     187.810 184.656 170.090  0.00  0.00     0.064 A 
ATOM     13  C   UNL     1     188.529 185.675 170.714  0.00  0.00     0.163 A 
ATOM     14  C   UNL     1     187.866 186.610 171.508  0.00  0.00     0.201 A 
ATOM     15  C   UNL     1     186.484 186.527 171.678  0.00  0.00     0.163 A 
ATOM     16  C   UNL     1     185.766 185.508 171.054  0.00  0.00     0.064 A 
BRANCH  13  17
ATOM     17  O   UNL     1     189.879 185.747 170.540  0.00  0.00    -0.503 OA
ATOM     18  H   UNL     1     190.103 186.605 170.141  0.00  0.00     0.292 HD
ENDBRANCH  13  17
BRANCH  14  19
ATOM     19  O   UNL     1     188.568 187.607 172.120  0.00  0.00    -0.501 OA
ATOM     20  H   UNL     1     188.249 187.688 173.036  0.00  0.00     0.292 HD
ENDBRANCH  14  19
BRANCH  15  21
ATOM     21  O   UNL     1     185.824 187.434 172.450  0.00  0.00    -0.503 OA
ATOM     22  H   UNL     1     185.010 187.027 172.793  0.00  0.00     0.292 HD
ENDBRANCH  15  21
ENDBRANCH   9  11
ENDBRANCH   8   9
ENDBRANCH   7   8
ENDBRANCH   6   7
BRANCH   5  23
ATOM     23  O   UNL     1     181.382 183.284 169.263  0.00  0.00    -0.385 OA
ATOM     24  H   UNL     1     182.041 183.635 168.640  0.00  0.00     0.210 HD
ENDBRANCH   5  23
BRANCH   4  25
ATOM     25  O   UNL     1     179.963 185.217 170.877  0.00  0.00    -0.452 OA
BRANCH  25  26
ATOM     26  C   UNL     1     178.894 185.074 170.050  0.00  0.00     0.340 C 
ATOM     27  O   UNL     1     178.425 184.019 169.654  0.00  0.00    -0.245 OA
BRANCH  26  28
ATOM     28  C   UNL     1     178.349 186.402 169.670  0.00  0.00     0.066 A 
ATOM     29  C   UNL     1     178.906 187.564 170.205  0.00  0.00     0.064 A 
ATOM     30  C   UNL     1     178.396 188.812 169.846  0.00  0.00     0.163 A 
ATOM     31  C   UNL     1     177.328 188.898 168.954  0.00  0.00     0.201 A 
ATOM     32  C   UNL     1     176.770 187.736 168.419  0.00  0.00     0.163 A 
ATOM     33  C   UNL     1     177.281 186.488 168.778  0.00  0.00     0.064 A 
BRANCH  30  34
ATOM     34  O   UNL     1     178.949 189.939 170.375  0.00  0.00    -0.503 OA
ATOM     35  H   UNL     1     178.639 190.046 171.291  0.00  0.00     0.292 HD
ENDBRANCH  30  34
BRANCH  31  36
ATOM     36  O   UNL     1     176.827 190.117 168.605  0.00  0.00    -0.501 OA
ATOM     37  H   UNL     1     176.220 190.411 169.306  0.00  0.00     0.292 HD
ENDBRANCH  31  36
BRANCH  32  38
ATOM     38  O   UNL     1     175.726 187.806 167.547  0.00  0.00    -0.503 OA
ATOM     39  H   UNL     1     175.108 188.496 167.845  0.00  0.00     0.292 HD
ENDBRANCH  32  38
ENDBRANCH  26  28
ENDBRANCH  25  26
ENDBRANCH   4  25
BRANCH   2  40
ATOM     40  O   UNL     1     182.102 183.353 174.732  0.00  0.00    -0.429 OA
BRANCH  40  41
ATOM     41  C   UNL     1     183.152 182.645 175.225  0.00  0.00     0.342 C 
ATOM     42  O   UNL     1     183.100 181.533 175.728  0.00  0.00    -0.245 OA
BRANCH  41  43
ATOM     43  C   UNL     1     184.415 183.412 175.074  0.00  0.00     0.066 A 
ATOM     44  C   UNL     1     185.573 182.770 174.638  0.00  0.00     0.064 A 
ATOM     45  C   UNL     1     186.760 183.490 174.498  0.00  0.00     0.163 A 
ATOM     46  C   UNL     1     186.788 184.852 174.795  0.00  0.00     0.201 A 
ATOM     47  C   UNL     1     185.628 185.495 175.231  0.00  0.00     0.163 A 
ATOM     48  C   UNL     1     184.442 184.775 175.371  0.00  0.00     0.064 A 
BRANCH  45  49
ATOM     49  O   UNL     1     187.884 182.850 174.072  0.00  0.00    -0.503 OA
ATOM     50  H   UNL     1     188.440 182.637 174.840  0.00  0.00     0.292 HD
ENDBRANCH  45  49
BRANCH  46  51
ATOM     51  O   UNL     1     187.946 185.556 174.658  0.00  0.00    -0.501 OA
ATOM     52  H   UNL     1     188.663 185.053 175.083  0.00  0.00     0.292 HD
ENDBRANCH  46  51
BRANCH  47  53
ATOM     53  O   UNL     1     185.643 186.825 175.525  0.00  0.00    -0.503 OA
ATOM     54  H   UNL     1     184.748 187.105 175.782  0.00  0.00     0.292 HD
ENDBRANCH  47  53
ENDBRANCH  41  43
ENDBRANCH  40  41
ENDBRANCH   2  40
BRANCH   3  55
ATOM     55  O   UNL     1     179.644 184.225 173.632  0.00  0.00    -0.382 OA
ATOM     56  H   UNL     1     179.876 184.395 174.561  0.00  0.00     0.210 HD
ENDBRANCH   3  55
TORSDOF 21
