REMARK VINA RESULT:      -8.2      1.194      2.086
REMARK  21 active torsions:
REMARK  status: ('A' for Active; 'I' for Inactive)
REMARK    1  A    between atoms: C_2  and  O_11 
REMARK    2  A    between atoms: C_3  and  O_7 
REMARK    3  A    between atoms: C_4  and  O_42 
REMARK    4  A    between atoms: C_5  and  O_9 
REMARK    5  A    between atoms: C_6  and  C_26 
REMARK    6  A    between atoms: O_11  and  C_12 
REMARK    7  A    between atoms: C_12  and  C_14 
REMARK    8  A    between atoms: C_16  and  O_20 
REMARK    9  A    between atoms: C_17  and  O_22 
REMARK   10  A    between atoms: C_18  and  O_24 
REMARK   11  A    between atoms: C_26  and  O_27 
REMARK   12  A    between atoms: O_27  and  C_28 
REMARK   13  A    between atoms: C_28  and  C_30 
REMARK   14  A    between atoms: C_32  and  O_36 
REMARK   15  A    between atoms: C_33  and  O_38 
REMARK   16  A    between atoms: C_34  and  O_40 
REMARK   17  A    between atoms: O_42  and  C_43 
REMARK   18  A    between atoms: C_43  and  C_45 
REMARK   19  A    between atoms: C_47  and  O_51 
REMARK   20  A    between atoms: C_48  and  O_53 
REMARK   21  A    between atoms: C_49  and  O_55 
ROOT
ATOM      1  O   UNL     1     182.572 183.113 172.111  0.00  0.00    -0.330 OA
ATOM      2  C   UNL     1     181.463 183.269 172.994  0.00  0.00     0.344 C 
ATOM      3  C   UNL     1     180.721 184.572 172.696  0.00  0.00     0.226 C 
ATOM      4  C   UNL     1     180.321 184.660 171.223  0.00  0.00     0.242 C 
ATOM      5  C   UNL     1     181.500 184.329 170.308  0.00  0.00     0.190 C 
ATOM      6  C   UNL     1     182.174 183.025 170.741  0.00  0.00     0.192 C 
ENDROOT
BRANCH   6   7
ATOM      7  C   UNL     1     183.424 182.735 169.917  0.00  0.00     0.266 C 
BRANCH   7   8
ATOM      8  O   UNL     1     184.554 183.188 170.639  0.00  0.00    -0.458 OA
BRANCH   8   9
ATOM      9  C   UNL     1     185.667 183.471 169.902  0.00  0.00     0.340 C 
ATOM     10  O   UNL     1     186.001 182.910 168.869  0.00  0.00    -0.245 OA
BRANCH   9  11
ATOM     11  C   UNL     1     186.450 184.571 170.520  0.00  0.00     0.066 A 
ATOM     12  C   UNL     1     185.816 185.497 171.349  0.00  0.00     0.064 A 
ATOM     13  C   UNL     1     186.551 186.529 171.932  0.00  0.00     0.163 A 
ATOM     14  C   UNL     1     187.919 186.635 171.688  0.00  0.00     0.201 A 
ATOM     15  C   UNL     1     188.553 185.709 170.859  0.00  0.00     0.163 A 
ATOM     16  C   UNL     1     187.819 184.677 170.276  0.00  0.00     0.064 A 
BRANCH  13  17
ATOM     17  O   UNL     1     185.920 187.427 172.740  0.00  0.00    -0.503 OA
ATOM     18  H   UNL     1     186.300 187.373 173.633  0.00  0.00     0.292 HD
ENDBRANCH  13  17
BRANCH  14  19
ATOM     19  O   UNL     1     188.639 187.644 172.256  0.00  0.00    -0.501 OA
ATOM     20  H   UNL     1     188.201 188.488 172.048  0.00  0.00     0.292 HD
ENDBRANCH  14  19
BRANCH  15  21
ATOM     21  O   UNL     1     189.891 185.800 170.612  0.00  0.00    -0.503 OA
ATOM     22  H   UNL     1     190.071 186.631 170.142  0.00  0.00     0.292 HD
ENDBRANCH  15  21
ENDBRANCH   9  11
ENDBRANCH   8   9
ENDBRANCH   7   8
ENDBRANCH   6   7
BRANCH   5  23
ATOM     23  O   UNL     1     181.035 184.197 168.968  0.00  0.00    -0.385 OA
ATOM     24  H   UNL     1     180.554 183.354 168.898  0.00  0.00     0.210 HD
ENDBRANCH   5  23
BRANCH   4  25
ATOM     25  O   UNL     1     179.890 185.989 170.926  0.00  0.00    -0.452 OA
BRANCH  25  26
ATOM     26  C   UNL     1     178.854 186.095 170.054  0.00  0.00     0.340 C 
ATOM     27  O   UNL     1     177.879 185.362 170.000  0.00  0.00    -0.245 OA
BRANCH  26  28
ATOM     28  C   UNL     1     179.057 187.248 169.142  0.00  0.00     0.066 A 
ATOM     29  C   UNL     1     178.843 187.101 167.772  0.00  0.00     0.064 A 
ATOM     30  C   UNL     1     179.031 188.186 166.915  0.00  0.00     0.163 A 
ATOM     31  C   UNL     1     179.436 189.417 167.429  0.00  0.00     0.201 A 
ATOM     32  C   UNL     1     179.652 189.565 168.799  0.00  0.00     0.163 A 
ATOM     33  C   UNL     1     179.462 188.480 169.656  0.00  0.00     0.064 A 
BRANCH  30  34
ATOM     34  O   UNL     1     178.817 188.029 165.579  0.00  0.00    -0.503 OA
ATOM     35  H   UNL     1     179.674 187.938 165.128  0.00  0.00     0.292 HD
ENDBRANCH  30  34
BRANCH  31  36
ATOM     36  O   UNL     1     179.623 190.478 166.592  0.00  0.00    -0.501 OA
ATOM     37  H   UNL     1     179.004 190.391 165.845  0.00  0.00     0.292 HD
ENDBRANCH  31  36
BRANCH  32  38
ATOM     38  O   UNL     1     180.047 190.763 169.314  0.00  0.00    -0.503 OA
ATOM     39  H   UNL     1     180.133 190.681 170.280  0.00  0.00     0.292 HD
ENDBRANCH  32  38
ENDBRANCH  26  28
ENDBRANCH  25  26
ENDBRANCH   4  25
BRANCH   2  40
ATOM     40  O   UNL     1     181.926 183.325 174.343  0.00  0.00    -0.429 OA
BRANCH  40  41
ATOM     41  C   UNL     1     182.958 182.497 174.649  0.00  0.00     0.342 C 
ATOM     42  O   UNL     1     182.887 181.291 174.831  0.00  0.00    -0.245 OA
BRANCH  41  43
ATOM     43  C   UNL     1     184.229 183.260 174.742  0.00  0.00     0.066 A 
ATOM     44  C   UNL     1     185.424 182.677 174.321  0.00  0.00     0.064 A 
ATOM     45  C   UNL     1     186.618 183.394 174.410  0.00  0.00     0.163 A 
ATOM     46  C   UNL     1     186.617 184.692 174.919  0.00  0.00     0.201 A 
ATOM     47  C   UNL     1     185.421 185.274 175.340  0.00  0.00     0.163 A 
ATOM     48  C   UNL     1     184.227 184.558 175.252  0.00  0.00     0.064 A 
BRANCH  45  49
ATOM     49  O   UNL     1     187.779 182.812 173.996  0.00  0.00    -0.503 OA
ATOM     50  H   UNL     1     187.923 181.995 174.501  0.00  0.00     0.292 HD
ENDBRANCH  45  49
BRANCH  46  51
ATOM     51  O   UNL     1     187.783 185.391 175.005  0.00  0.00    -0.501 OA
ATOM     52  H   UNL     1     188.444 184.833 175.451  0.00  0.00     0.292 HD
ENDBRANCH  46  51
BRANCH  47  53
ATOM     53  O   UNL     1     185.406 186.541 175.840  0.00  0.00    -0.503 OA
ATOM     54  H   UNL     1     184.566 186.690 176.308  0.00  0.00     0.292 HD
ENDBRANCH  47  53
ENDBRANCH  41  43
ENDBRANCH  40  41
ENDBRANCH   2  40
BRANCH   3  55
ATOM     55  O   UNL     1     179.548 184.613 173.509  0.00  0.00    -0.382 OA
ATOM     56  H   UNL     1     179.505 183.787 174.019  0.00  0.00     0.210 HD
ENDBRANCH   3  55
TORSDOF 21
