REMARK VINA RESULT:      -8.3      2.118      4.801
REMARK  21 active torsions:
REMARK  status: ('A' for Active; 'I' for Inactive)
REMARK    1  A    between atoms: C_2  and  O_11 
REMARK    2  A    between atoms: C_3  and  O_7 
REMARK    3  A    between atoms: C_4  and  O_42 
REMARK    4  A    between atoms: C_5  and  O_9 
REMARK    5  A    between atoms: C_6  and  C_26 
REMARK    6  A    between atoms: O_11  and  C_12 
REMARK    7  A    between atoms: C_12  and  C_14 
REMARK    8  A    between atoms: C_16  and  O_20 
REMARK    9  A    between atoms: C_17  and  O_22 
REMARK   10  A    between atoms: C_18  and  O_24 
REMARK   11  A    between atoms: C_26  and  O_27 
REMARK   12  A    between atoms: O_27  and  C_28 
REMARK   13  A    between atoms: C_28  and  C_30 
REMARK   14  A    between atoms: C_32  and  O_36 
REMARK   15  A    between atoms: C_33  and  O_38 
REMARK   16  A    between atoms: C_34  and  O_40 
REMARK   17  A    between atoms: O_42  and  C_43 
REMARK   18  A    between atoms: C_43  and  C_45 
REMARK   19  A    between atoms: C_47  and  O_51 
REMARK   20  A    between atoms: C_48  and  O_53 
REMARK   21  A    between atoms: C_49  and  O_55 
ROOT
ATOM      1  O   UNL     1     181.734 185.893 171.476  0.00  0.00    -0.330 OA
ATOM      2  C   UNL     1     182.613 186.850 170.889  0.00  0.00     0.344 C 
ATOM      3  C   UNL     1     182.060 187.333 169.547  0.00  0.00     0.226 C 
ATOM      4  C   UNL     1     180.630 187.853 169.690  0.00  0.00     0.242 C 
ATOM      5  C   UNL     1     179.756 186.867 170.465  0.00  0.00     0.190 C 
ATOM      6  C   UNL     1     180.444 186.438 171.764  0.00  0.00     0.192 C 
ENDROOT
BRANCH   6   7
ATOM      7  C   UNL     1     179.646 185.366 172.498  0.00  0.00     0.266 C 
BRANCH   7   8
ATOM      8  O   UNL     1     180.403 184.169 172.508  0.00  0.00    -0.458 OA
BRANCH   8   9
ATOM      9  C   UNL     1     180.602 183.591 173.728  0.00  0.00     0.340 C 
ATOM     10  O   UNL     1     179.749 183.422 174.586  0.00  0.00    -0.245 OA
BRANCH   9  11
ATOM     11  C   UNL     1     182.020 183.184 173.899  0.00  0.00     0.066 A 
ATOM     12  C   UNL     1     182.896 183.237 172.814  0.00  0.00     0.064 A 
ATOM     13  C   UNL     1     184.227 182.856 172.975  0.00  0.00     0.163 A 
ATOM     14  C   UNL     1     184.684 182.423 174.219  0.00  0.00     0.201 A 
ATOM     15  C   UNL     1     183.809 182.370 175.303  0.00  0.00     0.163 A 
ATOM     16  C   UNL     1     182.477 182.751 175.143  0.00  0.00     0.064 A 
BRANCH  13  17
ATOM     17  O   UNL     1     185.073 182.912 171.908  0.00  0.00    -0.503 OA
ATOM     18  H   UNL     1     185.354 182.010 171.676  0.00  0.00     0.292 HD
ENDBRANCH  13  17
BRANCH  14  19
ATOM     19  O   UNL     1     185.987 182.049 174.376  0.00  0.00    -0.501 OA
ATOM     20  H   UNL     1     186.354 182.533 175.137  0.00  0.00     0.292 HD
ENDBRANCH  14  19
BRANCH  15  21
ATOM     21  O   UNL     1     184.242 181.950 176.525  0.00  0.00    -0.503 OA
ATOM     22  H   UNL     1     185.181 182.181 176.626  0.00  0.00     0.292 HD
ENDBRANCH  15  21
ENDBRANCH   9  11
ENDBRANCH   8   9
ENDBRANCH   7   8
ENDBRANCH   6   7
BRANCH   5  23
ATOM     23  O   UNL     1     178.510 187.483 170.774  0.00  0.00    -0.385 OA
ATOM     24  H   UNL     1     177.804 186.965 170.349  0.00  0.00     0.210 HD
ENDBRANCH   5  23
BRANCH   4  25
ATOM     25  O   UNL     1     180.056 188.026 168.393  0.00  0.00    -0.452 OA
BRANCH  25  26
ATOM     26  C   UNL     1     179.520 189.248 168.141  0.00  0.00     0.340 C 
ATOM     27  O   UNL     1     180.139 190.286 167.968  0.00  0.00    -0.245 OA
BRANCH  26  28
ATOM     28  C   UNL     1     178.038 189.169 168.104  0.00  0.00     0.066 A 
ATOM     29  C   UNL     1     177.269 190.223 168.597  0.00  0.00     0.064 A 
ATOM     30  C   UNL     1     175.877 190.149 168.558  0.00  0.00     0.163 A 
ATOM     31  C   UNL     1     175.253 189.019 168.029  0.00  0.00     0.201 A 
ATOM     32  C   UNL     1     176.021 187.964 167.536  0.00  0.00     0.163 A 
ATOM     33  C   UNL     1     177.414 188.039 167.574  0.00  0.00     0.064 A 
BRANCH  30  34
ATOM     34  O   UNL     1     175.137 191.186 169.042  0.00  0.00    -0.503 OA
ATOM     35  H   UNL     1     175.377 191.340 169.973  0.00  0.00     0.292 HD
ENDBRANCH  30  34
BRANCH  31  36
ATOM     36  O   UNL     1     173.892 188.945 167.993  0.00  0.00    -0.501 OA
ATOM     37  H   UNL     1     173.598 188.359 168.712  0.00  0.00     0.292 HD
ENDBRANCH  31  36
BRANCH  32  38
ATOM     38  O   UNL     1     175.425 186.855 167.016  0.00  0.00    -0.503 OA
ATOM     39  H   UNL     1     175.461 186.901 166.045  0.00  0.00     0.292 HD
ENDBRANCH  32  38
ENDBRANCH  26  28
ENDBRANCH  25  26
ENDBRANCH   4  25
BRANCH   2  40
ATOM     40  O   UNL     1     183.886 186.252 170.650  0.00  0.00    -0.429 OA
BRANCH  40  41
ATOM     41  C   UNL     1     184.962 186.952 171.096  0.00  0.00     0.342 C 
ATOM     42  O   UNL     1     185.515 187.874 170.515  0.00  0.00    -0.245 OA
BRANCH  41  43
ATOM     43  C   UNL     1     185.402 186.445 172.421  0.00  0.00     0.066 A 
ATOM     44  C   UNL     1     186.652 185.843 172.557  0.00  0.00     0.064 A 
ATOM     45  C   UNL     1     187.064 185.364 173.802  0.00  0.00     0.163 A 
ATOM     46  C   UNL     1     186.226 185.488 174.909  0.00  0.00     0.201 A 
ATOM     47  C   UNL     1     184.974 186.091 174.772  0.00  0.00     0.163 A 
ATOM     48  C   UNL     1     184.563 186.569 173.529  0.00  0.00     0.064 A 
BRANCH  45  49
ATOM     49  O   UNL     1     188.288 184.777 173.921  0.00  0.00    -0.503 OA
ATOM     50  H   UNL     1     188.878 185.371 174.415  0.00  0.00     0.292 HD
ENDBRANCH  45  49
BRANCH  46  51
ATOM     51  O   UNL     1     186.629 185.022 176.125  0.00  0.00    -0.501 OA
ATOM     52  H   UNL     1     186.434 184.069 176.167  0.00  0.00     0.292 HD
ENDBRANCH  46  51
BRANCH  47  53
ATOM     53  O   UNL     1     184.146 186.217 175.846  0.00  0.00    -0.503 OA
ATOM     54  H   UNL     1     183.613 185.409 175.935  0.00  0.00     0.292 HD
ENDBRANCH  47  53
ENDBRANCH  41  43
ENDBRANCH  40  41
ENDBRANCH   2  40
BRANCH   3  55
ATOM     55  O   UNL     1     182.901 188.383 169.069  0.00  0.00    -0.382 OA
ATOM     56  H   UNL     1     182.401 189.215 169.118  0.00  0.00     0.210 HD
ENDBRANCH   3  55
TORSDOF 21
