REMARK  Name = 14749097
REMARK  9 active torsions:
REMARK  status: ('A' for Active; 'I' for Inactive)
REMARK    1  A    between atoms: O_2  and  C_14
REMARK    2  A    between atoms: O_2  and  C_16
REMARK    3  A    between atoms: O_3  and  C_11
REMARK    4  A    between atoms: O_4  and  C_12
REMARK    5  A    between atoms: O_5  and  C_13
REMARK    6  A    between atoms: O_8  and  C_22
REMARK    7  A    between atoms: O_9  and  C_27
REMARK    8  A    between atoms: O_10  and  C_30
REMARK    9  A    between atoms: C_17  and  C_21
REMARK                            x       y       z     vdW  Elec       q    Type
REMARK                         _______ _______ _______ _____ _____    ______ ____
ROOT
ATOM      1  O   UNL     1      -1.855   1.556  -0.092  0.00  0.00    +0.000 OA
ATOM      2  O   UNL     1      -1.291  -2.414   0.634  0.00  0.00    +0.000 OA
ATOM      3  C   UNL     1      -0.333  -0.264   0.374  0.00  0.00    +0.000 A 
ATOM      4  C   UNL     1      -0.590   1.033   0.122  0.00  0.00    +0.000 A 
ATOM      5  C   UNL     1      -1.463  -1.223   0.412  0.00  0.00    +0.000 A 
ATOM      6  C   UNL     1      -2.802  -0.663   0.171  0.00  0.00    +0.000 A 
ATOM      7  C   UNL     1      -2.928   0.703  -0.070  0.00  0.00    +0.000 A 
ATOM      8  C   UNL     1      -3.932  -1.485   0.182  0.00  0.00    +0.000 A 
ATOM      9  C   UNL     1      -4.187   1.258  -0.299  0.00  0.00    +0.000 A 
ATOM     10  C   UNL     1      -5.191  -0.927  -0.048  0.00  0.00    +0.000 A 
ATOM     11  C   UNL     1      -5.318   0.441  -0.288  0.00  0.00    +0.000 A 
ENDROOT
BRANCH   4  12
ATOM     12  C   UNL     1       0.471   2.055   0.073  0.00  0.00    +0.000 A 
ATOM     13  C   UNL     1       1.113   2.338  -1.133  0.00  0.00    +0.000 A 
ATOM     14  C   UNL     1       0.833   2.740   1.233  0.00  0.00    +0.000 A 
ATOM     15  C   UNL     1       2.116   3.305  -1.179  0.00  0.00    +0.000 A 
ATOM     16  C   UNL     1       1.837   3.708   1.187  0.00  0.00    +0.000 A 
ATOM     17  C   UNL     1       2.478   3.991  -0.019  0.00  0.00    +0.000 A 
BRANCH  17  18
ATOM     18  O   UNL     1       3.457   4.935  -0.065  0.00  0.00    +0.000 OA
ATOM     19  H   UNL     1       3.791   5.000  -0.976  0.00  0.00    +0.000 HD
ENDBRANCH  17  18
ENDBRANCH   4  12
BRANCH   8  20
ATOM     20  O   UNL     1      -3.864  -2.826   0.413  0.00  0.00    +0.000 OA
ATOM     21  H   UNL     1      -2.945  -3.100   0.553  0.00  0.00    +0.000 HD
ENDBRANCH   8  20
BRANCH  11  22
ATOM     22  O   UNL     1      -6.548   0.980  -0.513  0.00  0.00    +0.000 OA
ATOM     23  H   UNL     1      -6.451   1.937  -0.660  0.00  0.00    +0.000 HD
ENDBRANCH  11  22
BRANCH   3  24
ATOM     24  O   UNL     1       0.935  -0.747   0.616  0.00  0.00    +0.000 OA
BRANCH  24  29
ATOM     25  O   UNL     1       1.289  -2.509  -0.923  0.00  0.00    +0.000 OA
ATOM     26  C   UNL     1       3.690  -1.914   0.550  0.00  0.00    +0.000 C 
ATOM     27  C   UNL     1       3.095  -0.944  -0.473  0.00  0.00    +0.000 C 
ATOM     28  C   UNL     1       3.276  -3.350   0.223  0.00  0.00    +0.000 C 
ATOM     29  C   UNL     1       1.582  -1.150  -0.591  0.00  0.00    +0.000 C 
ATOM     30  C   UNL     1       1.764  -3.450   0.047  0.00  0.00    +0.000 C 
BRANCH  26  31
ATOM     31  O   UNL     1       5.112  -1.830   0.549  0.00  0.00    +0.000 OA
ATOM     32  H   UNL     1       5.348  -0.902   0.720  0.00  0.00    +0.000 HD
ENDBRANCH  26  31
BRANCH  27  33
ATOM     33  O   UNL     1       3.352   0.403  -0.093  0.00  0.00    +0.000 OA
ATOM     34  H   UNL     1       2.965   0.542   0.788  0.00  0.00    +0.000 HD
ENDBRANCH  27  33
BRANCH  28  35
ATOM     35  O   UNL     1       3.902  -3.753  -0.998  0.00  0.00    +0.000 OA
ATOM     36  H   UNL     1       3.641  -4.674  -1.170  0.00  0.00    +0.000 HD
ENDBRANCH  28  35
ENDBRANCH  24  29
ENDBRANCH   3  24
TORSDOF 9
