MODEL 1
REMARK VINA RESULT:      -7.7      0.000      0.000
REMARK  6 active torsions:
REMARK  status: ('A' for Active; 'I' for Inactive)
REMARK    1  A    between atoms: O_2  and  C_9 
REMARK    2  A    between atoms: O_4  and  C_14 
REMARK    3  A    between atoms: O_5  and  C_19 
REMARK    4  A    between atoms: O_6  and  C_20 
REMARK    5  A    between atoms: O_7  and  C_22 
REMARK    6  A    between atoms: C_8  and  C_10 
ROOT
HETATM    1  O   UNK     0     150.701 156.806 150.983  0.00  0.00    -0.337 OA
HETATM    2  O   UNK     0     147.744 154.053 150.261  0.00  0.00    -0.289 OA
HETATM    3  C   UNK     0     150.768 155.480 151.530  0.00  0.00     0.198 C 
HETATM    4  C   UNK     0     150.098 154.464 150.604  0.00  0.00     0.227 C 
HETATM    5  C   UNK     0     148.651 154.864 150.409  0.00  0.00     0.196 C 
HETATM    6  C   UNK     0     148.391 156.316 150.370  0.00  0.00     0.079 A 
HETATM    7  C   UNK     0     149.435 157.203 150.643  0.00  0.00     0.089 A 
HETATM    8  C   UNK     0     147.123 156.799 150.035  0.00  0.00     0.085 A 
HETATM    9  C   UNK     0     149.217 158.578 150.546  0.00  0.00     0.074 A 
HETATM   10  C   UNK     0     146.907 158.174 149.958  0.00  0.00     0.074 A 
HETATM   11  C   UNK     0     147.953 159.063 150.208  0.00  0.00     0.071 A 
ENDROOT
BRANCH   3  12
HETATM   12  C   UNK     0     152.233 155.159 151.751  0.00  0.00    -0.023 A 
HETATM   13  C   UNK     0     152.744 155.104 153.046  0.00  0.00     0.049 A 
HETATM   14  C   UNK     0     154.092 154.809 153.250  0.00  0.00     0.099 A 
HETATM   15  C   UNK     0     154.927 154.570 152.158  0.00  0.00     0.098 A 
HETATM   16  C   UNK     0     154.413 154.625 150.862  0.00  0.00     0.040 A 
HETATM   17  C   UNK     0     153.066 154.920 150.659  0.00  0.00     0.013 A 
BRANCH  14  18
HETATM   18  O   UNK     0     154.582 154.757 154.520  0.00  0.00    -0.358 OA
HETATM   19  H   UNK     0     154.199 155.494 155.026  0.00  0.00     0.217 HD
ENDBRANCH  14  18
BRANCH  15  20
HETATM   20  O   UNK     0     156.245 154.279 152.345  0.00  0.00    -0.358 OA
HETATM   21  H   UNK     0     156.729 154.465 151.522  0.00  0.00     0.217 HD
ENDBRANCH  15  20
ENDBRANCH   3  12
BRANCH   4  22
HETATM   22  O   UNK     0     150.124 153.175 151.192  0.00  0.00    -0.385 OA
HETATM   23  H   UNK     0     150.674 152.606 150.627  0.00  0.00     0.210 HD
ENDBRANCH   4  22
BRANCH   8  24
HETATM   24  O   UNK     0     146.071 155.978 149.762  0.00  0.00    -0.360 OA
HETATM   25  H   UNK     0     146.228 155.090 150.118  0.00  0.00     0.217 HD
ENDBRANCH   8  24
BRANCH  11  26
HETATM   26  O   UNK     0     147.740 160.405 150.124  0.00  0.00    -0.361 OA
HETATM   27  H   UNK     0     148.326 160.776 149.442  0.00  0.00     0.217 HD
ENDBRANCH  11  26
TORSDOF 6
ENDMDL
MODEL 2
REMARK VINA RESULT:      -7.6      2.132      6.796
REMARK  6 active torsions:
REMARK  status: ('A' for Active; 'I' for Inactive)
REMARK    1  A    between atoms: O_2  and  C_9 
REMARK    2  A    between atoms: O_4  and  C_14 
REMARK    3  A    between atoms: O_5  and  C_19 
REMARK    4  A    between atoms: O_6  and  C_20 
REMARK    5  A    between atoms: O_7  and  C_22 
REMARK    6  A    between atoms: C_8  and  C_10 
ROOT
HETATM    1  O   UNK     0     151.745 155.727 151.232  0.00  0.00    -0.337 OA
HETATM    2  O   UNK     0     153.252 151.913 151.082  0.00  0.00    -0.289 OA
HETATM    3  C   UNK     0     151.163 154.729 150.379  0.00  0.00     0.198 C 
HETATM    4  C   UNK     0     151.302 153.332 150.986  0.00  0.00     0.227 C 
HETATM    5  C   UNK     0     152.771 153.035 151.191  0.00  0.00     0.196 C 
HETATM    6  C   UNK     0     153.608 154.190 151.572  0.00  0.00     0.079 A 
HETATM    7  C   UNK     0     153.041 155.466 151.586  0.00  0.00     0.089 A 
HETATM    8  C   UNK     0     154.942 154.004 151.944  0.00  0.00     0.085 A 
HETATM    9  C   UNK     0     153.805 156.557 152.008  0.00  0.00     0.074 A 
HETATM   10  C   UNK     0     155.705 155.101 152.345  0.00  0.00     0.074 A 
HETATM   11  C   UNK     0     155.136 156.374 152.382  0.00  0.00     0.071 A 
ENDROOT
BRANCH   3  12
HETATM   12  C   UNK     0     149.709 155.109 150.170  0.00  0.00    -0.023 A 
HETATM   13  C   UNK     0     149.279 155.539 148.916  0.00  0.00     0.049 A 
HETATM   14  C   UNK     0     147.942 155.890 148.722  0.00  0.00     0.099 A 
HETATM   15  C   UNK     0     147.040 155.810 149.783  0.00  0.00     0.098 A 
HETATM   16  C   UNK     0     147.473 155.378 151.037  0.00  0.00     0.040 A 
HETATM   17  C   UNK     0     148.809 155.028 151.230  0.00  0.00     0.013 A 
BRANCH  14  18
HETATM   18  O   UNK     0     147.530 156.308 147.494  0.00  0.00    -0.358 OA
HETATM   19  H   UNK     0     146.729 155.812 147.254  0.00  0.00     0.217 HD
ENDBRANCH  14  18
BRANCH  15  20
HETATM   20  O   UNK     0     145.732 156.148 149.606  0.00  0.00    -0.358 OA
HETATM   21  H   UNK     0     145.389 155.687 148.821  0.00  0.00     0.217 HD
ENDBRANCH  15  20
ENDBRANCH   3  12
BRANCH   4  22
HETATM   22  O   UNK     0     150.774 152.359 150.101  0.00  0.00    -0.385 OA
HETATM   23  H   UNK     0     151.045 151.486 150.429  0.00  0.00     0.210 HD
ENDBRANCH   4  22
BRANCH   8  24
HETATM   24  O   UNK     0     155.544 152.782 151.944  0.00  0.00    -0.360 OA
HETATM   25  H   UNK     0     155.438 152.348 151.084  0.00  0.00     0.217 HD
ENDBRANCH   8  24
BRANCH  11  26
HETATM   26  O   UNK     0     155.882 157.440 152.782  0.00  0.00    -0.361 OA
HETATM   27  H   UNK     0     155.313 158.229 152.815  0.00  0.00     0.217 HD
ENDBRANCH  11  26
TORSDOF 6
ENDMDL
MODEL 3
REMARK VINA RESULT:      -7.5      4.243      6.828
REMARK  6 active torsions:
REMARK  status: ('A' for Active; 'I' for Inactive)
REMARK    1  A    between atoms: O_2  and  C_9 
REMARK    2  A    between atoms: O_4  and  C_14 
REMARK    3  A    between atoms: O_5  and  C_19 
REMARK    4  A    between atoms: O_6  and  C_20 
REMARK    5  A    between atoms: O_7  and  C_22 
REMARK    6  A    between atoms: C_8  and  C_10 
ROOT
HETATM    1  O   UNK     0     154.318 153.618 149.107  0.00  0.00    -0.337 OA
HETATM    2  O   UNK     0     150.645 154.064 150.882  0.00  0.00    -0.289 OA
HETATM    3  C   UNK     0     153.197 152.812 148.712  0.00  0.00     0.198 C 
HETATM    4  C   UNK     0     151.882 153.578 148.868  0.00  0.00     0.227 C 
HETATM    5  C   UNK     0     151.729 153.992 150.315  0.00  0.00     0.196 C 
HETATM    6  C   UNK     0     152.980 154.348 151.012  0.00  0.00     0.079 A 
HETATM    7  C   UNK     0     154.201 154.156 150.361  0.00  0.00     0.089 A 
HETATM    8  C   UNK     0     152.943 154.899 152.295  0.00  0.00     0.085 A 
HETATM    9  C   UNK     0     155.387 154.549 150.985  0.00  0.00     0.074 A 
HETATM   10  C   UNK     0     154.132 155.271 152.921  0.00  0.00     0.074 A 
HETATM   11  C   UNK     0     155.352 155.102 152.265  0.00  0.00     0.071 A 
ENDROOT
BRANCH   3  12
HETATM   12  C   UNK     0     153.434 152.386 147.276  0.00  0.00    -0.023 A 
HETATM   13  C   UNK     0     153.689 151.048 146.983  0.00  0.00     0.049 A 
HETATM   14  C   UNK     0     153.907 150.654 145.662  0.00  0.00     0.099 A 
HETATM   15  C   UNK     0     153.870 151.601 144.638  0.00  0.00     0.098 A 
HETATM   16  C   UNK     0     153.614 152.940 144.934  0.00  0.00     0.040 A 
HETATM   17  C   UNK     0     153.396 153.333 146.254  0.00  0.00     0.013 A 
BRANCH  14  18
HETATM   18  O   UNK     0     154.155 149.345 145.385  0.00  0.00    -0.358 OA
HETATM   19  H   UNK     0     155.060 149.272 145.036  0.00  0.00     0.217 HD
ENDBRANCH  14  18
BRANCH  15  20
HETATM   20  O   UNK     0     154.080 151.229 143.344  0.00  0.00    -0.358 OA
HETATM   21  H   UNK     0     153.259 150.849 142.987  0.00  0.00     0.217 HD
ENDBRANCH  15  20
ENDBRANCH   3  12
BRANCH   4  22
HETATM   22  O   UNK     0     150.788 152.743 148.529  0.00  0.00    -0.385 OA
HETATM   23  H   UNK     0     150.792 151.990 149.144  0.00  0.00     0.210 HD
ENDBRANCH   4  22
BRANCH   8  24
HETATM   24  O   UNK     0     151.780 155.104 152.976  0.00  0.00    -0.360 OA
HETATM   25  H   UNK     0     151.162 155.630 152.446  0.00  0.00     0.217 HD
ENDBRANCH   8  24
BRANCH  11  26
HETATM   26  O   UNK     0     156.510 155.474 152.876  0.00  0.00    -0.361 OA
HETATM   27  H   UNK     0     157.252 155.004 152.459  0.00  0.00     0.217 HD
ENDBRANCH  11  26
TORSDOF 6
ENDMDL
MODEL 4
REMARK VINA RESULT:      -7.5      2.211      3.784
REMARK  6 active torsions:
REMARK  status: ('A' for Active; 'I' for Inactive)
REMARK    1  A    between atoms: O_2  and  C_9 
REMARK    2  A    between atoms: O_4  and  C_14 
REMARK    3  A    between atoms: O_5  and  C_19 
REMARK    4  A    between atoms: O_6  and  C_20 
REMARK    5  A    between atoms: O_7  and  C_22 
REMARK    6  A    between atoms: C_8  and  C_10 
ROOT
HETATM    1  O   UNK     0     151.202 157.235 150.961  0.00  0.00    -0.337 OA
HETATM    2  O   UNK     0     152.194 160.965 152.355  0.00  0.00    -0.289 OA
HETATM    3  C   UNK     0     152.573 157.632 151.114  0.00  0.00     0.198 C 
HETATM    4  C   UNK     0     152.739 158.615 152.274  0.00  0.00     0.227 C 
HETATM    5  C   UNK     0     151.881 159.832 152.007  0.00  0.00     0.196 C 
HETATM    6  C   UNK     0     150.601 159.571 151.321  0.00  0.00     0.079 A 
HETATM    7  C   UNK     0     150.329 158.284 150.852  0.00  0.00     0.089 A 
HETATM    8  C   UNK     0     149.659 160.592 151.168  0.00  0.00     0.085 A 
HETATM    9  C   UNK     0     149.095 158.010 150.260  0.00  0.00     0.074 A 
HETATM   10  C   UNK     0     148.436 160.317 150.558  0.00  0.00     0.074 A 
HETATM   11  C   UNK     0     148.151 159.027 150.109  0.00  0.00     0.071 A 
ENDROOT
BRANCH   3  12
HETATM   12  C   UNK     0     153.386 156.370 151.325  0.00  0.00    -0.023 A 
HETATM   13  C   UNK     0     153.129 155.555 152.426  0.00  0.00     0.049 A 
HETATM   14  C   UNK     0     153.877 154.393 152.621  0.00  0.00     0.099 A 
HETATM   15  C   UNK     0     154.881 154.050 151.715  0.00  0.00     0.098 A 
HETATM   16  C   UNK     0     155.136 154.867 150.614  0.00  0.00     0.040 A 
HETATM   17  C   UNK     0     154.389 156.028 150.419  0.00  0.00     0.013 A 
BRANCH  14  18
HETATM   18  O   UNK     0     153.618 153.602 153.699  0.00  0.00    -0.358 OA
HETATM   19  H   UNK     0     153.404 154.176 154.455  0.00  0.00     0.217 HD
ENDBRANCH  14  18
BRANCH  15  20
HETATM   20  O   UNK     0     155.617 152.917 151.894  0.00  0.00    -0.358 OA
HETATM   21  H   UNK     0     155.063 152.244 152.325  0.00  0.00     0.217 HD
ENDBRANCH  15  20
ENDBRANCH   3  12
BRANCH   4  22
HETATM   22  O   UNK     0     154.089 159.038 152.367  0.00  0.00    -0.385 OA
HETATM   23  H   UNK     0     154.277 159.214 153.305  0.00  0.00     0.210 HD
ENDBRANCH   4  22
BRANCH   8  24
HETATM   24  O   UNK     0     149.875 161.865 151.604  0.00  0.00    -0.360 OA
HETATM   25  H   UNK     0     149.082 162.408 151.482  0.00  0.00     0.217 HD
ENDBRANCH   8  24
BRANCH  11  26
HETATM   26  O   UNK     0     146.953 158.760 149.521  0.00  0.00    -0.361 OA
HETATM   27  H   UNK     0     146.616 159.574 149.107  0.00  0.00     0.217 HD
ENDBRANCH  11  26
TORSDOF 6
ENDMDL
MODEL 5
REMARK VINA RESULT:      -7.4      5.014      6.933
REMARK  6 active torsions:
REMARK  status: ('A' for Active; 'I' for Inactive)
REMARK    1  A    between atoms: O_2  and  C_9 
REMARK    2  A    between atoms: O_4  and  C_14 
REMARK    3  A    between atoms: O_5  and  C_19 
REMARK    4  A    between atoms: O_6  and  C_20 
REMARK    5  A    between atoms: O_7  and  C_22 
REMARK    6  A    between atoms: C_8  and  C_10 
ROOT
HETATM    1  O   UNK     0     154.615 157.388 148.571  0.00  0.00    -0.337 OA
HETATM    2  O   UNK     0     156.242 160.876 149.997  0.00  0.00    -0.289 OA
HETATM    3  C   UNK     0     155.321 157.425 149.822  0.00  0.00     0.198 C 
HETATM    4  C   UNK     0     155.159 158.780 150.510  0.00  0.00     0.227 C 
HETATM    5  C   UNK     0     155.691 159.859 149.592  0.00  0.00     0.196 C 
HETATM    6  C   UNK     0     155.474 159.632 148.150  0.00  0.00     0.079 A 
HETATM    7  C   UNK     0     154.933 158.416 147.725  0.00  0.00     0.089 A 
HETATM    8  C   UNK     0     155.777 160.633 147.222  0.00  0.00     0.085 A 
HETATM    9  C   UNK     0     154.663 158.215 146.370  0.00  0.00     0.074 A 
HETATM   10  C   UNK     0     155.523 160.419 145.868  0.00  0.00     0.074 A 
HETATM   11  C   UNK     0     154.962 159.214 145.443  0.00  0.00     0.071 A 
ENDROOT
BRANCH   3  12
HETATM   12  C   UNK     0     154.782 156.292 150.675  0.00  0.00    -0.023 A 
HETATM   13  C   UNK     0     155.552 155.149 150.877  0.00  0.00     0.049 A 
HETATM   14  C   UNK     0     155.057 154.106 151.661  0.00  0.00     0.099 A 
HETATM   15  C   UNK     0     153.793 154.211 152.241  0.00  0.00     0.098 A 
HETATM   16  C   UNK     0     153.023 155.357 152.038  0.00  0.00     0.040 A 
HETATM   17  C   UNK     0     153.519 156.398 151.253  0.00  0.00     0.013 A 
BRANCH  14  18
HETATM   18  O   UNK     0     155.817 152.993 151.854  0.00  0.00    -0.358 OA
HETATM   19  H   UNK     0     156.728 153.193 151.578  0.00  0.00     0.217 HD
ENDBRANCH  14  18
BRANCH  15  20
HETATM   20  O   UNK     0     153.298 153.200 153.010  0.00  0.00    -0.358 OA
HETATM   21  H   UNK     0     152.387 153.006 152.731  0.00  0.00     0.217 HD
ENDBRANCH  15  20
ENDBRANCH   3  12
BRANCH   4  22
HETATM   22  O   UNK     0     155.911 158.812 151.711  0.00  0.00    -0.385 OA
HETATM   23  H   UNK     0     155.285 158.917 152.447  0.00  0.00     0.210 HD
ENDBRANCH   4  22
BRANCH   8  24
HETATM   24  O   UNK     0     156.308 161.835 147.583  0.00  0.00    -0.360 OA
HETATM   25  H   UNK     0     157.259 161.859 147.397  0.00  0.00     0.217 HD
ENDBRANCH   8  24
BRANCH  11  26
HETATM   26  O   UNK     0     154.708 159.012 144.121  0.00  0.00    -0.361 OA
HETATM   27  H   UNK     0     154.186 158.197 144.020  0.00  0.00     0.217 HD
ENDBRANCH  11  26
TORSDOF 6
ENDMDL
MODEL 6
REMARK VINA RESULT:      -7.2      1.209      1.796
REMARK  6 active torsions:
REMARK  status: ('A' for Active; 'I' for Inactive)
REMARK    1  A    between atoms: O_2  and  C_9 
REMARK    2  A    between atoms: O_4  and  C_14 
REMARK    3  A    between atoms: O_5  and  C_19 
REMARK    4  A    between atoms: O_6  and  C_20 
REMARK    5  A    between atoms: O_7  and  C_22 
REMARK    6  A    between atoms: C_8  and  C_10 
ROOT
HETATM    1  O   UNK     0     149.963 157.174 150.553  0.00  0.00    -0.337 OA
HETATM    2  O   UNK     0     147.483 153.933 150.124  0.00  0.00    -0.289 OA
HETATM    3  C   UNK     0     150.247 155.927 151.206  0.00  0.00     0.198 C 
HETATM    4  C   UNK     0     149.742 154.742 150.381  0.00  0.00     0.227 C 
HETATM    5  C   UNK     0     148.249 154.888 150.186  0.00  0.00     0.196 C 
HETATM    6  C   UNK     0     147.758 156.271 150.032  0.00  0.00     0.079 A 
HETATM    7  C   UNK     0     148.648 157.333 150.209  0.00  0.00     0.089 A 
HETATM    8  C   UNK     0     146.427 156.515 149.685  0.00  0.00     0.085 A 
HETATM    9  C   UNK     0     148.211 158.643 150.003  0.00  0.00     0.074 A 
HETATM   10  C   UNK     0     145.992 157.827 149.500  0.00  0.00     0.074 A 
HETATM   11  C   UNK     0     146.882 158.889 149.653  0.00  0.00     0.071 A 
ENDROOT
BRANCH   3  12
HETATM   12  C   UNK     0     151.747 155.864 151.421  0.00  0.00    -0.023 A 
HETATM   13  C   UNK     0     152.610 155.979 150.334  0.00  0.00     0.049 A 
HETATM   14  C   UNK     0     153.990 155.921 150.531  0.00  0.00     0.099 A 
HETATM   15  C   UNK     0     154.503 155.747 151.816  0.00  0.00     0.098 A 
HETATM   16  C   UNK     0     153.638 155.632 152.904  0.00  0.00     0.040 A 
HETATM   17  C   UNK     0     152.259 155.690 152.706  0.00  0.00     0.013 A 
BRANCH  14  18
HETATM   18  O   UNK     0     154.826 156.036 149.462  0.00  0.00    -0.358 OA
HETATM   19  H   UNK     0     154.330 155.796 148.659  0.00  0.00     0.217 HD
ENDBRANCH  14  18
BRANCH  15  20
HETATM   20  O   UNK     0     155.849 155.690 152.022  0.00  0.00    -0.358 OA
HETATM   21  H   UNK     0     156.124 154.757 152.060  0.00  0.00     0.217 HD
ENDBRANCH  15  20
ENDBRANCH   3  12
BRANCH   4  22
HETATM   22  O   UNK     0     149.980 153.528 151.073  0.00  0.00    -0.385 OA
HETATM   23  H   UNK     0     149.390 152.855 150.695  0.00  0.00     0.210 HD
ENDBRANCH   4  22
BRANCH   8  24
HETATM   24  O   UNK     0     145.518 155.516 149.504  0.00  0.00    -0.360 OA
HETATM   25  H   UNK     0     144.675 155.874 149.186  0.00  0.00     0.217 HD
ENDBRANCH   8  24
BRANCH  11  26
HETATM   26  O   UNK     0     146.456 160.168 149.463  0.00  0.00    -0.361 OA
HETATM   27  H   UNK     0     145.494 160.161 149.318  0.00  0.00     0.217 HD
ENDBRANCH  11  26
TORSDOF 6
ENDMDL
MODEL 7
REMARK VINA RESULT:      -7.2      9.710     10.995
REMARK  6 active torsions:
REMARK  status: ('A' for Active; 'I' for Inactive)
REMARK    1  A    between atoms: O_2  and  C_9 
REMARK    2  A    between atoms: O_4  and  C_14 
REMARK    3  A    between atoms: O_5  and  C_19 
REMARK    4  A    between atoms: O_6  and  C_20 
REMARK    5  A    between atoms: O_7  and  C_22 
REMARK    6  A    between atoms: C_8  and  C_10 
ROOT
HETATM    1  O   UNK     0     149.682 149.656 143.292  0.00  0.00    -0.337 OA
HETATM    2  O   UNK     0     150.176 146.509 140.705  0.00  0.00    -0.289 OA
HETATM    3  C   UNK     0     150.739 148.701 143.473  0.00  0.00     0.198 C 
HETATM    4  C   UNK     0     151.224 148.149 142.132  0.00  0.00     0.227 C 
HETATM    5  C   UNK     0     150.058 147.492 141.427  0.00  0.00     0.196 C 
HETATM    6  C   UNK     0     148.745 148.136 141.630  0.00  0.00     0.079 A 
HETATM    7  C   UNK     0     148.638 149.191 142.539  0.00  0.00     0.089 A 
HETATM    8  C   UNK     0     147.630 147.715 140.901  0.00  0.00     0.085 A 
HETATM    9  C   UNK     0     147.417 149.850 142.692  0.00  0.00     0.074 A 
HETATM   10  C   UNK     0     146.408 148.365 141.073  0.00  0.00     0.074 A 
HETATM   11  C   UNK     0     146.302 149.434 141.963  0.00  0.00     0.071 A 
ENDROOT
BRANCH   3  12
HETATM   12  C   UNK     0     151.852 149.400 144.230  0.00  0.00    -0.023 A 
HETATM   13  C   UNK     0     152.518 150.476 143.646  0.00  0.00     0.049 A 
HETATM   14  C   UNK     0     153.542 151.120 144.341  0.00  0.00     0.099 A 
HETATM   15  C   UNK     0     153.899 150.685 145.617  0.00  0.00     0.098 A 
HETATM   16  C   UNK     0     153.231 149.608 146.200  0.00  0.00     0.040 A 
HETATM   17  C   UNK     0     152.207 148.965 145.505  0.00  0.00     0.013 A 
BRANCH  14  18
HETATM   18  O   UNK     0     154.187 152.171 143.763  0.00  0.00    -0.358 OA
HETATM   19  H   UNK     0     154.034 152.962 144.309  0.00  0.00     0.217 HD
ENDBRANCH  14  18
BRANCH  15  20
HETATM   20  O   UNK     0     154.897 151.307 146.307  0.00  0.00    -0.358 OA
HETATM   21  H   UNK     0     154.871 152.260 146.112  0.00  0.00     0.217 HD
ENDBRANCH  15  20
ENDBRANCH   3  12
BRANCH   4  22
HETATM   22  O   UNK     0     152.224 147.165 142.341  0.00  0.00    -0.385 OA
HETATM   23  H   UNK     0     151.813 146.427 142.821  0.00  0.00     0.210 HD
ENDBRANCH   4  22
BRANCH   8  24
HETATM   24  O   UNK     0     147.680 146.690 140.005  0.00  0.00    -0.360 OA
HETATM   25  H   UNK     0     146.788 146.440 139.720  0.00  0.00     0.217 HD
ENDBRANCH   8  24
BRANCH  11  26
HETATM   26  O   UNK     0     145.110 150.071 142.121  0.00  0.00    -0.361 OA
HETATM   27  H   UNK     0     144.468 149.702 141.490  0.00  0.00     0.217 HD
ENDBRANCH  11  26
TORSDOF 6
ENDMDL
MODEL 8
REMARK VINA RESULT:      -7.2      9.621     12.270
REMARK  6 active torsions:
REMARK  status: ('A' for Active; 'I' for Inactive)
REMARK    1  A    between atoms: O_2  and  C_9 
REMARK    2  A    between atoms: O_4  and  C_14 
REMARK    3  A    between atoms: O_5  and  C_19 
REMARK    4  A    between atoms: O_6  and  C_20 
REMARK    5  A    between atoms: O_7  and  C_22 
REMARK    6  A    between atoms: C_8  and  C_10 
ROOT
HETATM    1  O   UNK     0     149.800 149.197 142.631  0.00  0.00    -0.337 OA
HETATM    2  O   UNK     0     149.529 149.837 146.676  0.00  0.00    -0.289 OA
HETATM    3  C   UNK     0     148.962 148.376 143.461  0.00  0.00     0.198 C 
HETATM    4  C   UNK     0     148.408 149.170 144.645  0.00  0.00     0.227 C 
HETATM    5  C   UNK     0     149.567 149.703 145.459  0.00  0.00     0.196 C 
HETATM    6  C   UNK     0     150.760 150.098 144.684  0.00  0.00     0.079 A 
HETATM    7  C   UNK     0     150.800 149.836 143.313  0.00  0.00     0.089 A 
HETATM    8  C   UNK     0     151.824 150.753 145.310  0.00  0.00     0.085 A 
HETATM    9  C   UNK     0     151.895 150.263 142.559  0.00  0.00     0.074 A 
HETATM   10  C   UNK     0     152.924 151.159 144.555  0.00  0.00     0.074 A 
HETATM   11  C   UNK     0     152.958 150.919 143.181  0.00  0.00     0.071 A 
ENDROOT
BRANCH   3  12
HETATM   12  C   UNK     0     147.854 147.830 142.581  0.00  0.00    -0.023 A 
HETATM   13  C   UNK     0     147.560 146.469 142.602  0.00  0.00     0.049 A 
HETATM   14  C   UNK     0     146.540 145.965 141.792  0.00  0.00     0.099 A 
HETATM   15  C   UNK     0     145.820 146.825 140.964  0.00  0.00     0.098 A 
HETATM   16  C   UNK     0     146.116 148.189 140.946  0.00  0.00     0.040 A 
HETATM   17  C   UNK     0     147.135 148.691 141.755  0.00  0.00     0.013 A 
BRANCH  14  18
HETATM   18  O   UNK     0     146.259 144.633 141.819  0.00  0.00    -0.358 OA
HETATM   19  H   UNK     0     146.435 144.302 142.717  0.00  0.00     0.217 HD
ENDBRANCH  14  18
BRANCH  15  20
HETATM   20  O   UNK     0     144.821 146.346 140.170  0.00  0.00    -0.358 OA
HETATM   21  H   UNK     0     145.069 146.474 139.238  0.00  0.00     0.217 HD
ENDBRANCH  15  20
ENDBRANCH   3  12
BRANCH   4  22
HETATM   22  O   UNK     0     147.635 148.325 145.481  0.00  0.00    -0.385 OA
HETATM   23  H   UNK     0     146.990 148.884 145.947  0.00  0.00     0.210 HD
ENDBRANCH   4  22
BRANCH   8  24
HETATM   24  O   UNK     0     151.837 151.029 146.644  0.00  0.00    -0.360 OA
HETATM   25  H   UNK     0     151.323 151.828 146.834  0.00  0.00     0.217 HD
ENDBRANCH   8  24
BRANCH  11  26
HETATM   26  O   UNK     0     154.029 151.325 142.446  0.00  0.00    -0.361 OA
HETATM   27  H   UNK     0     153.819 152.176 142.024  0.00  0.00     0.217 HD
ENDBRANCH  11  26
TORSDOF 6
ENDMDL
MODEL 9
REMARK VINA RESULT:      -7.2      2.031      3.643
REMARK  6 active torsions:
REMARK  status: ('A' for Active; 'I' for Inactive)
REMARK    1  A    between atoms: O_2  and  C_9 
REMARK    2  A    between atoms: O_4  and  C_14 
REMARK    3  A    between atoms: O_5  and  C_19 
REMARK    4  A    between atoms: O_6  and  C_20 
REMARK    5  A    between atoms: O_7  and  C_22 
REMARK    6  A    between atoms: C_8  and  C_10 
ROOT
HETATM    1  O   UNK     0     150.089 157.085 150.719  0.00  0.00    -0.337 OA
HETATM    2  O   UNK     0     148.584 160.887 150.366  0.00  0.00    -0.289 OA
HETATM    3  C   UNK     0     150.954 158.212 150.507  0.00  0.00     0.198 C 
HETATM    4  C   UNK     0     150.382 159.477 151.147  0.00  0.00     0.227 C 
HETATM    5  C   UNK     0     149.022 159.756 150.543  0.00  0.00     0.196 C 
HETATM    6  C   UNK     0     148.219 158.565 150.204  0.00  0.00     0.079 A 
HETATM    7  C   UNK     0     148.794 157.298 150.327  0.00  0.00     0.089 A 
HETATM    8  C   UNK     0     146.891 158.700 149.794  0.00  0.00     0.085 A 
HETATM    9  C   UNK     0     148.025 156.161 150.072  0.00  0.00     0.074 A 
HETATM   10  C   UNK     0     146.133 157.562 149.522  0.00  0.00     0.074 A 
HETATM   11  C   UNK     0     146.697 156.294 149.665  0.00  0.00     0.071 A 
ENDROOT
BRANCH   3  12
HETATM   12  C   UNK     0     152.309 157.853 151.084  0.00  0.00    -0.023 A 
HETATM   13  C   UNK     0     152.394 157.272 152.347  0.00  0.00     0.049 A 
HETATM   14  C   UNK     0     153.641 156.941 152.880  0.00  0.00     0.099 A 
HETATM   15  C   UNK     0     154.800 157.194 152.147  0.00  0.00     0.098 A 
HETATM   16  C   UNK     0     154.713 157.776 150.882  0.00  0.00     0.040 A 
HETATM   17  C   UNK     0     153.467 158.106 150.351  0.00  0.00     0.013 A 
BRANCH  14  18
HETATM   18  O   UNK     0     153.713 156.372 154.115  0.00  0.00    -0.358 OA
HETATM   19  H   UNK     0     152.905 155.850 154.259  0.00  0.00     0.217 HD
ENDBRANCH  14  18
BRANCH  15  20
HETATM   20  O   UNK     0     156.024 156.875 152.655  0.00  0.00    -0.358 OA
HETATM   21  H   UNK     0     155.910 156.517 153.552  0.00  0.00     0.217 HD
ENDBRANCH  15  20
ENDBRANCH   3  12
BRANCH   4  22
HETATM   22  O   UNK     0     151.221 160.586 150.874  0.00  0.00    -0.385 OA
HETATM   23  H   UNK     0     151.043 161.263 151.549  0.00  0.00     0.210 HD
ENDBRANCH   4  22
BRANCH   8  24
HETATM   24  O   UNK     0     146.283 159.912 149.654  0.00  0.00    -0.360 OA
HETATM   25  H   UNK     0     146.894 160.560 149.272  0.00  0.00     0.217 HD
ENDBRANCH   8  24
BRANCH  11  26
HETATM   26  O   UNK     0     145.951 155.185 149.406  0.00  0.00    -0.361 OA
HETATM   27  H   UNK     0     145.377 155.005 150.170  0.00  0.00     0.217 HD
ENDBRANCH  11  26
TORSDOF 6
ENDMDL
MODEL 10
REMARK VINA RESULT:      -7.1      4.962      6.690
REMARK  6 active torsions:
REMARK  status: ('A' for Active; 'I' for Inactive)
REMARK    1  A    between atoms: O_2  and  C_9 
REMARK    2  A    between atoms: O_4  and  C_14 
REMARK    3  A    between atoms: O_5  and  C_19 
REMARK    4  A    between atoms: O_6  and  C_20 
REMARK    5  A    between atoms: O_7  and  C_22 
REMARK    6  A    between atoms: C_8  and  C_10 
ROOT
HETATM    1  O   UNK     0     153.655 153.001 146.865  0.00  0.00    -0.337 OA
HETATM    2  O   UNK     0     150.041 151.128 147.390  0.00  0.00    -0.289 OA
HETATM    3  C   UNK     0     152.705 153.474 147.832  0.00  0.00     0.198 C 
HETATM    4  C   UNK     0     151.878 152.322 148.405  0.00  0.00     0.227 C 
HETATM    5  C   UNK     0     151.151 151.633 147.270  0.00  0.00     0.196 C 
HETATM    6  C   UNK     0     151.885 151.569 145.991  0.00  0.00     0.079 A 
HETATM    7  C   UNK     0     153.102 152.243 145.868  0.00  0.00     0.089 A 
HETATM    8  C   UNK     0     151.383 150.818 144.924  0.00  0.00     0.085 A 
HETATM    9  C   UNK     0     153.835 152.136 144.685  0.00  0.00     0.074 A 
HETATM   10  C   UNK     0     152.111 150.731 143.738  0.00  0.00     0.074 A 
HETATM   11  C   UNK     0     153.338 151.384 143.620  0.00  0.00     0.071 A 
ENDROOT
BRANCH   3  12
HETATM   12  C   UNK     0     153.485 154.198 148.912  0.00  0.00    -0.023 A 
HETATM   13  C   UNK     0     154.242 153.469 149.827  0.00  0.00     0.049 A 
HETATM   14  C   UNK     0     154.961 154.134 150.822  0.00  0.00     0.099 A 
HETATM   15  C   UNK     0     154.918 155.526 150.899  0.00  0.00     0.098 A 
HETATM   16  C   UNK     0     154.160 156.254 149.981  0.00  0.00     0.040 A 
HETATM   17  C   UNK     0     153.442 155.588 148.988  0.00  0.00     0.013 A 
BRANCH  14  18
HETATM   18  O   UNK     0     155.698 153.414 151.711  0.00  0.00    -0.358 OA
HETATM   19  H   UNK     0     155.858 152.532 151.333  0.00  0.00     0.217 HD
ENDBRANCH  14  18
BRANCH  15  20
HETATM   20  O   UNK     0     155.616 156.188 151.865  0.00  0.00    -0.358 OA
HETATM   21  H   UNK     0     155.308 155.890 152.738  0.00  0.00     0.217 HD
ENDBRANCH  15  20
ENDBRANCH   3  12
BRANCH   4  22
HETATM   22  O   UNK     0     150.908 152.820 149.311  0.00  0.00    -0.385 OA
HETATM   23  H   UNK     0     150.357 153.459 148.829  0.00  0.00     0.210 HD
ENDBRANCH   4  22
BRANCH   8  24
HETATM   24  O   UNK     0     150.200 150.144 144.990  0.00  0.00    -0.360 OA
HETATM   25  H   UNK     0     149.475 150.693 144.656  0.00  0.00     0.217 HD
ENDBRANCH   8  24
BRANCH  11  26
HETATM   26  O   UNK     0     154.050 151.290 142.464  0.00  0.00    -0.361 OA
HETATM   27  H   UNK     0     154.554 150.458 142.470  0.00  0.00     0.217 HD
ENDBRANCH  11  26
TORSDOF 6
ENDMDL
