MODEL 1
REMARK VINA RESULT:    -6.340      0.000      0.000
REMARK INTER + INTRA:          -7.492
REMARK INTER:                  -7.439
REMARK INTRA:                  -0.053
REMARK UNBOUND:                -0.040
REMARK  Name = 8742
REMARK  5 active torsions:
REMARK  status: ('A' for Active; 'I' for Inactive)
REMARK    1  A    between atoms: O_1  and  C_6
REMARK    2  A    between atoms: O_2  and  C_7
REMARK    3  A    between atoms: O_3  and  C_8
REMARK    4  A    between atoms: O_4  and  C_12
REMARK    5  A    between atoms: C_10  and  C_12
REMARK                            x       y       z     vdW  Elec       q    Type
REMARK                         _______ _______ _______ _____ _____    ______ ____
ROOT
ATOM      1  C   UNL     1      90.165  14.851  44.431  0.00  0.00    +0.000 C 
ATOM      2  C   UNL     1      90.476  15.384  43.030  0.00  0.00    +0.000 C 
ATOM      3  C   UNL     1      91.092  15.480  45.486  0.00  0.00    +0.000 C 
ATOM      4  C   UNL     1      90.370  16.918  42.968  0.00  0.00    +0.000 C 
ATOM      5  C   UNL     1      90.912  17.600  44.192  0.00  0.00    +0.000 C 
ATOM      6  C   UNL     1      91.247  16.965  45.326  0.00  0.00    +0.000 C 
ENDROOT
BRANCH   1   7
ATOM      7  O   UNL     1      88.800  15.143  44.730  0.00  0.00    +0.000 OA
ATOM      8  H   UNL     1      88.787  15.668  45.548  0.00  0.00    +0.000 HD
ENDBRANCH   1   7
BRANCH   2   9
ATOM      9  O   UNL     1      91.789  14.973  42.659  0.00  0.00    +0.000 OA
ATOM     10  H   UNL     1      92.050  14.250  43.255  0.00  0.00    +0.000 HD
ENDBRANCH   2   9
BRANCH   3  11
ATOM     11  O   UNL     1      90.600  15.200  46.793  0.00  0.00    +0.000 OA
ATOM     12  H   UNL     1      90.061  15.960  47.072  0.00  0.00    +0.000 HD
ENDBRANCH   3  11
BRANCH   5  14
ATOM     13  O   UNL     1      91.105  19.716  43.125  0.00  0.00    +0.000 OA
ATOM     14  C   UNL     1      91.108  19.053  44.146  0.00  0.00    +0.000 C 
BRANCH  14  15
ATOM     15  O   UNL     1      91.288  19.525  45.396  0.00  0.00    +0.000 OA
ATOM     16  H   UNL     1      91.252  20.504  45.430  0.00  0.00    +0.000 HD
ENDBRANCH  14  15
ENDBRANCH   5  14
TORSDOF 5
ENDMDL
MODEL 2
REMARK VINA RESULT:    -6.337      1.604      2.049
REMARK INTER + INTRA:          -7.489
REMARK INTER:                  -7.451
REMARK INTRA:                  -0.038
REMARK UNBOUND:                -0.040
REMARK  Name = 8742
REMARK  5 active torsions:
REMARK  status: ('A' for Active; 'I' for Inactive)
REMARK    1  A    between atoms: O_1  and  C_6
REMARK    2  A    between atoms: O_2  and  C_7
REMARK    3  A    between atoms: O_3  and  C_8
REMARK    4  A    between atoms: O_4  and  C_12
REMARK    5  A    between atoms: C_10  and  C_12
REMARK                            x       y       z     vdW  Elec       q    Type
REMARK                         _______ _______ _______ _____ _____    ______ ____
ROOT
ATOM      1  C   UNL     1      91.988  14.844  43.832  0.00  0.00    +0.000 C 
ATOM      2  C   UNL     1      90.628  15.318  43.313  0.00  0.00    +0.000 C 
ATOM      3  C   UNL     1      93.099  15.852  43.488  0.00  0.00    +0.000 C 
ATOM      4  C   UNL     1      90.260  16.707  43.864  0.00  0.00    +0.000 C 
ATOM      5  C   UNL     1      91.430  17.646  43.933  0.00  0.00    +0.000 C 
ATOM      6  C   UNL     1      92.708  17.276  43.759  0.00  0.00    +0.000 C 
ENDROOT
BRANCH   1   7
ATOM      7  O   UNL     1      91.894  14.671  45.247  0.00  0.00    +0.000 OA
ATOM      8  H   UNL     1      91.234  13.976  45.411  0.00  0.00    +0.000 HD
ENDBRANCH   1   7
BRANCH   2   9
ATOM      9  O   UNL     1      90.663  15.354  41.889  0.00  0.00    +0.000 OA
ATOM     10  H   UNL     1      91.068  14.525  41.583  0.00  0.00    +0.000 HD
ENDBRANCH   2   9
BRANCH   3  11
ATOM     11  O   UNL     1      94.280  15.543  44.221  0.00  0.00    +0.000 OA
ATOM     12  H   UNL     1      94.129  14.696  44.674  0.00  0.00    +0.000 HD
ENDBRANCH   3  11
BRANCH   5  14
ATOM     13  O   UNL     1      91.004  19.904  43.322  0.00  0.00    +0.000 OA
ATOM     14  C   UNL     1      91.165  19.065  44.190  0.00  0.00    +0.000 C 
BRANCH  14  15
ATOM     15  O   UNL     1      91.129  19.285  45.520  0.00  0.00    +0.000 OA
ATOM     16  H   UNL     1      90.351  18.862  45.943  0.00  0.00    +0.000 HD
ENDBRANCH  14  15
ENDBRANCH   5  14
TORSDOF 5
ENDMDL
MODEL 3
REMARK VINA RESULT:    -6.104     15.160     16.983
REMARK INTER + INTRA:          -7.215
REMARK INTER:                  -7.162
REMARK INTRA:                  -0.052
REMARK UNBOUND:                -0.040
REMARK  Name = 8742
REMARK  5 active torsions:
REMARK  status: ('A' for Active; 'I' for Inactive)
REMARK    1  A    between atoms: O_1  and  C_6
REMARK    2  A    between atoms: O_2  and  C_7
REMARK    3  A    between atoms: O_3  and  C_8
REMARK    4  A    between atoms: O_4  and  C_12
REMARK    5  A    between atoms: C_10  and  C_12
REMARK                            x       y       z     vdW  Elec       q    Type
REMARK                         _______ _______ _______ _____ _____    ______ ____
ROOT
ATOM      1  C   UNL     1      85.020  13.071  30.305  0.00  0.00    +0.000 C 
ATOM      2  C   UNL     1      84.441  12.848  28.905  0.00  0.00    +0.000 C 
ATOM      3  C   UNL     1      85.628  11.775  30.870  0.00  0.00    +0.000 C 
ATOM      4  C   UNL     1      85.499  12.301  27.931  0.00  0.00    +0.000 C 
ATOM      5  C   UNL     1      86.416  11.289  28.558  0.00  0.00    +0.000 C 
ATOM      6  C   UNL     1      86.478  11.038  29.875  0.00  0.00    +0.000 C 
ENDROOT
BRANCH   1   7
ATOM      7  O   UNL     1      86.014  14.093  30.222  0.00  0.00    +0.000 OA
ATOM      8  H   UNL     1      86.818  13.752  30.649  0.00  0.00    +0.000 HD
ENDBRANCH   1   7
BRANCH   2   9
ATOM      9  O   UNL     1      83.348  11.937  28.997  0.00  0.00    +0.000 OA
ATOM     10  H   UNL     1      83.061  11.914  29.925  0.00  0.00    +0.000 HD
ENDBRANCH   2   9
BRANCH   3  11
ATOM     11  O   UNL     1      86.409  12.068  32.025  0.00  0.00    +0.000 OA
ATOM     12  H   UNL     1      86.328  13.022  32.198  0.00  0.00    +0.000 HD
ENDBRANCH   3  11
BRANCH   5  14
ATOM     13  O   UNL     1      87.104  10.351  26.485  0.00  0.00    +0.000 OA
ATOM     14  C   UNL     1      87.290  10.507  27.678  0.00  0.00    +0.000 C 
BRANCH  14  15
ATOM     15  O   UNL     1      88.314   9.998  28.393  0.00  0.00    +0.000 OA
ATOM     16  H   UNL     1      89.147  10.496  28.251  0.00  0.00    +0.000 HD
ENDBRANCH  14  15
ENDBRANCH   5  14
TORSDOF 5
ENDMDL
MODEL 4
REMARK VINA RESULT:    -6.053      1.293      2.405
REMARK INTER + INTRA:          -7.155
REMARK INTER:                  -7.114
REMARK INTRA:                  -0.041
REMARK UNBOUND:                -0.040
REMARK  Name = 8742
REMARK  5 active torsions:
REMARK  status: ('A' for Active; 'I' for Inactive)
REMARK    1  A    between atoms: O_1  and  C_6
REMARK    2  A    between atoms: O_2  and  C_7
REMARK    3  A    between atoms: O_3  and  C_8
REMARK    4  A    between atoms: O_4  and  C_12
REMARK    5  A    between atoms: C_10  and  C_12
REMARK                            x       y       z     vdW  Elec       q    Type
REMARK                         _______ _______ _______ _____ _____    ______ ____
ROOT
ATOM      1  C   UNL     1      91.155  14.947  43.082  0.00  0.00    +0.000 C 
ATOM      2  C   UNL     1      92.275  15.388  44.028  0.00  0.00    +0.000 C 
ATOM      3  C   UNL     1      89.828  15.647  43.423  0.00  0.00    +0.000 C 
ATOM      4  C   UNL     1      92.470  16.915  44.007  0.00  0.00    +0.000 C 
ATOM      5  C   UNL     1      91.178  17.677  43.931  0.00  0.00    +0.000 C 
ATOM      6  C   UNL     1      89.985  17.119  43.677  0.00  0.00    +0.000 C 
ENDROOT
BRANCH   1   7
ATOM      7  O   UNL     1      91.551  15.253  41.744  0.00  0.00    +0.000 OA
ATOM      8  H   UNL     1      92.479  15.540  41.774  0.00  0.00    +0.000 HD
ENDBRANCH   1   7
BRANCH   2   9
ATOM      9  O   UNL     1      91.960  14.957  45.350  0.00  0.00    +0.000 OA
ATOM     10  H   UNL     1      91.217  15.498  45.667  0.00  0.00    +0.000 HD
ENDBRANCH   2   9
BRANCH   3  11
ATOM     11  O   UNL     1      88.891  15.451  42.368  0.00  0.00    +0.000 OA
ATOM     12  H   UNL     1      88.137  14.957  42.735  0.00  0.00    +0.000 HD
ENDBRANCH   3  11
BRANCH   5  14
ATOM     13  O   UNL     1      91.265  19.964  43.286  0.00  0.00    +0.000 OA
ATOM     14  C   UNL     1      91.212  19.124  44.166  0.00  0.00    +0.000 C 
BRANCH  14  15
ATOM     15  O   UNL     1      91.178  19.367  45.492  0.00  0.00    +0.000 OA
ATOM     16  H   UNL     1      91.817  18.811  45.986  0.00  0.00    +0.000 HD
ENDBRANCH  14  15
ENDBRANCH   5  14
TORSDOF 5
ENDMDL
MODEL 5
REMARK VINA RESULT:    -5.870     15.205     17.083
REMARK INTER + INTRA:          -6.939
REMARK INTER:                  -6.888
REMARK INTRA:                  -0.051
REMARK UNBOUND:                -0.040
REMARK  Name = 8742
REMARK  5 active torsions:
REMARK  status: ('A' for Active; 'I' for Inactive)
REMARK    1  A    between atoms: O_1  and  C_6
REMARK    2  A    between atoms: O_2  and  C_7
REMARK    3  A    between atoms: O_3  and  C_8
REMARK    4  A    between atoms: O_4  and  C_12
REMARK    5  A    between atoms: C_10  and  C_12
REMARK                            x       y       z     vdW  Elec       q    Type
REMARK                         _______ _______ _______ _____ _____    ______ ____
ROOT
ATOM      1  C   UNL     1      84.666  12.896  30.377  0.00  0.00    +0.000 C 
ATOM      2  C   UNL     1      86.093  12.653  30.877  0.00  0.00    +0.000 C 
ATOM      3  C   UNL     1      84.644  13.167  28.862  0.00  0.00    +0.000 C 
ATOM      4  C   UNL     1      86.769  11.490  30.130  0.00  0.00    +0.000 C 
ATOM      5  C   UNL     1      86.451  11.464  28.662  0.00  0.00    +0.000 C 
ATOM      6  C   UNL     1      85.505  12.217  28.080  0.00  0.00    +0.000 C 
ENDROOT
BRANCH   1   7
ATOM      7  O   UNL     1      83.879  11.745  30.687  0.00  0.00    +0.000 OA
ATOM      8  H   UNL     1      83.534  11.393  29.849  0.00  0.00    +0.000 HD
ENDBRANCH   1   7
BRANCH   2   9
ATOM      9  O   UNL     1      86.851  13.847  30.707  0.00  0.00    +0.000 OA
ATOM     10  H   UNL     1      86.237  14.598  30.772  0.00  0.00    +0.000 HD
ENDBRANCH   2   9
BRANCH   3  11
ATOM     11  O   UNL     1      83.308  13.098  28.375  0.00  0.00    +0.000 OA
ATOM     12  H   UNL     1      83.120  13.936  27.919  0.00  0.00    +0.000 HD
ENDBRANCH   3  11
BRANCH   5  14
ATOM     13  O   UNL     1      86.956  10.317  26.642  0.00  0.00    +0.000 OA
ATOM     14  C   UNL     1      87.233  10.573  27.799  0.00  0.00    +0.000 C 
BRANCH  14  15
ATOM     15  O   UNL     1      88.289  10.091  28.486  0.00  0.00    +0.000 OA
ATOM     16  H   UNL     1      88.989   9.746  27.892  0.00  0.00    +0.000 HD
ENDBRANCH  14  15
ENDBRANCH   5  14
TORSDOF 5
ENDMDL
MODEL 6
REMARK VINA RESULT:    -5.823      1.968      3.958
REMARK INTER + INTRA:          -6.884
REMARK INTER:                  -6.839
REMARK INTRA:                  -0.045
REMARK UNBOUND:                -0.040
REMARK  Name = 8742
REMARK  5 active torsions:
REMARK  status: ('A' for Active; 'I' for Inactive)
REMARK    1  A    between atoms: O_1  and  C_6
REMARK    2  A    between atoms: O_2  and  C_7
REMARK    3  A    between atoms: O_3  and  C_8
REMARK    4  A    between atoms: O_4  and  C_12
REMARK    5  A    between atoms: C_10  and  C_12
REMARK                            x       y       z     vdW  Elec       q    Type
REMARK                         _______ _______ _______ _____ _____    ______ ____
ROOT
ATOM      1  C   UNL     1      92.449  16.787  44.673  0.00  0.00    +0.000 C 
ATOM      2  C   UNL     1      90.930  16.835  44.857  0.00  0.00    +0.000 C 
ATOM      3  C   UNL     1      92.883  15.503  43.945  0.00  0.00    +0.000 C 
ATOM      4  C   UNL     1      90.189  16.722  43.513  0.00  0.00    +0.000 C 
ATOM      5  C   UNL     1      90.823  15.742  42.567  0.00  0.00    +0.000 C 
ATOM      6  C   UNL     1      92.027  15.182  42.753  0.00  0.00    +0.000 C 
ENDROOT
BRANCH   1   7
ATOM      7  O   UNL     1      92.848  17.940  43.931  0.00  0.00    +0.000 OA
ATOM      8  H   UNL     1      92.495  17.843  43.030  0.00  0.00    +0.000 HD
ENDBRANCH   1   7
BRANCH   2   9
ATOM      9  O   UNL     1      90.535  15.771  45.719  0.00  0.00    +0.000 OA
ATOM     10  H   UNL     1      89.566  15.707  45.683  0.00  0.00    +0.000 HD
ENDBRANCH   2   9
BRANCH   3  11
ATOM     11  O   UNL     1      94.241  15.616  43.529  0.00  0.00    +0.000 OA
ATOM     12  H   UNL     1      94.502  16.547  43.633  0.00  0.00    +0.000 HD
ENDBRANCH   3  11
BRANCH   5  14
ATOM     13  O   UNL     1      90.503  15.430  40.231  0.00  0.00    +0.000 OA
ATOM     14  C   UNL     1      90.073  15.353  41.368  0.00  0.00    +0.000 C 
BRANCH  14  15
ATOM     15  O   UNL     1      88.852  14.905  41.724  0.00  0.00    +0.000 OA
ATOM     16  H   UNL     1      88.873  14.410  42.571  0.00  0.00    +0.000 HD
ENDBRANCH  14  15
ENDBRANCH   5  14
TORSDOF 5
ENDMDL
MODEL 7
REMARK VINA RESULT:    -5.769      2.037      3.755
REMARK INTER + INTRA:          -6.820
REMARK INTER:                  -6.781
REMARK INTRA:                  -0.039
REMARK UNBOUND:                -0.040
REMARK  Name = 8742
REMARK  5 active torsions:
REMARK  status: ('A' for Active; 'I' for Inactive)
REMARK    1  A    between atoms: O_1  and  C_6
REMARK    2  A    between atoms: O_2  and  C_7
REMARK    3  A    between atoms: O_3  and  C_8
REMARK    4  A    between atoms: O_4  and  C_12
REMARK    5  A    between atoms: C_10  and  C_12
REMARK                            x       y       z     vdW  Elec       q    Type
REMARK                         _______ _______ _______ _____ _____    ______ ____
ROOT
ATOM      1  C   UNL     1      89.773  16.308  43.664  0.00  0.00    +0.000 C 
ATOM      2  C   UNL     1      90.064  14.912  44.221  0.00  0.00    +0.000 C 
ATOM      3  C   UNL     1      90.818  17.330  44.147  0.00  0.00    +0.000 C 
ATOM      4  C   UNL     1      91.476  14.431  43.844  0.00  0.00    +0.000 C 
ATOM      5  C   UNL     1      92.510  15.519  43.910  0.00  0.00    +0.000 C 
ATOM      6  C   UNL     1      92.228  16.822  44.053  0.00  0.00    +0.000 C 
ENDROOT
BRANCH   1   7
ATOM      7  O   UNL     1      89.773  16.233  42.238  0.00  0.00    +0.000 OA
ATOM      8  H   UNL     1      89.378  17.055  41.903  0.00  0.00    +0.000 HD
ENDBRANCH   1   7
BRANCH   2   9
ATOM      9  O   UNL     1      89.922  14.941  45.638  0.00  0.00    +0.000 OA
ATOM     10  H   UNL     1      90.302  15.778  45.956  0.00  0.00    +0.000 HD
ENDBRANCH   2   9
BRANCH   3  11
ATOM     11  O   UNL     1      90.703  18.535  43.396  0.00  0.00    +0.000 OA
ATOM     12  H   UNL     1      90.027  18.389  42.712  0.00  0.00    +0.000 HD
ENDBRANCH   3  11
BRANCH   5  14
ATOM     13  O   UNL     1      94.566  14.675  44.756  0.00  0.00    +0.000 OA
ATOM     14  C   UNL     1      93.924  15.136  43.830  0.00  0.00    +0.000 C 
BRANCH  14  15
ATOM     15  O   UNL     1      94.387  15.375  42.586  0.00  0.00    +0.000 OA
ATOM     16  H   UNL     1      95.244  14.928  42.420  0.00  0.00    +0.000 HD
ENDBRANCH  14  15
ENDBRANCH   5  14
TORSDOF 5
ENDMDL
MODEL 8
REMARK VINA RESULT:    -5.662     31.290     32.449
REMARK INTER + INTRA:          -6.695
REMARK INTER:                  -6.656
REMARK INTRA:                  -0.039
REMARK UNBOUND:                -0.040
REMARK  Name = 8742
REMARK  5 active torsions:
REMARK  status: ('A' for Active; 'I' for Inactive)
REMARK    1  A    between atoms: O_1  and  C_6
REMARK    2  A    between atoms: O_2  and  C_7
REMARK    3  A    between atoms: O_3  and  C_8
REMARK    4  A    between atoms: O_4  and  C_12
REMARK    5  A    between atoms: C_10  and  C_12
REMARK                            x       y       z     vdW  Elec       q    Type
REMARK                         _______ _______ _______ _____ _____    ______ ____
ROOT
ATOM      1  C   UNL     1      78.262   8.165  15.811  0.00  0.00    +0.000 C 
ATOM      2  C   UNL     1      78.825   6.872  16.406  0.00  0.00    +0.000 C 
ATOM      3  C   UNL     1      76.790   7.993  15.393  0.00  0.00    +0.000 C 
ATOM      4  C   UNL     1      77.995   6.388  17.608  0.00  0.00    +0.000 C 
ATOM      5  C   UNL     1      76.516   6.571  17.419  0.00  0.00    +0.000 C 
ATOM      6  C   UNL     1      75.963   7.283  16.426  0.00  0.00    +0.000 C 
ENDROOT
BRANCH   1   7
ATOM      7  O   UNL     1      78.384   9.199  16.789  0.00  0.00    +0.000 OA
ATOM      8  H   UNL     1      79.315   9.230  17.065  0.00  0.00    +0.000 HD
ENDBRANCH   1   7
BRANCH   2   9
ATOM      9  O   UNL     1      78.845   5.868  15.394  0.00  0.00    +0.000 OA
ATOM     10  H   UNL     1      79.060   5.022  15.822  0.00  0.00    +0.000 HD
ENDBRANCH   2   9
BRANCH   3  11
ATOM     11  O   UNL     1      76.210   9.265  15.123  0.00  0.00    +0.000 OA
ATOM     12  H   UNL     1      76.534   9.884  15.799  0.00  0.00    +0.000 HD
ENDBRANCH   3  11
BRANCH   5  14
ATOM     13  O   UNL     1      75.231   4.764  18.278  0.00  0.00    +0.000 OA
ATOM     14  C   UNL     1      75.611   5.917  18.370  0.00  0.00    +0.000 C 
BRANCH  14  15
ATOM     15  O   UNL     1      75.274   6.786  19.345  0.00  0.00    +0.000 OA
ATOM     16  H   UNL     1      74.302   6.870  19.444  0.00  0.00    +0.000 HD
ENDBRANCH  14  15
ENDBRANCH   5  14
TORSDOF 5
ENDMDL
MODEL 9
REMARK VINA RESULT:    -5.558     16.717     17.781
REMARK INTER + INTRA:          -6.573
REMARK INTER:                  -6.534
REMARK INTRA:                  -0.040
REMARK UNBOUND:                -0.040
REMARK  Name = 8742
REMARK  5 active torsions:
REMARK  status: ('A' for Active; 'I' for Inactive)
REMARK    1  A    between atoms: O_1  and  C_6
REMARK    2  A    between atoms: O_2  and  C_7
REMARK    3  A    between atoms: O_3  and  C_8
REMARK    4  A    between atoms: O_4  and  C_12
REMARK    5  A    between atoms: C_10  and  C_12
REMARK                            x       y       z     vdW  Elec       q    Type
REMARK                         _______ _______ _______ _____ _____    ______ ____
ROOT
ATOM      1  C   UNL     1      81.792  15.211  29.016  0.00  0.00    +0.000 C 
ATOM      2  C   UNL     1      81.766  14.038  30.000  0.00  0.00    +0.000 C 
ATOM      3  C   UNL     1      83.227  15.721  28.792  0.00  0.00    +0.000 C 
ATOM      4  C   UNL     1      82.663  12.880  29.529  0.00  0.00    +0.000 C 
ATOM      5  C   UNL     1      83.953  13.341  28.912  0.00  0.00    +0.000 C 
ATOM      6  C   UNL     1      84.221  14.614  28.583  0.00  0.00    +0.000 C 
ENDROOT
BRANCH   1   7
ATOM      7  O   UNL     1      81.221  14.775  27.782  0.00  0.00    +0.000 OA
ATOM      8  H   UNL     1      81.757  15.153  27.064  0.00  0.00    +0.000 HD
ENDBRANCH   1   7
BRANCH   2   9
ATOM      9  O   UNL     1      82.197  14.497  31.278  0.00  0.00    +0.000 OA
ATOM     10  H   UNL     1      81.998  13.799  31.925  0.00  0.00    +0.000 HD
ENDBRANCH   2   9
BRANCH   3  11
ATOM     11  O   UNL     1      83.262  16.599  27.672  0.00  0.00    +0.000 OA
ATOM     12  H   UNL     1      83.973  17.244  27.829  0.00  0.00    +0.000 HD
ENDBRANCH   3  11
BRANCH   5  14
ATOM     13  O   UNL     1      85.723  11.877  29.525  0.00  0.00    +0.000 OA
ATOM     14  C   UNL     1      84.998  12.343  28.664  0.00  0.00    +0.000 C 
BRANCH  14  15
ATOM     15  O   UNL     1      85.025  12.032  27.353  0.00  0.00    +0.000 OA
ATOM     16  H   UNL     1      85.771  11.435  27.130  0.00  0.00    +0.000 HD
ENDBRANCH  14  15
ENDBRANCH   5  14
TORSDOF 5
ENDMDL
MODEL 10
REMARK VINA RESULT:    -5.486     31.611     32.929
REMARK INTER + INTRA:          -6.488
REMARK INTER:                  -6.448
REMARK INTRA:                  -0.040
REMARK UNBOUND:                -0.040
REMARK  Name = 8742
REMARK  5 active torsions:
REMARK  status: ('A' for Active; 'I' for Inactive)
REMARK    1  A    between atoms: O_1  and  C_6
REMARK    2  A    between atoms: O_2  and  C_7
REMARK    3  A    between atoms: O_3  and  C_8
REMARK    4  A    between atoms: O_4  and  C_12
REMARK    5  A    between atoms: C_10  and  C_12
REMARK                            x       y       z     vdW  Elec       q    Type
REMARK                         _______ _______ _______ _____ _____    ______ ____
ROOT
ATOM      1  C   UNL     1      74.858   5.649  16.920  0.00  0.00    +0.000 C 
ATOM      2  C   UNL     1      75.945   5.751  17.994  0.00  0.00    +0.000 C 
ATOM      3  C   UNL     1      74.611   7.011  16.246  0.00  0.00    +0.000 C 
ATOM      4  C   UNL     1      77.264   6.295  17.420  0.00  0.00    +0.000 C 
ATOM      5  C   UNL     1      77.065   7.396  16.416  0.00  0.00    +0.000 C 
ATOM      6  C   UNL     1      75.879   7.731  15.888  0.00  0.00    +0.000 C 
ENDROOT
BRANCH   1   7
ATOM      7  O   UNL     1      75.271   4.683  15.953  0.00  0.00    +0.000 OA
ATOM      8  H   UNL     1      74.555   4.031  15.870  0.00  0.00    +0.000 HD
ENDBRANCH   1   7
BRANCH   2   9
ATOM      9  O   UNL     1      75.483   6.601  19.040  0.00  0.00    +0.000 OA
ATOM     10  H   UNL     1      74.514   6.649  18.975  0.00  0.00    +0.000 HD
ENDBRANCH   2   9
BRANCH   3  11
ATOM     11  O   UNL     1      73.824   6.836  15.072  0.00  0.00    +0.000 OA
ATOM     12  H   UNL     1      73.280   6.040  15.201  0.00  0.00    +0.000 HD
ENDBRANCH   3  11
BRANCH   5  14
ATOM     13  O   UNL     1      78.966   7.867  15.067  0.00  0.00    +0.000 OA
ATOM     14  C   UNL     1      78.238   8.169  15.996  0.00  0.00    +0.000 C 
BRANCH  14  15
ATOM     15  O   UNL     1      78.376   9.250  16.790  0.00  0.00    +0.000 OA
ATOM     16  H   UNL     1      79.019   9.096  17.514  0.00  0.00    +0.000 HD
ENDBRANCH  14  15
ENDBRANCH   5  14
TORSDOF 5
ENDMDL
