REMARK VINA RESULT:      -5.5      3.074      5.103
REMARK  Name = 2162
REMARK  14 active torsions:
REMARK  status: ('A' for Active; 'I' for Inactive)
REMARK    1  A    between atoms: O_2  and  C_15
REMARK    2  A    between atoms: O_2  and  C_24
REMARK    3  A    between atoms: O_3  and  C_16
REMARK    4  A    between atoms: O_3  and  C_25
REMARK    5  A    between atoms: O_4  and  C_18
REMARK    6  A    between atoms: O_4  and  C_27
REMARK    7  A    between atoms: N_8  and  C_26
REMARK    8  A    between atoms: C_9  and  C_14
REMARK    9  A    between atoms: C_10  and  C_16
REMARK   10  A    between atoms: C_11  and  C_18
REMARK   11  A    between atoms: C_12  and  C_15
REMARK   12  A    between atoms: C_13  and  C_17
REMARK   13  A    between atoms: C_24  and  C_26
REMARK   14  A    between atoms: C_25  and  C_28
REMARK                            x       y       z     vdW  Elec       q    Type
REMARK                         _______ _______ _______ _____ _____    ______ ____
ROOT
ATOM      1  C   UNL     1     179.120 176.273 171.545  0.00  0.00    +0.097 C 
ATOM      2  C   UNL     1     179.392 175.602 172.895  0.00  0.00    +0.065 C 
ATOM      3  C   UNL     1     180.308 176.102 173.754  0.00  0.00    +0.016 C 
ATOM      4  C   UNL     1     180.615 175.553 175.121  0.00  0.00    +0.061 C 
ATOM      5  N   UNL     1     181.057 177.209 173.387  0.00  0.00    -0.319 N 
ATOM      6  H   UNL     1     181.728 177.562 174.060  0.00  0.00    +0.152 HD
ATOM      7  C   UNL     1     181.010 177.819 172.144  0.00  0.00    +0.045 C 
ATOM      8  C   UNL     1     180.112 177.397 171.226  0.00  0.00    +0.068 C 
ENDROOT
BRANCH   1  15
ATOM      9 CL   UNL     1     177.220 175.213 169.355  0.00  0.00    -0.083 Cl
ATOM     10  C   UNL     1     176.794 176.378 170.554  0.00  0.00    +0.045 A 
ATOM     11  C   UNL     1     175.499 176.895 170.555  0.00  0.00    +0.020 A 
ATOM     12  C   UNL     1     175.124 177.838 171.512  0.00  0.00    +0.001 A 
ATOM     13  C   UNL     1     176.045 178.265 172.468  0.00  0.00    +0.000 A 
ATOM     14  C   UNL     1     177.340 177.748 172.467  0.00  0.00    +0.006 A 
ATOM     15  C   UNL     1     177.715 176.805 171.511  0.00  0.00    -0.017 A 
ENDBRANCH   1  15
BRANCH   2  16
ATOM     16  C   UNL     1     178.642 174.367 173.180  0.00  0.00    +0.337 C 
ATOM     17  O   UNL     1     177.616 174.343 173.833  0.00  0.00    -0.245 OA
BRANCH  16  18
ATOM     18  O   UNL     1     179.292 173.329 172.600  0.00  0.00    -0.465 OA
ATOM     19  C   UNL     1     179.674 172.278 173.492  0.00  0.00    +0.280 C 
ENDBRANCH  16  18
ENDBRANCH   2  16
BRANCH   8  20
ATOM     20  C   UNL     1     180.075 177.940 169.858  0.00  0.00    +0.338 C 
ATOM     21  O   UNL     1     180.482 177.331 168.886  0.00  0.00    -0.245 OA
BRANCH  20  22
ATOM     22  O   UNL     1     179.529 179.179 169.904  0.00  0.00    -0.462 OA
BRANCH  22  23
ATOM     23  C   UNL     1     178.476 179.412 168.963  0.00  0.00    +0.229 C 
ATOM     24  C   UNL     1     177.400 180.246 169.626  0.00  0.00    +0.048 C 
ENDBRANCH  22  23
ENDBRANCH  20  22
ENDBRANCH   8  20
BRANCH   7  25
ATOM     25  C   UNL     1     181.999 178.936 171.947  0.00  0.00    +0.211 C 
BRANCH  25  26
ATOM     26  O   UNL     1     181.720 179.981 172.858  0.00  0.00    -0.373 OA
BRANCH  26  27
ATOM     27  C   UNL     1     181.841 181.262 172.247  0.00  0.00    +0.175 C 
BRANCH  27  28
ATOM     28  C   UNL     1     180.453 181.766 171.887  0.00  0.00    +0.106 C 
BRANCH  28  29
ATOM     29  N   UNL     1     179.429 180.963 172.539  0.00  0.00    -0.328 NA
ATOM     30  H   UNL     1     179.429 180.025 172.140  0.00  0.00    +0.118 HD
ATOM     31  H   UNL     1     178.509 181.356 172.347  0.00  0.00    +0.118 HD
ENDBRANCH  28  29
ENDBRANCH  27  28
ENDBRANCH  26  27
ENDBRANCH  25  26
ENDBRANCH   7  25
TORSDOF 11
