REMARK VINA RESULT:      -5.6      3.047      5.411
REMARK  Name = 2162
REMARK  14 active torsions:
REMARK  status: ('A' for Active; 'I' for Inactive)
REMARK    1  A    between atoms: O_2  and  C_15
REMARK    2  A    between atoms: O_2  and  C_24
REMARK    3  A    between atoms: O_3  and  C_16
REMARK    4  A    between atoms: O_3  and  C_25
REMARK    5  A    between atoms: O_4  and  C_18
REMARK    6  A    between atoms: O_4  and  C_27
REMARK    7  A    between atoms: N_8  and  C_26
REMARK    8  A    between atoms: C_9  and  C_14
REMARK    9  A    between atoms: C_10  and  C_16
REMARK   10  A    between atoms: C_11  and  C_18
REMARK   11  A    between atoms: C_12  and  C_15
REMARK   12  A    between atoms: C_13  and  C_17
REMARK   13  A    between atoms: C_24  and  C_26
REMARK   14  A    between atoms: C_25  and  C_28
REMARK                            x       y       z     vdW  Elec       q    Type
REMARK                         _______ _______ _______ _____ _____    ______ ____
ROOT
ATOM      1  C   UNL     1     178.873 177.015 171.572  0.00  0.00    +0.097 C 
ATOM      2  C   UNL     1     177.360 177.164 171.387  0.00  0.00    +0.065 C 
ATOM      3  C   UNL     1     176.796 178.373 171.164  0.00  0.00    +0.016 C 
ATOM      4  C   UNL     1     175.333 178.622 170.918  0.00  0.00    +0.061 C 
ATOM      5  N   UNL     1     177.592 179.507 171.158  0.00  0.00    -0.319 N 
ATOM      6  H   UNL     1     177.137 180.395 170.979  0.00  0.00    +0.152 HD
ATOM      7  C   UNL     1     178.946 179.526 171.454  0.00  0.00    +0.045 C 
ATOM      8  C   UNL     1     179.598 178.362 171.674  0.00  0.00    +0.068 C 
ENDROOT
BRANCH   1  15
ATOM      9 CL   UNL     1     180.036 174.233 172.229  0.00  0.00    -0.083 Cl
ATOM     10  C   UNL     1     179.995 174.941 170.656  0.00  0.00    +0.045 A 
ATOM     11  C   UNL     1     180.521 174.221 169.584  0.00  0.00    +0.020 A 
ATOM     12  C   UNL     1     180.503 174.766 168.301  0.00  0.00    +0.001 A 
ATOM     13  C   UNL     1     179.958 176.033 168.089  0.00  0.00    +0.000 A 
ATOM     14  C   UNL     1     179.432 176.753 169.161  0.00  0.00    +0.006 A 
ATOM     15  C   UNL     1     179.450 176.207 170.445  0.00  0.00    -0.017 A 
ENDBRANCH   1  15
BRANCH   2  16
ATOM     16  C   UNL     1     176.556 175.936 171.513  0.00  0.00    +0.337 C 
ATOM     17  O   UNL     1     176.349 175.378 172.574  0.00  0.00    -0.245 OA
BRANCH  16  18
ATOM     18  O   UNL     1     176.123 175.581 170.278  0.00  0.00    -0.465 OA
ATOM     19  C   UNL     1     176.391 174.225 169.910  0.00  0.00    +0.280 C 
ENDBRANCH  16  18
ENDBRANCH   2  16
BRANCH   8  20
ATOM     20  C   UNL     1     181.011 178.321 172.084  0.00  0.00    +0.338 C 
ATOM     21  O   UNL     1     181.369 178.128 173.232  0.00  0.00    -0.245 OA
BRANCH  20  22
ATOM     22  O   UNL     1     181.781 178.527 170.989  0.00  0.00    -0.462 OA
BRANCH  22  23
ATOM     23  C   UNL     1     183.135 178.079 171.106  0.00  0.00    +0.229 C 
ATOM     24  C   UNL     1     183.231 176.660 170.588  0.00  0.00    +0.048 C 
ENDBRANCH  22  23
ENDBRANCH  20  22
ENDBRANCH   8  20
BRANCH   7  25
ATOM     25  C   UNL     1     179.569 180.895 171.491  0.00  0.00    +0.211 C 
BRANCH  25  26
ATOM     26  O   UNL     1     179.722 181.309 172.834  0.00  0.00    -0.373 OA
BRANCH  26  27
ATOM     27  C   UNL     1     180.720 182.316 172.968  0.00  0.00    +0.175 C 
BRANCH  27  28
ATOM     28  C   UNL     1     182.065 181.726 172.575  0.00  0.00    +0.106 C 
BRANCH  28  29
ATOM     29  N   UNL     1     182.659 181.011 173.694  0.00  0.00    -0.328 NA
ATOM     30  H   UNL     1     182.085 181.145 174.526  0.00  0.00    +0.118 HD
ATOM     31  H   UNL     1     183.573 181.407 173.910  0.00  0.00    +0.118 HD
ENDBRANCH  28  29
ENDBRANCH  27  28
ENDBRANCH  26  27
ENDBRANCH  25  26
ENDBRANCH   7  25
TORSDOF 11
