MODEL 1
REMARK VINA RESULT:      -3.7      0.000      0.000
REMARK  Name = 370
REMARK                            x       y       z     vdW  Elec       q    Type
REMARK                         _______ _______ _______ _____ _____    ______ ____
ROOT
ATOM      3  C   LIG    1      208.585 142.029 130.941  0.00  0.00    +0.201 A 
ATOM      4  C   LIG    1      208.249 143.224 131.578  0.00  0.00    +0.163 A 
ATOM      5  C   LIG    1      207.483 143.202 132.743  0.00  0.00    +0.064 A 
ATOM      6  C   LIG    1      207.050 141.985 133.271  0.00  0.00    +0.066 A 
ATOM     11  C   LIG    1      207.385 140.791 132.633  0.00  0.00    +0.064 A 
ATOM     14  C   LIG    1      208.151 140.812 131.469  0.00  0.00    +0.163 A 
ENDROOT
BRANCH   3   1
ATOM      1  O   LIG    1      209.335 142.050 129.802  0.00  0.00    -0.501 OA
ATOM      2  H   LIG    1      209.644 141.145 129.622  0.00  0.00    +0.292 HD
ENDBRANCH   3   1
BRANCH   6   7
ATOM      7  C   LIG    1      206.251 141.962 134.486  0.00  0.00    +0.337 C 
ATOM      8  O   LIG    1      205.471 141.062 134.812  0.00  0.00    -0.245 OA
BRANCH   7   9
ATOM      9  O   LIG    1      206.449 143.065 135.259  0.00  0.00    -0.477 OA
ATOM     10  H   LIG    1      206.084 143.874 134.841  0.00  0.00    +0.295 HD
ENDBRANCH   7   9
ENDBRANCH   6   7
BRANCH   4  12
ATOM     12  O   LIG    1      208.668 144.419 131.074  0.00  0.00    -0.503 OA
ATOM     13  H   LIG    1      209.613 144.344 130.856  0.00  0.00    +0.292 HD
ENDBRANCH   4  12
BRANCH  14  15
ATOM     15  O   LIG    1      208.471 139.639 130.854  0.00  0.00    -0.503 OA
ATOM     16  H   LIG    1      207.699 139.047 130.879  0.00  0.00    +0.292 HD
ENDBRANCH  14  15
TORSDOF 5
ENDMDL
MODEL 2
REMARK VINA RESULT:      -3.7      0.027      2.402
REMARK  Name = 370
REMARK                            x       y       z     vdW  Elec       q    Type
REMARK                         _______ _______ _______ _____ _____    ______ ____
ROOT
ATOM      3  C   LIG    1      208.584 142.023 130.948  0.00  0.00    +0.201 A 
ATOM      4  C   LIG    1      208.158 140.804 131.477  0.00  0.00    +0.163 A 
ATOM      5  C   LIG    1      207.398 140.778 132.646  0.00  0.00    +0.064 A 
ATOM      6  C   LIG    1      207.064 141.972 133.288  0.00  0.00    +0.066 A 
ATOM     11  C   LIG    1      207.491 143.189 132.760  0.00  0.00    +0.064 A 
ATOM     14  C   LIG    1      208.251 143.216 131.591  0.00  0.00    +0.163 A 
ENDROOT
BRANCH   3   1
ATOM      1  O   LIG    1      209.326 142.048 129.805  0.00  0.00    -0.501 OA
ATOM      2  H   LIG    1      210.042 141.395 129.889  0.00  0.00    +0.292 HD
ENDBRANCH   3   1
BRANCH   6   7
ATOM      7  C   LIG    1      206.271 141.945 134.507  0.00  0.00    +0.337 C 
ATOM      8  O   LIG    1      205.517 141.029 134.849  0.00  0.00    -0.245 OA
BRANCH   7   9
ATOM      9  O   LIG    1      206.442 143.063 135.264  0.00  0.00    -0.477 OA
ATOM     10  H   LIG    1      205.610 143.336 135.706  0.00  0.00    +0.295 HD
ENDBRANCH   7   9
ENDBRANCH   6   7
BRANCH   4  12
ATOM     12  O   LIG    1      208.475 139.632 130.858  0.00  0.00    -0.503 OA
ATOM     13  H   LIG    1      208.377 139.757 129.899  0.00  0.00    +0.292 HD
ENDBRANCH   4  12
BRANCH  14  15
ATOM     15  O   LIG    1      208.662 144.412 131.085  0.00  0.00    -0.503 OA
ATOM     16  H   LIG    1      208.495 145.109 131.743  0.00  0.00    +0.292 HD
ENDBRANCH  14  15
TORSDOF 5
ENDMDL
MODEL 3
REMARK VINA RESULT:      -3.7      2.754      4.672
REMARK  Name = 370
REMARK                            x       y       z     vdW  Elec       q    Type
REMARK                         _______ _______ _______ _____ _____    ______ ____
ROOT
ATOM      3  C   LIG    1      208.618 141.876 131.017  0.00  0.00    +0.201 A 
ATOM      4  C   LIG    1      208.010 140.752 130.456  0.00  0.00    +0.163 A 
ATOM      5  C   LIG    1      206.947 140.905 129.567  0.00  0.00    +0.064 A 
ATOM      6  C   LIG    1      206.490 142.182 129.239  0.00  0.00    +0.066 A 
ATOM     11  C   LIG    1      207.098 143.304 129.799  0.00  0.00    +0.064 A 
ATOM     14  C   LIG    1      208.161 143.153 130.688  0.00  0.00    +0.163 A 
ENDROOT
BRANCH   3   1
ATOM      1  O   LIG    1      209.659 141.727 131.885  0.00  0.00    -0.501 OA
ATOM      2  H   LIG    1      209.667 140.806 132.199  0.00  0.00    +0.292 HD
ENDBRANCH   3   1
BRANCH   6   7
ATOM      7  C   LIG    1      205.381 142.341 128.311  0.00  0.00    +0.337 C 
ATOM      8  O   LIG    1      204.260 142.768 128.603  0.00  0.00    -0.245 OA
BRANCH   7   9
ATOM      9  O   LIG    1      205.705 141.962 127.044  0.00  0.00    -0.477 OA
ATOM     10  H   LIG    1      206.353 141.225 127.038  0.00  0.00    +0.295 HD
ENDBRANCH   7   9
ENDBRANCH   6   7
BRANCH   4  12
ATOM     12  O   LIG    1      208.449 139.500 130.768  0.00  0.00    -0.503 OA
ATOM     13  H   LIG    1      207.758 138.863 130.515  0.00  0.00    +0.292 HD
ENDBRANCH   4  12
BRANCH  14  15
ATOM     15  O   LIG    1      208.746 144.257 131.230  0.00  0.00    -0.503 OA
ATOM     16  H   LIG    1      208.654 145.001 130.610  0.00  0.00    +0.292 HD
ENDBRANCH  14  15
TORSDOF 5
ENDMDL
MODEL 4
REMARK VINA RESULT:      -3.7      2.756      3.998
REMARK  Name = 370
REMARK                            x       y       z     vdW  Elec       q    Type
REMARK                         _______ _______ _______ _____ _____    ______ ____
ROOT
ATOM      3  C   LIG    1      208.622 141.881 131.015  0.00  0.00    +0.201 A 
ATOM      4  C   LIG    1      208.160 143.157 130.688  0.00  0.00    +0.163 A 
ATOM      5  C   LIG    1      207.091 143.307 129.806  0.00  0.00    +0.064 A 
ATOM      6  C   LIG    1      206.482 142.181 129.248  0.00  0.00    +0.066 A 
ATOM     11  C   LIG    1      206.944 140.907 129.575  0.00  0.00    +0.064 A 
ATOM     14  C   LIG    1      208.014 140.756 130.457  0.00  0.00    +0.163 A 
ENDROOT
BRANCH   3   1
ATOM      1  O   LIG    1      209.667 141.734 131.878  0.00  0.00    -0.501 OA
ATOM      2  H   LIG    1      210.487 141.964 131.409  0.00  0.00    +0.292 HD
ENDBRANCH   3   1
BRANCH   6   7
ATOM      7  C   LIG    1      205.366 142.338 128.329  0.00  0.00    +0.337 C 
ATOM      8  O   LIG    1      204.242 142.749 128.633  0.00  0.00    -0.245 OA
BRANCH   7   9
ATOM      9  O   LIG    1      205.686 141.976 127.057  0.00  0.00    -0.477 OA
ATOM     10  H   LIG    1      205.941 142.751 126.510  0.00  0.00    +0.295 HD
ENDBRANCH   7   9
ENDBRANCH   6   7
BRANCH   4  12
ATOM     12  O   LIG    1      208.744 144.264 131.228  0.00  0.00    -0.503 OA
ATOM     13  H   LIG    1      208.165 144.601 131.933  0.00  0.00    +0.292 HD
ENDBRANCH   4  12
BRANCH  14  15
ATOM     15  O   LIG    1      208.456 139.506 130.768  0.00  0.00    -0.503 OA
ATOM     16  H   LIG    1      208.156 139.276 131.665  0.00  0.00    +0.292 HD
ENDBRANCH  14  15
TORSDOF 5
ENDMDL
MODEL 5
REMARK VINA RESULT:      -3.7      2.332      3.054
REMARK  Name = 370
REMARK                            x       y       z     vdW  Elec       q    Type
REMARK                         _______ _______ _______ _____ _____    ______ ____
ROOT
ATOM      3  C   LIG    1      208.284 143.136 131.342  0.00  0.00    +0.201 A 
ATOM      4  C   LIG    1      206.955 142.904 130.986  0.00  0.00    +0.163 A 
ATOM      5  C   LIG    1      206.406 141.630 131.131  0.00  0.00    +0.064 A 
ATOM      6  C   LIG    1      207.187 140.586 131.631  0.00  0.00    +0.066 A 
ATOM     11  C   LIG    1      208.515 140.819 131.986  0.00  0.00    +0.064 A 
ATOM     14  C   LIG    1      209.064 142.092 131.841  0.00  0.00    +0.163 A 
ENDROOT
BRANCH   3   1
ATOM      1  O   LIG    1      208.820 144.381 131.201  0.00  0.00    -0.501 OA
ATOM      2  H   LIG    1      209.787 144.310 131.284  0.00  0.00    +0.292 HD
ENDBRANCH   3   1
BRANCH   6   7
ATOM      7  C   LIG    1      206.614 139.258 131.783  0.00  0.00    +0.337 C 
ATOM      8  O   LIG    1      206.154 138.793 132.830  0.00  0.00    -0.245 OA
BRANCH   7   9
ATOM      9  O   LIG    1      206.632 138.548 130.622  0.00  0.00    -0.477 OA
ATOM     10  H   LIG    1      207.517 138.564 130.197  0.00  0.00    +0.295 HD
ENDBRANCH   7   9
ENDBRANCH   6   7
BRANCH   4  12
ATOM     12  O   LIG    1      206.182 143.915 130.499  0.00  0.00    -0.503 OA
ATOM     13  H   LIG    1      206.071 144.580 131.200  0.00  0.00    +0.292 HD
ENDBRANCH   4  12
BRANCH  14  15
ATOM     15  O   LIG    1      210.363 142.306 132.191  0.00  0.00    -0.503 OA
ATOM     16  H   LIG    1      210.920 141.623 131.778  0.00  0.00    +0.292 HD
ENDBRANCH  14  15
TORSDOF 5
ENDMDL
MODEL 6
REMARK VINA RESULT:      -3.6      2.947      4.139
REMARK  Name = 370
REMARK                            x       y       z     vdW  Elec       q    Type
REMARK                         _______ _______ _______ _____ _____    ______ ____
ROOT
ATOM      3  C   LIG    1      209.390 144.213 127.744  0.00  0.00    +0.201 A 
ATOM      4  C   LIG    1      209.974 144.945 128.777  0.00  0.00    +0.163 A 
ATOM      5  C   LIG    1      209.940 144.458 130.083  0.00  0.00    +0.064 A 
ATOM      6  C   LIG    1      209.321 143.238 130.357  0.00  0.00    +0.066 A 
ATOM     11  C   LIG    1      208.737 142.506 129.324  0.00  0.00    +0.064 A 
ATOM     14  C   LIG    1      208.771 142.992 128.018  0.00  0.00    +0.163 A 
ENDROOT
BRANCH   3   1
ATOM      1  O   LIG    1      209.424 144.689 126.467  0.00  0.00    -0.501 OA
ATOM      2  H   LIG    1      209.585 143.941 125.865  0.00  0.00    +0.292 HD
ENDBRANCH   3   1
BRANCH   6   7
ATOM      7  C   LIG    1      209.287 142.729 131.719  0.00  0.00    +0.337 C 
ATOM      8  O   LIG    1      208.291 142.707 132.450  0.00  0.00    -0.245 OA
BRANCH   7   9
ATOM      9  O   LIG    1      210.497 142.262 132.131  0.00  0.00    -0.477 OA
ATOM     10  H   LIG    1      210.956 141.762 131.422  0.00  0.00    +0.295 HD
ENDBRANCH   7   9
ENDBRANCH   6   7
BRANCH   4  12
ATOM     12  O   LIG    1      210.584 146.137 128.523  0.00  0.00    -0.503 OA
ATOM     13  H   LIG    1      211.545 145.989 128.493  0.00  0.00    +0.292 HD
ENDBRANCH   4  12
BRANCH  14  15
ATOM     15  O   LIG    1      208.196 142.269 127.017  0.00  0.00    -0.503 OA
ATOM     16  H   LIG    1      208.078 141.350 127.317  0.00  0.00    +0.292 HD
ENDBRANCH  14  15
TORSDOF 5
ENDMDL
MODEL 7
REMARK VINA RESULT:      -3.6      6.680      7.335
REMARK  Name = 370
REMARK                            x       y       z     vdW  Elec       q    Type
REMARK                         _______ _______ _______ _____ _____    ______ ____
ROOT
ATOM      3  C   LIG    1      203.402 144.431 127.747  0.00  0.00    +0.201 A 
ATOM      4  C   LIG    1      202.907 143.865 128.922  0.00  0.00    +0.163 A 
ATOM      5  C   LIG    1      202.415 144.684 129.938  0.00  0.00    +0.064 A 
ATOM      6  C   LIG    1      202.418 146.071 129.780  0.00  0.00    +0.066 A 
ATOM     11  C   LIG    1      202.913 146.636 128.605  0.00  0.00    +0.064 A 
ATOM     14  C   LIG    1      203.406 145.818 127.589  0.00  0.00    +0.163 A 
ENDROOT
BRANCH   3   1
ATOM      1  O   LIG    1      203.883 143.631 126.754  0.00  0.00    -0.501 OA
ATOM      2  H   LIG    1      203.128 143.208 126.309  0.00  0.00    +0.292 HD
ENDBRANCH   3   1
BRANCH   6   7
ATOM      7  C   LIG    1      201.904 146.925 130.838  0.00  0.00    +0.337 C 
ATOM      8  O   LIG    1      201.223 146.545 131.797  0.00  0.00    -0.245 OA
BRANCH   7   9
ATOM      9  O   LIG    1      202.253 148.229 130.670  0.00  0.00    -0.477 OA
ATOM     10  H   LIG    1      203.226 148.341 130.599  0.00  0.00    +0.295 HD
ENDBRANCH   7   9
ENDBRANCH   6   7
BRANCH   4  12
ATOM     12  O   LIG    1      202.897 142.512 129.089  0.00  0.00    -0.503 OA
ATOM     13  H   LIG    1      203.778 142.170 128.860  0.00  0.00    +0.292 HD
ENDBRANCH   4  12
BRANCH  14  15
ATOM     15  O   LIG    1      203.887 146.382 126.447  0.00  0.00    -0.503 OA
ATOM     16  H   LIG    1      204.221 147.274 126.650  0.00  0.00    +0.292 HD
ENDBRANCH  14  15
TORSDOF 5
ENDMDL
MODEL 8
REMARK VINA RESULT:      -3.6      6.328      7.875
REMARK  Name = 370
REMARK                            x       y       z     vdW  Elec       q    Type
REMARK                         _______ _______ _______ _____ _____    ______ ____
ROOT
ATOM      3  C   LIG    1      203.121 144.973 128.884  0.00  0.00    +0.201 A 
ATOM      4  C   LIG    1      203.083 143.600 129.126  0.00  0.00    +0.163 A 
ATOM      5  C   LIG    1      203.480 142.705 128.133  0.00  0.00    +0.064 A 
ATOM      6  C   LIG    1      203.915 143.183 126.896  0.00  0.00    +0.066 A 
ATOM     11  C   LIG    1      203.953 144.556 126.655  0.00  0.00    +0.064 A 
ATOM     14  C   LIG    1      203.556 145.451 127.647  0.00  0.00    +0.163 A 
ENDROOT
BRANCH   3   1
ATOM      1  O   LIG    1      202.733 145.848 129.855  0.00  0.00    -0.501 OA
ATOM      2  H   LIG    1      201.761 145.856 129.891  0.00  0.00    +0.292 HD
ENDBRANCH   3   1
BRANCH   6   7
ATOM      7  C   LIG    1      204.330 142.250 125.861  0.00  0.00    +0.337 C 
ATOM      8  O   LIG    1      205.449 141.734 125.770  0.00  0.00    -0.245 OA
BRANCH   7   9
ATOM      9  O   LIG    1      203.337 141.989 124.968  0.00  0.00    -0.477 OA
ATOM     10  H   LIG    1      202.593 141.502 125.382  0.00  0.00    +0.295 HD
ENDBRANCH   7   9
ENDBRANCH   6   7
BRANCH   4  12
ATOM     12  O   LIG    1      202.662 143.120 130.331  0.00  0.00    -0.503 OA
ATOM     13  H   LIG    1      203.394 142.622 130.733  0.00  0.00    +0.292 HD
ENDBRANCH   4  12
BRANCH  14  15
ATOM     15  O   LIG    1      203.596 146.790 127.399  0.00  0.00    -0.503 OA
ATOM     16  H   LIG    1      202.797 147.205 127.768  0.00  0.00    +0.292 HD
ENDBRANCH  14  15
TORSDOF 5
ENDMDL
MODEL 9
REMARK VINA RESULT:      -3.5      6.298      7.551
REMARK  Name = 370
REMARK                            x       y       z     vdW  Elec       q    Type
REMARK                         _______ _______ _______ _____ _____    ______ ____
ROOT
ATOM      3  C   LIG    1      203.000 144.844 129.040  0.00  0.00    +0.201 A 
ATOM      4  C   LIG    1      203.417 145.371 127.816  0.00  0.00    +0.163 A 
ATOM      5  C   LIG    1      203.849 144.518 126.801  0.00  0.00    +0.064 A 
ATOM      6  C   LIG    1      203.866 143.138 127.008  0.00  0.00    +0.066 A 
ATOM     11  C   LIG    1      203.450 142.613 128.231  0.00  0.00    +0.064 A 
ATOM     14  C   LIG    1      203.018 143.464 129.247  0.00  0.00    +0.163 A 
ENDROOT
BRANCH   3   1
ATOM      1  O   LIG    1      202.577 145.677 130.032  0.00  0.00    -0.501 OA
ATOM      2  H   LIG    1      202.327 145.136 130.801  0.00  0.00    +0.292 HD
ENDBRANCH   3   1
BRANCH   6   7
ATOM      7  C   LIG    1      204.316 142.249 125.949  0.00  0.00    +0.337 C 
ATOM      8  O   LIG    1      205.441 141.746 125.867  0.00  0.00    -0.245 OA
BRANCH   7   9
ATOM      9  O   LIG    1      203.348 142.014 125.022  0.00  0.00    -0.477 OA
ATOM     10  H   LIG    1      203.633 141.351 124.356  0.00  0.00    +0.295 HD
ENDBRANCH   7   9
ENDBRANCH   6   7
BRANCH   4  12
ATOM     12  O   LIG    1      203.403 146.716 127.601  0.00  0.00    -0.503 OA
ATOM     13  H   LIG    1      202.748 147.115 128.200  0.00  0.00    +0.292 HD
ENDBRANCH   4  12
BRANCH  14  15
ATOM     15  O   LIG    1      202.615 142.939 130.437  0.00  0.00    -0.503 OA
ATOM     16  H   LIG    1      202.469 141.983 130.329  0.00  0.00    +0.292 HD
ENDBRANCH  14  15
TORSDOF 5
ENDMDL
